No_0_1
                    3D
 Schrodinger Suite 2022-4.
 71 77  0  0  1  0            999 V2000
   -4.8750    3.6540  -22.0170 C   0  0  0  0  0  0
   -5.1450    3.8200  -23.3550 C   0  0  0  0  0  0
   -3.6410    3.3820  -21.6780 C   0  0  0  0  0  0
   -2.7600    3.4430  -23.8500 C   0  0  0  0  0  0
   -2.5960    3.2250  -22.4260 C   0  0  0  0  0  0
   -4.1040    3.7230  -24.3690 C   0  0  0  0  0  0
   -3.3620    3.6820  -26.5720 C   0  0  0  0  0  0
    6.3800    2.8510  -21.3450 C   0  0  0  0  0  0
    6.2290    2.9420  -23.8960 C   0  0  0  0  0  0
   -4.3610    3.8270  -25.7060 C   0  0  0  0  0  0
    2.4570    3.5710  -23.9040 C   0  0  0  0  0  0
    1.6620    4.7030  -23.6240 C   0  0  0  0  0  0
    3.4890    5.8740  -22.9800 C   0  0  0  0  0  0
    3.8630    3.7380  -23.6030 C   0  0  0  0  0  0
    1.8830    2.4520  -24.5390 C   0  0  0  0  0  0
   -0.2250    3.3130  -24.4340 C   0  0  0  0  0  0
    0.3310    4.5340  -23.8640 C   0  0  0  0  0  0
   -1.6800    3.3420  -24.7800 C   0  0  0  0  0  0
    4.4170    1.2340  -23.2610 C   0  0  0  0  0  0
    5.3500    0.8830  -22.1120 C   0  0  2  0  0  0
    6.9720    2.3770  -22.6900 C   0  0  2  0  0  0
    5.3600    1.9090  -20.9670 C   0  0  0  0  0  0
   -2.0100    3.4780  -26.2100 C   0  0  0  0  0  0
   -1.2570    2.7960  -21.8260 C   0  0  0  0  0  0
   -0.2310    2.4370  -21.3180 C   0  0  0  0  0  0
   -0.4860    5.6040  -23.5370 F   0  0  0  0  0  0
   -3.4270    3.1640  -20.2920 F   0  0  0  0  0  0
    2.1670    5.8620  -23.1200 N   0  0  0  0  0  0
    4.3640    4.8870  -23.1850 N   0  0  0  0  0  0
    0.5740    2.3840  -24.8350 N   0  0  0  0  0  0
    4.7580    2.6670  -23.7630 N   0  0  0  0  0  0
    6.7550    0.9100  -22.6040 N   0  0  1  0  0  0
   -3.5430    3.6710  -27.9600 O   0  0  0  0  0  0
   -5.6709    3.7494  -21.2873 H   0  0  0  0  0  0
   -6.1573    4.0297  -23.6811 H   0  0  0  0  0  0
    5.9297    3.8464  -21.4732 H   0  0  0  0  0  0
    7.1708    2.8611  -20.5804 H   0  0  0  0  0  0
    6.6084    2.4698  -24.8142 H   0  0  0  0  0  0
    6.3955    4.0279  -23.9525 H   0  0  0  0  0  0
   -5.3692    4.0268  -26.0504 H   0  0  0  0  0  0
    2.5028    1.6036  -24.8058 H   0  0  0  0  0  0
    3.3753    1.2078  -22.9087 H   0  0  0  0  0  0
    4.5593    0.5154  -24.0816 H   0  0  0  0  0  0
    5.1058   -0.1159  -21.7215 H   0  0  0  0  0  0
    8.0454    2.6100  -22.7485 H   0  0  0  0  0  0
    4.3874    2.4215  -20.9287 H   0  0  0  0  0  0
    5.6546    1.4086  -20.0328 H   0  0  0  0  0  0
   -1.2454    3.4258  -26.9766 H   0  0  0  0  0  0
    0.6724    2.1209  -20.8718 H   0  0  0  0  0  0
    7.3952    0.4131  -21.8901 H   0  0  0  0  0  0
   -2.7030    3.5552  -28.3884 H   0  0  0  0  0  0
    7.8480    8.7170  -20.8920 N   0  3  1  0  0  0
    5.8000    8.4010  -21.0530 C   0  0  2  0  0  0
    4.0800    7.2100  -22.5440 C   0  0  0  0  0  0
    6.8990    8.8610  -22.0420 C   0  0  0  0  0  0
    6.8350    8.2000  -19.9200 C   0  0  0  0  0  0
    5.1320    7.0640  -21.4280 C   0  0  0  0  0  0
    9.0240    7.8140  -21.1380 C   0  0  0  0  0  0
    8.1709    9.6258  -20.5991 H   0  0  0  0  0  0
    5.0707    9.1932  -20.8282 H   0  0  0  0  0  0
    4.5349    7.7099  -23.4118 H   0  0  0  0  0  0
    3.2720    7.8720  -22.1990 H   0  0  0  0  0  0
    7.0909    8.0184  -22.7226 H   0  0  0  0  0  0
    6.7540    9.9391  -22.2050 H   0  0  0  0  0  0
    6.6621    8.9966  -19.1814 H   0  0  0  0  0  0
    7.0030    7.1169  -19.8270 H   0  0  0  0  0  0
    4.6601    6.6281  -20.5351 H   0  0  0  0  0  0
    5.9038    6.3472  -21.7449 H   0  0  0  0  0  0
    9.6540    7.7780  -20.2370 H   0  0  0  0  0  0
    8.6652    6.8015  -21.3749 H   0  0  0  0  0  0
    9.6130    8.2000  -21.9830 H   0  0  0  0  0  0
  1  2  2  0  0  0
  1  3  1  0  0  0
  1 34  1  0  0  0
  2  6  1  0  0  0
  2 35  1  0  0  0
  3  5  2  0  0  0
  3 27  1  0  0  0
  4  5  1  0  0  0
  4  6  2  0  0  0
  4 18  1  0  0  0
  5 24  1  0  0  0
  6 10  1  0  0  0
  7 10  2  0  0  0
  7 23  1  0  0  0
  7 33  1  0  0  0
  8 21  1  0  0  0
  8 22  1  0  0  0
  8 36  1  0  0  0
  8 37  1  0  0  0
  9 21  1  0  0  0
  9 31  1  0  0  0
  9 38  1  0  0  0
  9 39  1  0  0  0
 10 40  1  0  0  0
 11 12  1  0  0  0
 11 14  2  0  0  0
 11 15  1  0  0  0
 12 17  1  0  0  0
 12 28  2  0  0  0
 13 28  1  0  0  0
 13 29  2  0  0  0
 13 54  1  0  0  0
 14 29  1  0  0  0
 14 31  1  0  0  0
 15 30  2  0  0  0
 15 41  1  0  0  0
 16 17  2  0  0  0
 16 18  1  0  0  0
 16 30  1  0  0  0
 17 26  1  0  0  0
 18 23  2  0  0  0
 19 20  1  0  0  0
 19 31  1  0  0  0
 19 42  1  0  0  0
 19 43  1  0  0  0
 20 22  1  0  0  0
 20 32  1  0  0  0
 20 44  1  0  0  0
 21 32  1  0  0  0
 21 45  1  0  0  0
 22 46  1  0  0  0
 22 47  1  0  0  0
 23 48  1  0  0  0
 24 25  3  0  0  0
 25 49  1  0  0  0
 32 50  1  0  0  0
 33 51  1  0  0  0
 52 55  1  0  0  0
 52 56  1  0  0  0
 52 58  1  0  0  0
 52 59  1  0  0  0
 53 55  1  0  0  0
 53 56  1  0  0  0
 53 57  1  0  0  0
 53 60  1  0  0  0
 54 57  1  0  0  0
 54 61  1  0  0  0
 54 62  1  0  0  0
 55 63  1  0  0  0
 55 64  1  0  0  0
 56 65  1  0  0  0
 56 66  1  0  0  0
 57 67  1  0  0  0
 57 68  1  0  0  0
 58 69  1  0  0  0
 58 70  1  0  0  0
 58 71  1  0  0  0
M  CHG  1  52   1
M  END
> <s_m_entry_id>
159

> <s_m_entry_name>
000000001.1

> <s_m_Source_Path>
/Users/zaksoul/Documents/3r_UNI/2nd_SEMESTER/BSC/FRAG_RECON/RESULTS/2

> <s_m_Source_File>
000000001.mol2

> <i_m_Source_File_Index>
1

$$$$
No_0_2
                    3D
 Schrodinger Suite 2022-4.
 71 77  0  0  1  0            999 V2000
   -5.3040    3.7250  -22.1420 C   0  0  0  0  0  0
   -5.5350    3.8780  -23.4890 C   0  0  0  0  0  0
   -4.0780    3.4590  -21.7650 C   0  0  0  0  0  0
   -3.1350    3.5050  -23.9120 C   0  0  0  0  0  0
   -3.0120    3.3000  -22.4810 C   0  0  0  0  0  0
   -4.4650    3.7760  -24.4720 C   0  0  0  0  0  0
   -3.6590    3.7190  -26.6510 C   0  0  0  0  0  0
    5.9300    2.9650  -21.1380 C   0  0  0  0  0  0
    5.8530    3.0340  -23.6930 C   0  0  0  0  0  0
   -4.6830    3.8680  -25.8160 C   0  0  0  0  0  0
    2.0810    3.6500  -23.8160 C   0  0  0  0  0  0
    1.2740    4.7820  -23.5690 C   0  0  0  0  0  0
    3.0780    5.9640  -22.8820 C   0  0  0  0  0  0
    3.4770    3.8250  -23.4760 C   0  0  0  0  0  0
    1.5290    2.5240  -24.4570 C   0  0  0  0  0  0
   -0.5850    3.3780  -24.4210 C   0  0  0  0  0  0
   -0.0490    4.6060  -23.8450 C   0  0  0  0  0  0
   -2.0290    3.4000  -24.8090 C   0  0  0  0  0  0
    4.0290    1.3260  -23.0970 C   0  0  0  0  0  0
    4.9290    0.9870  -21.9180 C   0  0  2  0  0  0
    6.5620    2.4820  -22.4620 C   0  0  2  0  0  0
    4.9030    2.0230  -20.7820 C   0  0  0  0  0  0
   -2.3180    3.5230  -26.2490 C   0  0  0  0  0  0
   -1.6900    2.8800  -21.8390 C   0  0  0  0  0  0
   -0.6780    2.5290  -21.2990 C   0  0  0  0  0  0
   -0.8790    5.6760  -23.5520 F   0  0  0  0  0  0
   -3.9050    3.2540  -20.3720 F   0  0  0  0  0  0
    1.7610    5.9470  -23.0610 N   0  0  0  0  0  0
    3.9610    4.9790  -23.0530 N   0  0  0  0  0  0
    0.2290    2.4490  -24.7900 N   0  0  0  0  0  0
    4.3790    2.7550  -23.6000 N   0  0  0  0  0  0
    6.3470    1.0150  -22.3690 N   0  0  1  0  0  0
   -3.8000    3.6950  -28.0450 O   0  0  0  0  0  0
   -6.1214    3.8244  -21.4370 H   0  0  0  0  0  0
   -6.5379    4.0818  -23.8464 H   0  0  0  0  0  0
    5.4810    3.9579  -21.2883 H   0  0  0  0  0  0
    6.6991    2.9842  -20.3518 H   0  0  0  0  0  0
    6.2606    2.5558  -24.5959 H   0  0  0  0  0  0
    6.0175    4.1199  -23.7546 H   0  0  0  0  0  0
   -5.6814    4.0617  -26.1913 H   0  0  0  0  0  0
    2.1581    1.6752  -24.6998 H   0  0  0  0  0  0
    2.9778    1.2988  -22.7742 H   0  0  0  0  0  0
    4.1965    0.6003  -23.9065 H   0  0  0  0  0  0
    4.6767   -0.0091  -21.5254 H   0  0  0  0  0  0
    7.6357    2.7191  -22.4913 H   0  0  0  0  0  0
    3.9282    2.5326  -20.7759 H   0  0  0  0  0  0
    5.1715    1.5315  -19.8353 H   0  0  0  0  0  0
   -1.5313    3.4668  -26.9926 H   0  0  0  0  0  0
    0.2131    2.2200  -20.8240 H   0  0  0  0  0  0
    6.9684    0.5262  -21.6332 H   0  0  0  0  0  0
   -2.9473    3.5793  -28.4476 H   0  0  0  0  0  0
    7.5640    8.9940  -21.4180 N   0  3  1  0  0  0
    5.5520    8.5150  -21.2050 C   0  0  2  0  0  0
    3.6520    7.3060  -22.4400 C   0  0  0  0  0  0
    6.3940    9.1490  -22.3400 C   0  0  0  0  0  0
    6.8070    8.3120  -20.3220 C   0  0  0  0  0  0
    4.9160    7.1610  -21.5720 C   0  0  0  0  0  0
    8.7250    8.2200  -21.9770 C   0  0  0  0  0  0
    7.8761    9.9002  -21.1059 H   0  0  0  0  0  0
    4.8311    9.2199  -20.7651 H   0  0  0  0  0  0
    3.8859    7.9137  -23.3266 H   0  0  0  0  0  0
    2.8871    7.8650  -21.8810 H   0  0  0  0  0  0
    6.5010    8.3860  -23.1251 H   0  0  0  0  0  0
    6.1450   10.2201  -22.3650 H   0  0  0  0  0  0
    6.7340    9.0269  -19.4892 H   0  0  0  0  0  0
    7.0639    7.2435  -20.3710 H   0  0  0  0  0  0
    4.6661    6.6132  -20.6514 H   0  0  0  0  0  0
    5.6546    6.5423  -22.1027 H   0  0  0  0  0  0
    9.5259    8.1640  -21.2251 H   0  0  0  0  0  0
    8.3960    7.2031  -22.2370 H   0  0  0  0  0  0
    9.1032    8.7243  -22.8785 H   0  0  0  0  0  0
  1  2  2  0  0  0
  1  3  1  0  0  0
  1 34  1  0  0  0
  2  6  1  0  0  0
  2 35  1  0  0  0
  3  5  2  0  0  0
  3 27  1  0  0  0
  4  5  1  0  0  0
  4  6  2  0  0  0
  4 18  1  0  0  0
  5 24  1  0  0  0
  6 10  1  0  0  0
  7 10  2  0  0  0
  7 23  1  0  0  0
  7 33  1  0  0  0
  8 21  1  0  0  0
  8 22  1  0  0  0
  8 36  1  0  0  0
  8 37  1  0  0  0
  9 21  1  0  0  0
  9 31  1  0  0  0
  9 38  1  0  0  0
  9 39  1  0  0  0
 10 40  1  0  0  0
 11 12  1  0  0  0
 11 14  2  0  0  0
 11 15  1  0  0  0
 12 17  1  0  0  0
 12 28  2  0  0  0
 13 28  1  0  0  0
 13 29  2  0  0  0
 13 54  1  0  0  0
 14 29  1  0  0  0
 14 31  1  0  0  0
 15 30  2  0  0  0
 15 41  1  0  0  0
 16 17  2  0  0  0
 16 18  1  0  0  0
 16 30  1  0  0  0
 17 26  1  0  0  0
 18 23  2  0  0  0
 19 20  1  0  0  0
 19 31  1  0  0  0
 19 42  1  0  0  0
 19 43  1  0  0  0
 20 22  1  0  0  0
 20 32  1  0  0  0
 20 44  1  0  0  0
 21 32  1  0  0  0
 21 45  1  0  0  0
 22 46  1  0  0  0
 22 47  1  0  0  0
 23 48  1  0  0  0
 24 25  3  0  0  0
 25 49  1  0  0  0
 32 50  1  0  0  0
 33 51  1  0  0  0
 52 55  1  0  0  0
 52 56  1  0  0  0
 52 58  1  0  0  0
 52 59  1  0  0  0
 53 55  1  0  0  0
 53 56  1  0  0  0
 53 57  1  0  0  0
 53 60  1  0  0  0
 54 57  1  0  0  0
 54 61  1  0  0  0
 54 62  1  0  0  0
 55 63  1  0  0  0
 55 64  1  0  0  0
 56 65  1  0  0  0
 56 66  1  0  0  0
 57 67  1  0  0  0
 57 68  1  0  0  0
 58 69  1  0  0  0
 58 70  1  0  0  0
 58 71  1  0  0  0
M  CHG  1  52   1
M  END
> <s_m_entry_id>
160

> <s_m_entry_name>
000000002.1

> <s_m_Source_Path>
/Users/zaksoul/Documents/3r_UNI/2nd_SEMESTER/BSC/FRAG_RECON/RESULTS/2

> <s_m_Source_File>
000000002.mol2

> <i_m_Source_File_Index>
1

$$$$
No_0_3
                    3D
 Schrodinger Suite 2022-4.
 71 77  0  0  1  0            999 V2000
   -5.3110    3.5280  -21.8520 C   0  0  0  0  0  0
   -5.5760    3.7220  -23.1860 C   0  0  0  0  0  0
   -4.0720    3.2740  -21.5110 C   0  0  0  0  0  0
   -3.1800    3.4080  -23.6760 C   0  0  0  0  0  0
   -3.0200    3.1580  -22.2560 C   0  0  0  0  0  0
   -4.5280    3.6720  -24.1970 C   0  0  0  0  0  0
   -3.7720    3.7020  -26.3940 C   0  0  0  0  0  0
    5.9550    2.9490  -21.1280 C   0  0  0  0  0  0
    5.8180    3.1000  -23.6770 C   0  0  0  0  0  0
   -4.7790    3.8040  -25.5320 C   0  0  0  0  0  0
    2.0330    3.6480  -23.6940 C   0  0  0  0  0  0
    1.2120    4.7560  -23.3910 C   0  0  0  0  0  0
    3.0100    5.9490  -22.7060 C   0  0  0  0  0  0
    3.4330    3.8380  -23.3800 C   0  0  0  0  0  0
    1.4870    2.5330  -24.3590 C   0  0  0  0  0  0
   -0.6400    3.3460  -24.2470 C   0  0  0  0  0  0
   -0.1140    4.5640  -23.6430 C   0  0  0  0  0  0
   -2.0930    3.3540  -24.6010 C   0  0  0  0  0  0
    4.0390    1.3390  -23.0960 C   0  0  0  0  0  0
    4.9720    0.9790  -21.9510 C   0  0  2  0  0  0
    6.5650    2.5210  -22.4810 C   0  0  2  0  0  0
    4.9540    1.9760  -20.7800 C   0  0  0  0  0  0
   -2.4180    3.5180  -26.0290 C   0  0  0  0  0  0
   -1.6760    2.7430  -21.6590 C   0  0  0  0  0  0
   -0.6460    2.3930  -21.1540 C   0  0  0  0  0  0
   -0.9560    5.6080  -23.2950 F   0  0  0  0  0  0
   -3.8620    3.0270  -20.1300 F   0  0  0  0  0  0
    1.6890    5.9130  -22.8550 N   0  0  0  0  0  0
    3.9060    4.9870  -22.9300 N   0  0  0  0  0  0
    0.1810    2.4450  -24.6650 N   0  0  0  0  0  0
    4.3510    2.7900  -23.5600 N   0  0  0  0  0  0
    6.3790    1.0480  -22.4320 N   0  0  1  0  0  0
   -3.9440    3.7210  -27.7840 O   0  0  0  0  0  0
   -6.1130    3.5892  -21.1253 H   0  0  0  0  0  0
   -6.5905    3.9177  -23.5141 H   0  0  0  0  0  0
    5.4845    3.9375  -21.2350 H   0  0  0  0  0  0
    6.7413    2.9561  -20.3588 H   0  0  0  0  0  0
    6.2125    2.6590  -24.6043 H   0  0  0  0  0  0
    5.9604    4.1904  -23.7063 H   0  0  0  0  0  0
   -5.7893    3.9908  -25.8775 H   0  0  0  0  0  0
    2.1262    1.7052  -24.6440 H   0  0  0  0  0  0
    2.9961    1.2815  -22.7510 H   0  0  0  0  0  0
    4.2014    0.6441  -23.9331 H   0  0  0  0  0  0
    4.7480   -0.0341  -21.5857 H   0  0  0  0  0  0
    7.6335    2.7783  -22.5264 H   0  0  0  0  0  0
    3.9704    2.4663  -20.7346 H   0  0  0  0  0  0
    5.2538    1.4592  -19.8564 H   0  0  0  0  0  0
   -1.6481    3.5009  -26.7919 H   0  0  0  0  0  0
    0.2613    2.0862  -20.7093 H   0  0  0  0  0  0
    7.0262    0.5474  -21.7271 H   0  0  0  0  0  0
   -3.0990    3.6349  -28.2095 H   0  0  0  0  0  0
    7.4660    9.2710  -21.9660 N   0  3  1  0  0  0
    5.6200    8.5490  -21.3400 C   0  0  2  0  0  0
    3.5690    7.2860  -22.2330 C   0  0  0  0  0  0
    6.0910    9.4000  -22.5450 C   0  0  0  0  0  0
    7.0710    8.3860  -20.8250 C   0  0  0  0  0  0
    5.0210    7.1830  -21.7270 C   0  0  0  0  0  0
    8.5030    8.7010  -22.8930 C   0  0  0  0  0  0
    7.7750   10.1640  -21.6150 H   0  0  0  0  0  0
    4.9820    9.1120  -20.6429 H   0  0  0  0  0  0
    3.5200    8.0146  -23.0556 H   0  0  0  0  0  0
    2.9309    7.6871  -21.4318 H   0  0  0  0  0  0
    6.0540    8.7497  -23.4314 H   0  0  0  0  0  0
    5.7599   10.4322  -22.3580 H   0  0  0  0  0  0
    7.1571    8.9864  -19.9074 H   0  0  0  0  0  0
    7.3909    7.3662  -21.0850 H   0  0  0  0  0  0
    5.0590    6.5077  -20.8596 H   0  0  0  0  0  0
    5.6460    6.7170  -22.5030 H   0  0  0  0  0  0
    9.4714    8.6490  -22.3738 H   0  0  0  0  0  0
    8.2000    7.6909  -23.2060 H   0  0  0  0  0  0
    8.5970    9.3460  -23.7791 H   0  0  0  0  0  0
  1  2  2  0  0  0
  1  3  1  0  0  0
  1 34  1  0  0  0
  2  6  1  0  0  0
  2 35  1  0  0  0
  3  5  2  0  0  0
  3 27  1  0  0  0
  4  5  1  0  0  0
  4  6  2  0  0  0
  4 18  1  0  0  0
  5 24  1  0  0  0
  6 10  1  0  0  0
  7 10  2  0  0  0
  7 23  1  0  0  0
  7 33  1  0  0  0
  8 21  1  0  0  0
  8 22  1  0  0  0
  8 36  1  0  0  0
  8 37  1  0  0  0
  9 21  1  0  0  0
  9 31  1  0  0  0
  9 38  1  0  0  0
  9 39  1  0  0  0
 10 40  1  0  0  0
 11 12  1  0  0  0
 11 14  2  0  0  0
 11 15  1  0  0  0
 12 17  1  0  0  0
 12 28  2  0  0  0
 13 28  1  0  0  0
 13 29  2  0  0  0
 13 54  1  0  0  0
 14 29  1  0  0  0
 14 31  1  0  0  0
 15 30  2  0  0  0
 15 41  1  0  0  0
 16 17  2  0  0  0
 16 18  1  0  0  0
 16 30  1  0  0  0
 17 26  1  0  0  0
 18 23  2  0  0  0
 19 20  1  0  0  0
 19 31  1  0  0  0
 19 42  1  0  0  0
 19 43  1  0  0  0
 20 22  1  0  0  0
 20 32  1  0  0  0
 20 44  1  0  0  0
 21 32  1  0  0  0
 21 45  1  0  0  0
 22 46  1  0  0  0
 22 47  1  0  0  0
 23 48  1  0  0  0
 24 25  3  0  0  0
 25 49  1  0  0  0
 32 50  1  0  0  0
 33 51  1  0  0  0
 52 55  1  0  0  0
 52 56  1  0  0  0
 52 58  1  0  0  0
 52 59  1  0  0  0
 53 55  1  0  0  0
 53 56  1  0  0  0
 53 57  1  0  0  0
 53 60  1  0  0  0
 54 57  1  0  0  0
 54 61  1  0  0  0
 54 62  1  0  0  0
 55 63  1  0  0  0
 55 64  1  0  0  0
 56 65  1  0  0  0
 56 66  1  0  0  0
 57 67  1  0  0  0
 57 68  1  0  0  0
 58 69  1  0  0  0
 58 70  1  0  0  0
 58 71  1  0  0  0
M  CHG  1  52   1
M  END
> <s_m_entry_id>
161

> <s_m_entry_name>
000000003.1

> <s_m_Source_Path>
/Users/zaksoul/Documents/3r_UNI/2nd_SEMESTER/BSC/FRAG_RECON/RESULTS/2

> <s_m_Source_File>
000000003.mol2

> <i_m_Source_File_Index>
1

$$$$
No_0_4
                    3D
 Schrodinger Suite 2022-4.
 71 77  0  0  1  0            999 V2000
   -5.0920    3.8440  -22.1130 C   0  0  0  0  0  0
   -5.3760    4.0170  -23.4470 C   0  0  0  0  0  0
   -3.8470    3.6080  -21.7850 C   0  0  0  0  0  0
   -2.9830    3.7230  -23.9620 C   0  0  0  0  0  0
   -2.8030    3.4940  -22.5410 C   0  0  0  0  0  0
   -4.3400    3.9660  -24.4690 C   0  0  0  0  0  0
   -3.6120    3.9740  -26.6770 C   0  0  0  0  0  0
    6.1880    3.3980  -21.5230 C   0  0  0  0  0  0
    6.0170    3.5140  -24.0720 C   0  0  0  0  0  0
   -4.6090    4.0770  -25.8030 C   0  0  0  0  0  0
    2.2260    4.0200  -24.0480 C   0  0  0  0  0  0
    1.3970    5.1230  -23.7500 C   0  0  0  0  0  0
    3.1900    6.3450  -23.1030 C   0  0  0  0  0  0
    3.6280    4.2300  -23.7540 C   0  0  0  0  0  0
    1.6850    2.8910  -24.6920 C   0  0  0  0  0  0
   -0.4500    3.6820  -24.5630 C   0  0  0  0  0  0
    0.0700    4.9140  -23.9830 C   0  0  0  0  0  0
   -1.9070    3.6690  -24.9000 C   0  0  0  0  0  0
    4.2650    1.7420  -23.4450 C   0  0  0  0  0  0
    5.2160    1.4070  -22.3070 C   0  0  2  0  0  0
    6.7850    2.9600  -22.8770 C   0  0  2  0  0  0
    5.2010    2.4190  -21.1490 C   0  0  0  0  0  0
   -2.2520    3.8110  -26.3260 C   0  0  0  0  0  0
   -1.4470    3.1010  -21.9550 C   0  0  0  0  0  0
   -0.4070    2.7700  -21.4590 C   0  0  0  0  0  0
   -0.7790    5.9530  -23.6380 F   0  0  0  0  0  0
   -3.6170    3.3810  -20.4030 F   0  0  0  0  0  0
    1.8670    6.2920  -23.2350 N   0  0  0  0  0  0
    4.0940    5.3900  -23.3250 N   0  0  0  0  0  0
    0.3760    2.7840  -24.9810 N   0  0  0  0  0  0
    4.5560    3.1900  -23.9320 N   0  0  0  0  0  0
    6.6160    1.4850  -22.8070 N   0  0  1  0  0  0
   -3.8010    3.9740  -28.0640 O   0  0  0  0  0  0
   -5.8858    3.9052  -21.3774 H   0  0  0  0  0  0
   -6.3967    4.1977  -23.7642 H   0  0  0  0  0  0
    5.7047    4.3797  -21.6360 H   0  0  0  0  0  0
    6.9831    3.4242  -20.7633 H   0  0  0  0  0  0
    6.4048    3.0646  -24.9981 H   0  0  0  0  0  0
    6.1471    4.6054  -24.1164 H   0  0  0  0  0  0
   -5.6255    4.2478  -26.1385 H   0  0  0  0  0  0
    2.3293    2.0661  -24.9740 H   0  0  0  0  0  0
    3.2269    1.6774  -23.0869 H   0  0  0  0  0  0
    4.4244    1.0380  -24.2751 H   0  0  0  0  0  0
    5.0080    0.3962  -21.9263 H   0  0  0  0  0  0
    7.8500    3.2283  -22.9395 H   0  0  0  0  0  0
    4.2128    2.8995  -21.0985 H   0  0  0  0  0  0
    5.5180    1.9183  -20.2223 H   0  0  0  0  0  0
   -1.4912    3.7919  -27.0979 H   0  0  0  0  0  0
    0.5089    2.4780  -21.0220 H   0  0  0  0  0  0
    7.2778    1.0018  -22.1035 H   0  0  0  0  0  0
   -2.9608    3.8909  -28.4995 H   0  0  0  0  0  0
    7.5810    8.7100  -20.9650 N   0  3  0  0  0  0
    5.5230    8.8210  -21.1440 C   0  0  0  0  0  0
    3.7400    7.6940  -22.6550 C   0  0  0  0  0  0
    6.6970    8.9620  -22.1460 C   0  0  0  0  0  0
    6.4850    8.5720  -19.9550 C   0  0  0  0  0  0
    4.6350    7.5840  -21.4020 C   0  0  0  0  0  0
    4.7290   10.1300  -20.9690 C   0  0  0  0  0  0
    8.1010    9.5500  -20.7650 H   0  0  0  0  0  0
    8.0280    7.8140  -21.0810 H   0  0  0  0  0  0
    4.3152    8.1462  -23.4764 H   0  0  0  0  0  0
    2.9045    8.3786  -22.4471 H   0  0  0  0  0  0
    6.7090    8.0456  -22.7543 H   0  0  0  0  0  0
    6.7840   10.0318  -22.3869 H   0  0  0  0  0  0
    6.4910    9.4912  -19.3509 H   0  0  0  0  0  0
    6.4140    7.5029  -19.7060 H   0  0  0  0  0  0
    4.0061    7.3970  -20.5191 H   0  0  0  0  0  0
    5.2708    6.6903  -21.4860 H   0  0  0  0  0  0
    3.9120    9.9700  -20.2500 H   0  0  0  0  0  0
    5.3982   10.9183  -20.5939 H   0  0  0  0  0  0
    4.3092   10.4359  -21.9386 H   0  0  0  0  0  0
  1  2  2  0  0  0
  1  3  1  0  0  0
  1 34  1  0  0  0
  2  6  1  0  0  0
  2 35  1  0  0  0
  3  5  2  0  0  0
  3 27  1  0  0  0
  4  5  1  0  0  0
  4  6  2  0  0  0
  4 18  1  0  0  0
  5 24  1  0  0  0
  6 10  1  0  0  0
  7 10  2  0  0  0
  7 23  1  0  0  0
  7 33  1  0  0  0
  8 21  1  0  0  0
  8 22  1  0  0  0
  8 36  1  0  0  0
  8 37  1  0  0  0
  9 21  1  0  0  0
  9 31  1  0  0  0
  9 38  1  0  0  0
  9 39  1  0  0  0
 10 40  1  0  0  0
 11 12  1  0  0  0
 11 14  2  0  0  0
 11 15  1  0  0  0
 12 17  1  0  0  0
 12 28  2  0  0  0
 13 28  1  0  0  0
 13 29  2  0  0  0
 13 54  1  0  0  0
 14 29  1  0  0  0
 14 31  1  0  0  0
 15 30  2  0  0  0
 15 41  1  0  0  0
 16 17  2  0  0  0
 16 18  1  0  0  0
 16 30  1  0  0  0
 17 26  1  0  0  0
 18 23  2  0  0  0
 19 20  1  0  0  0
 19 31  1  0  0  0
 19 42  1  0  0  0
 19 43  1  0  0  0
 20 22  1  0  0  0
 20 32  1  0  0  0
 20 44  1  0  0  0
 21 32  1  0  0  0
 21 45  1  0  0  0
 22 46  1  0  0  0
 22 47  1  0  0  0
 23 48  1  0  0  0
 24 25  3  0  0  0
 25 49  1  0  0  0
 32 50  1  0  0  0
 33 51  1  0  0  0
 52 55  1  0  0  0
 52 56  1  0  0  0
 52 59  1  0  0  0
 52 60  1  0  0  0
 53 55  1  0  0  0
 53 56  1  0  0  0
 53 57  1  0  0  0
 53 58  1  0  0  0
 54 57  1  0  0  0
 54 61  1  0  0  0
 54 62  1  0  0  0
 55 63  1  0  0  0
 55 64  1  0  0  0
 56 65  1  0  0  0
 56 66  1  0  0  0
 57 67  1  0  0  0
 57 68  1  0  0  0
 58 69  1  0  0  0
 58 70  1  0  0  0
 58 71  1  0  0  0
M  CHG  1  52   1
M  END
> <s_m_entry_id>
162

> <s_m_entry_name>
000000004.1

> <s_m_Source_Path>
/Users/zaksoul/Documents/3r_UNI/2nd_SEMESTER/BSC/FRAG_RECON/RESULTS/2

> <s_m_Source_File>
000000004.mol2

> <i_m_Source_File_Index>
1

$$$$
No_0_5
                    3D
 Schrodinger Suite 2022-4.
 71 77  0  0  1  0            999 V2000
   -5.3140    3.5660  -21.9360 C   0  0  0  0  0  0
   -5.5840    3.7600  -23.2700 C   0  0  0  0  0  0
   -4.0740    3.3130  -21.6000 C   0  0  0  0  0  0
   -3.1890    3.4490  -23.7670 C   0  0  0  0  0  0
   -3.0240    3.1990  -22.3480 C   0  0  0  0  0  0
   -4.5380    3.7130  -24.2830 C   0  0  0  0  0  0
   -3.7890    3.7450  -26.4840 C   0  0  0  0  0  0
    5.9550    3.0000  -21.2480 C   0  0  0  0  0  0
    5.8100    3.1530  -23.7960 C   0  0  0  0  0  0
   -4.7930    3.8450  -25.6180 C   0  0  0  0  0  0
    2.0240    3.6960  -23.8010 C   0  0  0  0  0  0
    1.2030    4.8020  -23.4950 C   0  0  0  0  0  0
    3.0010    5.9970  -22.8150 C   0  0  0  0  0  0
    3.4250    3.8870  -23.4910 C   0  0  0  0  0  0
    1.4770    2.5810  -24.4650 C   0  0  0  0  0  0
   -0.6510    3.3910  -24.3460 C   0  0  0  0  0  0
   -0.1240    4.6100  -23.7430 C   0  0  0  0  0  0
   -2.1050    3.3970  -24.6960 C   0  0  0  0  0  0
    4.0350    1.3890  -23.2110 C   0  0  0  0  0  0
    4.9720    1.0290  -22.0690 C   0  0  2  0  0  0
    6.5610    2.5740  -22.6030 C   0  0  2  0  0  0
    4.9560    2.0260  -20.8970 C   0  0  0  0  0  0
   -2.4340    3.5620  -26.1220 C   0  0  0  0  0  0
   -1.6780    2.7850  -21.7550 C   0  0  0  0  0  0
   -0.6450    2.4360  -21.2540 C   0  0  0  0  0  0
   -0.9660    5.6520  -23.3920 F   0  0  0  0  0  0
   -3.8600    3.0650  -20.2190 F   0  0  0  0  0  0
    1.6800    5.9600  -22.9600 N   0  0  0  0  0  0
    3.8980    5.0370  -23.0420 N   0  0  0  0  0  0
    0.1700    2.4910  -24.7680 N   0  0  0  0  0  0
    4.3440    2.8410  -23.6750 N   0  0  0  0  0  0
    6.3770    1.1000  -22.5550 N   0  0  1  0  0  0
   -3.9660    3.7650  -27.8730 O   0  0  0  0  0  0
   -6.1142    3.6252  -21.2071 H   0  0  0  0  0  0
   -6.5998    3.9549  -23.5945 H   0  0  0  0  0  0
    5.4823    3.9878  -21.3520 H   0  0  0  0  0  0
    6.7433    3.0071  -20.4809 H   0  0  0  0  0  0
    6.2014    2.7131  -24.7251 H   0  0  0  0  0  0
    5.9514    4.2435  -23.8253 H   0  0  0  0  0  0
   -5.8047    4.0307  -25.9602 H   0  0  0  0  0  0
    2.1162    1.7542  -24.7530 H   0  0  0  0  0  0
    2.9932    1.3295  -22.8631 H   0  0  0  0  0  0
    4.1954    0.6950  -24.0492 H   0  0  0  0  0  0
    4.7499    0.0152  -21.7045 H   0  0  0  0  0  0
    7.6292    2.8322  -22.6514 H   0  0  0  0  0  0
    3.9717    2.5146  -20.8485 H   0  0  0  0  0  0
    5.2599    1.5081  -19.9753 H   0  0  0  0  0  0
   -1.6666    3.5470  -26.8874 H   0  0  0  0  0  0
    0.2637    2.1291  -20.8122 H   0  0  0  0  0  0
    7.0271    0.5996  -21.8525 H   0  0  0  0  0  0
   -3.1223    3.6799  -28.3013 H   0  0  0  0  0  0
    7.5540    8.3930  -21.0860 N   0  3  0  0  0  0
    5.4870    8.4300  -20.9930 C   0  0  0  0  0  0
    3.5600    7.3350  -22.3420 C   0  0  0  0  0  0
    6.5160    8.6880  -22.1230 C   0  0  0  0  0  0
    6.6040    8.1400  -19.9570 C   0  0  0  0  0  0
    4.6140    7.1770  -21.2250 C   0  0  0  0  0  0
    4.6800    9.6890  -20.6230 C   0  0  0  0  0  0
    8.0670    9.2390  -20.8930 H   0  0  0  0  0  0
    8.0112    7.5265  -21.3231 H   0  0  0  0  0  0
    4.0088    7.8657  -23.1946 H   0  0  0  0  0  0
    2.7369    7.9691  -21.9809 H   0  0  0  0  0  0
    6.4780    7.8166  -22.7933 H   0  0  0  0  0  0
    6.5350    9.7744  -22.2941 H   0  0  0  0  0  0
    6.6570    9.0156  -19.2933 H   0  0  0  0  0  0
    6.6010    7.0544  -19.7799 H   0  0  0  0  0  0
    4.1116    6.9038  -20.2853 H   0  0  0  0  0  0
    5.2626    6.3185  -21.4539 H   0  0  0  0  0  0
    3.9687    9.4469  -19.8196 H   0  0  0  0  0  0
    5.3662   10.4773  -20.2799 H   0  0  0  0  0  0
    4.1279   10.0430  -21.5061 H   0  0  0  0  0  0
  1  2  2  0  0  0
  1  3  1  0  0  0
  1 34  1  0  0  0
  2  6  1  0  0  0
  2 35  1  0  0  0
  3  5  2  0  0  0
  3 27  1  0  0  0
  4  5  1  0  0  0
  4  6  2  0  0  0
  4 18  1  0  0  0
  5 24  1  0  0  0
  6 10  1  0  0  0
  7 10  2  0  0  0
  7 23  1  0  0  0
  7 33  1  0  0  0
  8 21  1  0  0  0
  8 22  1  0  0  0
  8 36  1  0  0  0
  8 37  1  0  0  0
  9 21  1  0  0  0
  9 31  1  0  0  0
  9 38  1  0  0  0
  9 39  1  0  0  0
 10 40  1  0  0  0
 11 12  1  0  0  0
 11 14  2  0  0  0
 11 15  1  0  0  0
 12 17  1  0  0  0
 12 28  2  0  0  0
 13 28  1  0  0  0
 13 29  2  0  0  0
 13 54  1  0  0  0
 14 29  1  0  0  0
 14 31  1  0  0  0
 15 30  2  0  0  0
 15 41  1  0  0  0
 16 17  2  0  0  0
 16 18  1  0  0  0
 16 30  1  0  0  0
 17 26  1  0  0  0
 18 23  2  0  0  0
 19 20  1  0  0  0
 19 31  1  0  0  0
 19 42  1  0  0  0
 19 43  1  0  0  0
 20 22  1  0  0  0
 20 32  1  0  0  0
 20 44  1  0  0  0
 21 32  1  0  0  0
 21 45  1  0  0  0
 22 46  1  0  0  0
 22 47  1  0  0  0
 23 48  1  0  0  0
 24 25  3  0  0  0
 25 49  1  0  0  0
 32 50  1  0  0  0
 33 51  1  0  0  0
 52 55  1  0  0  0
 52 56  1  0  0  0
 52 59  1  0  0  0
 52 60  1  0  0  0
 53 55  1  0  0  0
 53 56  1  0  0  0
 53 57  1  0  0  0
 53 58  1  0  0  0
 54 57  1  0  0  0
 54 61  1  0  0  0
 54 62  1  0  0  0
 55 63  1  0  0  0
 55 64  1  0  0  0
 56 65  1  0  0  0
 56 66  1  0  0  0
 57 67  1  0  0  0
 57 68  1  0  0  0
 58 69  1  0  0  0
 58 70  1  0  0  0
 58 71  1  0  0  0
M  CHG  1  52   1
M  END
> <s_m_entry_id>
163

> <s_m_entry_name>
000000005.1

> <s_m_Source_Path>
/Users/zaksoul/Documents/3r_UNI/2nd_SEMESTER/BSC/FRAG_RECON/RESULTS/2

> <s_m_Source_File>
000000005.mol2

> <i_m_Source_File_Index>
1

$$$$
No_0_6
                    3D
 Schrodinger Suite 2022-4.
 71 77  0  0  1  0            999 V2000
   -5.1810    3.6090  -21.8530 C   0  0  0  0  0  0
   -5.4520    3.8050  -23.1860 C   0  0  0  0  0  0
   -3.9420    3.3510  -21.5190 C   0  0  0  0  0  0
   -3.0590    3.4860  -23.6870 C   0  0  0  0  0  0
   -2.8930    3.2340  -22.2690 C   0  0  0  0  0  0
   -4.4090    3.7540  -24.2010 C   0  0  0  0  0  0
   -3.6630    3.7850  -26.4030 C   0  0  0  0  0  0
    6.0870    3.0010  -21.1820 C   0  0  0  0  0  0
    5.9380    3.1560  -23.7310 C   0  0  0  0  0  0
   -4.6650    3.8890  -25.5350 C   0  0  0  0  0  0
    2.1540    3.7130  -23.7290 C   0  0  0  0  0  0
    1.3370    4.8230  -23.4210 C   0  0  0  0  0  0
    3.1410    6.0110  -22.7430 C   0  0  0  0  0  0
    3.5570    3.8990  -23.4210 C   0  0  0  0  0  0
    1.6030    2.6010  -24.3930 C   0  0  0  0  0  0
   -0.5220    3.4190  -24.2700 C   0  0  0  0  0  0
    0.0100    4.6350  -23.6670 C   0  0  0  0  0  0
   -1.9770    3.4300  -24.6180 C   0  0  0  0  0  0
    4.1570    1.3990  -23.1440 C   0  0  0  0  0  0
    5.0950    1.0350  -22.0030 C   0  0  2  0  0  0
    6.6890    2.5740  -22.5390 C   0  0  2  0  0  0
    5.0840    2.0310  -20.8310 C   0  0  0  0  0  0
   -2.3080    3.5970  -26.0440 C   0  0  0  0  0  0
   -1.5470    2.8150  -21.6780 C   0  0  0  0  0  0
   -0.5150    2.4620  -21.1780 C   0  0  0  0  0  0
   -0.8280    5.6800  -23.3140 F   0  0  0  0  0  0
   -3.7260    3.1020  -20.1390 F   0  0  0  0  0  0
    1.8200    5.9780  -22.8860 N   0  0  0  0  0  0
    4.0350    5.0470  -22.9720 N   0  0  0  0  0  0
    0.2950    2.5160  -24.6930 N   0  0  0  0  0  0
    4.4710    2.8500  -23.6070 N   0  0  0  0  0  0
    6.5000    1.1010  -22.4910 N   0  0  1  0  0  0
   -3.8410    3.8060  -27.7920 O   0  0  0  0  0  0
   -5.9796    3.6712  -21.1226 H   0  0  0  0  0  0
   -6.4675    4.0037  -23.5091 H   0  0  0  0  0  0
    5.6179    3.9906  -21.2849 H   0  0  0  0  0  0
    6.8763    3.0060  -20.4159 H   0  0  0  0  0  0
    6.3275    2.7150  -24.6604 H   0  0  0  0  0  0
    6.0833    4.2460  -23.7593 H   0  0  0  0  0  0
   -5.6765    4.0776  -25.8762 H   0  0  0  0  0  0
    2.2385    1.7718  -24.6821 H   0  0  0  0  0  0
    3.1157    1.3435  -22.7939 H   0  0  0  0  0  0
    4.3144    0.7047  -23.9826 H   0  0  0  0  0  0
    4.8700    0.0218  -21.6387 H   0  0  0  0  0  0
    7.7578    2.8293  -22.5885 H   0  0  0  0  0  0
    4.1018    2.5236  -20.7805 H   0  0  0  0  0  0
    5.3877    1.5123  -19.9097 H   0  0  0  0  0  0
   -1.5411    3.5789  -26.8099 H   0  0  0  0  0  0
    0.3934    2.1519  -20.7378 H   0  0  0  0  0  0
    7.1492    0.5983  -21.7894 H   0  0  0  0  0  0
   -2.9984    3.7179  -28.2217 H   0  0  0  0  0  0
    7.8040    8.6370  -21.8400 N   0  3  0  0  0  0
    5.8180    8.4840  -21.2820 C   0  0  0  0  0  0
    3.7060    7.3460  -22.2710 C   0  0  0  0  0  0
    6.5370    8.9290  -22.5810 C   0  0  0  0  0  0
    7.1600    8.2050  -20.5600 C   0  0  0  0  0  0
    4.9990    7.1850  -21.4420 C   0  0  0  0  0  0
    5.0380    9.6310  -20.6110 C   0  0  0  0  0  0
    8.2909    9.5048  -21.6790 H   0  0  0  0  0  0
    8.2492    7.8377  -22.2631 H   0  0  0  0  0  0
    3.9089    7.9857  -23.1426 H   0  0  0  0  0  0
    2.9490    7.8710  -21.6700 H   0  0  0  0  0  0
    6.4020    8.1191  -23.3130 H   0  0  0  0  0  0
    6.4449   10.0237  -22.6370 H   0  0  0  0  0  0
    7.3091    9.0203  -19.8367 H   0  0  0  0  0  0
    7.2700    7.1121  -20.5010 H   0  0  0  0  0  0
    4.7471    6.7882  -20.4475 H   0  0  0  0  0  0
    5.6306    6.4094  -21.8997 H   0  0  0  0  0  0
    4.5502    9.2581  -19.6983 H   0  0  0  0  0  0
    5.7323   10.4433  -20.3499 H   0  0  0  0  0  0
    4.2739   10.0110  -21.3051 H   0  0  0  0  0  0
  1  2  2  0  0  0
  1  3  1  0  0  0
  1 34  1  0  0  0
  2  6  1  0  0  0
  2 35  1  0  0  0
  3  5  2  0  0  0
  3 27  1  0  0  0
  4  5  1  0  0  0
  4  6  2  0  0  0
  4 18  1  0  0  0
  5 24  1  0  0  0
  6 10  1  0  0  0
  7 10  2  0  0  0
  7 23  1  0  0  0
  7 33  1  0  0  0
  8 21  1  0  0  0
  8 22  1  0  0  0
  8 36  1  0  0  0
  8 37  1  0  0  0
  9 21  1  0  0  0
  9 31  1  0  0  0
  9 38  1  0  0  0
  9 39  1  0  0  0
 10 40  1  0  0  0
 11 12  1  0  0  0
 11 14  2  0  0  0
 11 15  1  0  0  0
 12 17  1  0  0  0
 12 28  2  0  0  0
 13 28  1  0  0  0
 13 29  2  0  0  0
 13 54  1  0  0  0
 14 29  1  0  0  0
 14 31  1  0  0  0
 15 30  2  0  0  0
 15 41  1  0  0  0
 16 17  2  0  0  0
 16 18  1  0  0  0
 16 30  1  0  0  0
 17 26  1  0  0  0
 18 23  2  0  0  0
 19 20  1  0  0  0
 19 31  1  0  0  0
 19 42  1  0  0  0
 19 43  1  0  0  0
 20 22  1  0  0  0
 20 32  1  0  0  0
 20 44  1  0  0  0
 21 32  1  0  0  0
 21 45  1  0  0  0
 22 46  1  0  0  0
 22 47  1  0  0  0
 23 48  1  0  0  0
 24 25  3  0  0  0
 25 49  1  0  0  0
 32 50  1  0  0  0
 33 51  1  0  0  0
 52 55  1  0  0  0
 52 56  1  0  0  0
 52 59  1  0  0  0
 52 60  1  0  0  0
 53 55  1  0  0  0
 53 56  1  0  0  0
 53 57  1  0  0  0
 53 58  1  0  0  0
 54 57  1  0  0  0
 54 61  1  0  0  0
 54 62  1  0  0  0
 55 63  1  0  0  0
 55 64  1  0  0  0
 56 65  1  0  0  0
 56 66  1  0  0  0
 57 67  1  0  0  0
 57 68  1  0  0  0
 58 69  1  0  0  0
 58 70  1  0  0  0
 58 71  1  0  0  0
M  CHG  1  52   1
M  END
> <s_m_entry_id>
164

> <s_m_entry_name>
000000006.1

> <s_m_Source_Path>
/Users/zaksoul/Documents/3r_UNI/2nd_SEMESTER/BSC/FRAG_RECON/RESULTS/2

> <s_m_Source_File>
000000006.mol2

> <i_m_Source_File_Index>
1

$$$$
No_0_7
                    3D
 Schrodinger Suite 2022-4.
 71 77  0  0  1  0            999 V2000
   -5.1810    3.6090  -21.8530 C   0  0  0  0  0  0
   -5.4520    3.8050  -23.1860 C   0  0  0  0  0  0
   -3.9420    3.3510  -21.5190 C   0  0  0  0  0  0
   -3.0590    3.4860  -23.6870 C   0  0  0  0  0  0
   -2.8930    3.2340  -22.2690 C   0  0  0  0  0  0
   -4.4090    3.7540  -24.2010 C   0  0  0  0  0  0
   -3.6630    3.7850  -26.4030 C   0  0  0  0  0  0
    6.0870    3.0010  -21.1820 C   0  0  0  0  0  0
    5.9380    3.1560  -23.7310 C   0  0  0  0  0  0
   -4.6650    3.8890  -25.5350 C   0  0  0  0  0  0
    2.1540    3.7130  -23.7290 C   0  0  0  0  0  0
    1.3370    4.8230  -23.4210 C   0  0  0  0  0  0
    3.1410    6.0110  -22.7430 C   0  0  0  0  0  0
    3.5570    3.8990  -23.4210 C   0  0  0  0  0  0
    1.6030    2.6010  -24.3930 C   0  0  0  0  0  0
   -0.5220    3.4190  -24.2700 C   0  0  0  0  0  0
    0.0100    4.6350  -23.6670 C   0  0  0  0  0  0
   -1.9770    3.4300  -24.6180 C   0  0  0  0  0  0
    4.1570    1.3990  -23.1440 C   0  0  0  0  0  0
    5.0950    1.0350  -22.0030 C   0  0  2  0  0  0
    6.6890    2.5740  -22.5390 C   0  0  2  0  0  0
    5.0840    2.0310  -20.8310 C   0  0  0  0  0  0
   -2.3080    3.5970  -26.0440 C   0  0  0  0  0  0
   -1.5470    2.8150  -21.6780 C   0  0  0  0  0  0
   -0.5150    2.4620  -21.1780 C   0  0  0  0  0  0
   -0.8280    5.6800  -23.3140 F   0  0  0  0  0  0
   -3.7260    3.1020  -20.1390 F   0  0  0  0  0  0
    1.8200    5.9780  -22.8860 N   0  0  0  0  0  0
    4.0350    5.0470  -22.9720 N   0  0  0  0  0  0
    0.2950    2.5160  -24.6930 N   0  0  0  0  0  0
    4.4710    2.8500  -23.6070 N   0  0  0  0  0  0
    6.5000    1.1010  -22.4910 N   0  0  1  0  0  0
   -3.8410    3.8060  -27.7920 O   0  0  0  0  0  0
   -5.9796    3.6712  -21.1226 H   0  0  0  0  0  0
   -6.4675    4.0037  -23.5091 H   0  0  0  0  0  0
    5.6179    3.9906  -21.2849 H   0  0  0  0  0  0
    6.8763    3.0060  -20.4159 H   0  0  0  0  0  0
    6.3275    2.7150  -24.6604 H   0  0  0  0  0  0
    6.0833    4.2460  -23.7593 H   0  0  0  0  0  0
   -5.6765    4.0776  -25.8762 H   0  0  0  0  0  0
    2.2385    1.7718  -24.6821 H   0  0  0  0  0  0
    3.1157    1.3435  -22.7939 H   0  0  0  0  0  0
    4.3144    0.7047  -23.9826 H   0  0  0  0  0  0
    4.8700    0.0218  -21.6387 H   0  0  0  0  0  0
    7.7578    2.8293  -22.5885 H   0  0  0  0  0  0
    4.1018    2.5236  -20.7805 H   0  0  0  0  0  0
    5.3877    1.5123  -19.9097 H   0  0  0  0  0  0
   -1.5411    3.5789  -26.8099 H   0  0  0  0  0  0
    0.3934    2.1519  -20.7378 H   0  0  0  0  0  0
    7.1492    0.5983  -21.7894 H   0  0  0  0  0  0
   -2.9984    3.7179  -28.2217 H   0  0  0  0  0  0
    7.6940    8.9630  -22.6300 N   0  3  0  0  0  0
    5.9050    8.5820  -21.6630 C   0  0  0  0  0  0
    3.7060    7.3460  -22.2710 C   0  0  0  0  0  0
    6.2730    9.2010  -23.0350 C   0  0  0  0  0  0
    7.3940    8.3650  -21.2920 C   0  0  0  0  0  0
    5.1630    7.2320  -21.7720 C   0  0  0  0  0  0
    5.2240    9.5900  -20.7180 C   0  0  0  0  0  0
    8.1437    9.8545  -22.4921 H   0  0  0  0  0  0
    8.0840    8.2480  -23.2240 H   0  0  0  0  0  0
    3.6580    8.0747  -23.0936 H   0  0  0  0  0  0
    3.0738    7.7462  -21.4647 H   0  0  0  0  0  0
    6.0290    8.4491  -23.7999 H   0  0  0  0  0  0
    6.0951   10.2835  -22.9540 H   0  0  0  0  0  0
    7.6489    9.1246  -20.5384 H   0  0  0  0  0  0
    7.5889    7.2855  -21.3740 H   0  0  0  0  0  0
    5.1750    6.7289  -20.7939 H   0  0  0  0  0  0
    5.7248    6.5603  -22.4377 H   0  0  0  0  0  0
    4.9869    9.0969  -19.7637 H   0  0  0  0  0  0
    5.9011   10.4371  -20.5340 H   0  0  0  0  0  0
    4.2961    9.9570  -21.1810 H   0  0  0  0  0  0
  1  2  2  0  0  0
  1  3  1  0  0  0
  1 34  1  0  0  0
  2  6  1  0  0  0
  2 35  1  0  0  0
  3  5  2  0  0  0
  3 27  1  0  0  0
  4  5  1  0  0  0
  4  6  2  0  0  0
  4 18  1  0  0  0
  5 24  1  0  0  0
  6 10  1  0  0  0
  7 10  2  0  0  0
  7 23  1  0  0  0
  7 33  1  0  0  0
  8 21  1  0  0  0
  8 22  1  0  0  0
  8 36  1  0  0  0
  8 37  1  0  0  0
  9 21  1  0  0  0
  9 31  1  0  0  0
  9 38  1  0  0  0
  9 39  1  0  0  0
 10 40  1  0  0  0
 11 12  1  0  0  0
 11 14  2  0  0  0
 11 15  1  0  0  0
 12 17  1  0  0  0
 12 28  2  0  0  0
 13 28  1  0  0  0
 13 29  2  0  0  0
 13 54  1  0  0  0
 14 29  1  0  0  0
 14 31  1  0  0  0
 15 30  2  0  0  0
 15 41  1  0  0  0
 16 17  2  0  0  0
 16 18  1  0  0  0
 16 30  1  0  0  0
 17 26  1  0  0  0
 18 23  2  0  0  0
 19 20  1  0  0  0
 19 31  1  0  0  0
 19 42  1  0  0  0
 19 43  1  0  0  0
 20 22  1  0  0  0
 20 32  1  0  0  0
 20 44  1  0  0  0
 21 32  1  0  0  0
 21 45  1  0  0  0
 22 46  1  0  0  0
 22 47  1  0  0  0
 23 48  1  0  0  0
 24 25  3  0  0  0
 25 49  1  0  0  0
 32 50  1  0  0  0
 33 51  1  0  0  0
 52 55  1  0  0  0
 52 56  1  0  0  0
 52 59  1  0  0  0
 52 60  1  0  0  0
 53 55  1  0  0  0
 53 56  1  0  0  0
 53 57  1  0  0  0
 53 58  1  0  0  0
 54 57  1  0  0  0
 54 61  1  0  0  0
 54 62  1  0  0  0
 55 63  1  0  0  0
 55 64  1  0  0  0
 56 65  1  0  0  0
 56 66  1  0  0  0
 57 67  1  0  0  0
 57 68  1  0  0  0
 58 69  1  0  0  0
 58 70  1  0  0  0
 58 71  1  0  0  0
M  CHG  1  52   1
M  END
> <s_m_entry_id>
165

> <s_m_entry_name>
000000007.1

> <s_m_Source_Path>
/Users/zaksoul/Documents/3r_UNI/2nd_SEMESTER/BSC/FRAG_RECON/RESULTS/2

> <s_m_Source_File>
000000007.mol2

> <i_m_Source_File_Index>
1

$$$$
No_0_8
                    3D
 Schrodinger Suite 2022-4.
 71 77  0  0  1  0            999 V2000
   -5.4040    3.6240  -21.8390 C   0  0  0  0  0  0
   -5.6790    3.8110  -23.1730 C   0  0  0  0  0  0
   -4.1620    3.3770  -21.5060 C   0  0  0  0  0  0
   -3.2850    3.5070  -23.6770 C   0  0  0  0  0  0
   -3.1140    3.2630  -22.2570 C   0  0  0  0  0  0
   -4.6360    3.7630  -24.1900 C   0  0  0  0  0  0
   -3.8950    3.7870  -26.3920 C   0  0  0  0  0  0
    5.8690    3.1000  -21.1850 C   0  0  0  0  0  0
    5.7150    3.2410  -23.7340 C   0  0  0  0  0  0
   -4.8960    3.8890  -25.5240 C   0  0  0  0  0  0
    1.9270    3.7710  -23.7280 C   0  0  0  0  0  0
    1.1030    4.8760  -23.4250 C   0  0  0  0  0  0
    2.9000    6.0800  -22.7560 C   0  0  0  0  0  0
    3.3290    3.9690  -23.4240 C   0  0  0  0  0  0
    1.3820    2.6510  -24.3860 C   0  0  0  0  0  0
   -0.7480    3.4550  -24.2630 C   0  0  0  0  0  0
   -0.2230    4.6780  -23.6670 C   0  0  0  0  0  0
   -2.2030    3.4540  -24.6090 C   0  0  0  0  0  0
    3.9480    1.4740  -23.1350 C   0  0  0  0  0  0
    4.8900    1.1220  -21.9940 C   0  0  2  0  0  0
    6.4720    2.6700  -22.5400 C   0  0  2  0  0  0
    4.8740    2.1240  -20.8270 C   0  0  0  0  0  0
   -2.5380    3.6120  -26.0350 C   0  0  0  0  0  0
   -1.7650    2.8560  -21.6670 C   0  0  0  0  0  0
   -0.7290    2.5140  -21.1670 C   0  0  0  0  0  0
   -1.0680    5.7190  -23.3180 F   0  0  0  0  0  0
   -3.9430    3.1360  -20.1250 F   0  0  0  0  0  0
    1.5780    6.0370  -22.8960 N   0  0  0  0  0  0
    3.7990    5.1220  -22.9810 N   0  0  0  0  0  0
    0.0750    2.5560  -24.6840 N   0  0  0  0  0  0
    4.2510    2.9250  -23.6060 N   0  0  0  0  0  0
    6.2930    1.1960  -22.4850 N   0  0  1  0  0  0
   -4.0760    3.8010  -27.7810 O   0  0  0  0  0  0
   -6.2023    3.6832  -21.1080 H   0  0  0  0  0  0
   -6.6962    4.0018  -23.4953 H   0  0  0  0  0  0
    5.3928    4.0858  -21.2920 H   0  0  0  0  0  0
    6.6598    3.1141  -20.4205 H   0  0  0  0  0  0
    6.1057    2.7978  -24.6618 H   0  0  0  0  0  0
    5.8522    4.3319  -23.7673 H   0  0  0  0  0  0
   -5.9095    4.0686  -25.8642 H   0  0  0  0  0  0
    2.0232    1.8251  -24.6720 H   0  0  0  0  0  0
    2.9077    1.4125  -22.7829 H   0  0  0  0  0  0
    4.1084    0.7767  -23.9705 H   0  0  0  0  0  0
    4.6719    0.1095  -21.6235 H   0  0  0  0  0  0
    7.5390    2.9322  -22.5934 H   0  0  0  0  0  0
    3.8887    2.6106  -20.7775 H   0  0  0  0  0  0
    5.1827    1.6115  -19.9039 H   0  0  0  0  0  0
   -1.7726    3.5949  -26.8024 H   0  0  0  0  0  0
    0.1822    2.2119  -20.7269 H   0  0  0  0  0  0
    6.9468    0.7013  -21.7820 H   0  0  0  0  0  0
   -3.2332    3.7169  -28.2113 H   0  0  0  0  0  0
    7.1150    9.4420  -23.3740 N   0  3  0  0  0  0
    5.6360    8.8120  -22.0720 C   0  0  0  0  0  0
    3.4560    7.4220  -22.2910 C   0  0  0  0  0  0
    5.6250    9.5720  -23.4230 C   0  0  0  0  0  0
    7.1820    8.7120  -22.0690 C   0  0  0  0  0  0
    4.9930    7.4100  -22.1470 C   0  0  0  0  0  0
    5.1180    9.6710  -20.9020 C   0  0  0  0  0  0
    7.5159   10.3588  -23.2520 H   0  0  0  0  0  0
    7.4090    8.8180  -24.1090 H   0  0  0  0  0  0
    3.1619    8.2062  -23.0042 H   0  0  0  0  0  0
    3.0001    7.6929  -21.3273 H   0  0  0  0  0  0
    5.2679    8.8638  -24.1852 H   0  0  0  0  0  0
    5.3901   10.6224  -23.1961 H   0  0  0  0  0  0
    7.5470    9.4301  -21.3199 H   0  0  0  0  0  0
    7.4338    7.6666  -22.3009 H   0  0  0  0  0  0
    5.2710    6.8340  -21.2520 H   0  0  0  0  0  0
    5.4338    6.8512  -22.9857 H   0  0  0  0  0  0
    5.1480    9.0818  -19.9736 H   0  0  0  0  0  0
    5.7532   10.5623  -20.7920 H   0  0  0  0  0  0
    4.0826    9.9821  -21.1051 H   0  0  0  0  0  0
  1  2  2  0  0  0
  1  3  1  0  0  0
  1 34  1  0  0  0
  2  6  1  0  0  0
  2 35  1  0  0  0
  3  5  2  0  0  0
  3 27  1  0  0  0
  4  5  1  0  0  0
  4  6  2  0  0  0
  4 18  1  0  0  0
  5 24  1  0  0  0
  6 10  1  0  0  0
  7 10  2  0  0  0
  7 23  1  0  0  0
  7 33  1  0  0  0
  8 21  1  0  0  0
  8 22  1  0  0  0
  8 36  1  0  0  0
  8 37  1  0  0  0
  9 21  1  0  0  0
  9 31  1  0  0  0
  9 38  1  0  0  0
  9 39  1  0  0  0
 10 40  1  0  0  0
 11 12  1  0  0  0
 11 14  2  0  0  0
 11 15  1  0  0  0
 12 17  1  0  0  0
 12 28  2  0  0  0
 13 28  1  0  0  0
 13 29  2  0  0  0
 13 54  1  0  0  0
 14 29  1  0  0  0
 14 31  1  0  0  0
 15 30  2  0  0  0
 15 41  1  0  0  0
 16 17  2  0  0  0
 16 18  1  0  0  0
 16 30  1  0  0  0
 17 26  1  0  0  0
 18 23  2  0  0  0
 19 20  1  0  0  0
 19 31  1  0  0  0
 19 42  1  0  0  0
 19 43  1  0  0  0
 20 22  1  0  0  0
 20 32  1  0  0  0
 20 44  1  0  0  0
 21 32  1  0  0  0
 21 45  1  0  0  0
 22 46  1  0  0  0
 22 47  1  0  0  0
 23 48  1  0  0  0
 24 25  3  0  0  0
 25 49  1  0  0  0
 32 50  1  0  0  0
 33 51  1  0  0  0
 52 55  1  0  0  0
 52 56  1  0  0  0
 52 59  1  0  0  0
 52 60  1  0  0  0
 53 55  1  0  0  0
 53 56  1  0  0  0
 53 57  1  0  0  0
 53 58  1  0  0  0
 54 57  1  0  0  0
 54 61  1  0  0  0
 54 62  1  0  0  0
 55 63  1  0  0  0
 55 64  1  0  0  0
 56 65  1  0  0  0
 56 66  1  0  0  0
 57 67  1  0  0  0
 57 68  1  0  0  0
 58 69  1  0  0  0
 58 70  1  0  0  0
 58 71  1  0  0  0
M  CHG  1  52   1
M  END
> <s_m_entry_id>
166

> <s_m_entry_name>
000000008.1

> <s_m_Source_Path>
/Users/zaksoul/Documents/3r_UNI/2nd_SEMESTER/BSC/FRAG_RECON/RESULTS/2

> <s_m_Source_File>
000000008.mol2

> <i_m_Source_File_Index>
1

$$$$
No_0_9
                    3D
 Schrodinger Suite 2022-4.
 71 77  0  0  1  0            999 V2000
   -5.4220    3.5940  -22.0520 C   0  0  0  0  0  0
   -5.6520    3.8250  -23.3880 C   0  0  0  0  0  0
   -4.1930    3.3280  -21.6870 C   0  0  0  0  0  0
   -3.2450    3.5190  -23.8230 C   0  0  0  0  0  0
   -3.1220    3.2300  -22.4070 C   0  0  0  0  0  0
   -4.5770    3.8010  -24.3710 C   0  0  0  0  0  0
   -3.7640    3.8900  -26.5470 C   0  0  0  0  0  0
    5.8210    2.9680  -21.0520 C   0  0  0  0  0  0
    5.7500    3.1900  -23.5980 C   0  0  0  0  0  0
   -4.7930    3.9710  -25.7080 C   0  0  0  0  0  0
    1.9680    3.7470  -23.6980 C   0  0  0  0  0  0
    1.1410    4.8480  -23.3860 C   0  0  0  0  0  0
    2.9230    6.0180  -22.6220 C   0  0  0  0  0  0
    3.3600    3.9250  -23.3420 C   0  0  0  0  0  0
    1.4370    2.6530  -24.4080 C   0  0  0  0  0  0
   -0.6910    3.4680  -24.3290 C   0  0  0  0  0  0
   -0.1780    4.6670  -23.6780 C   0  0  0  0  0  0
   -2.1340    3.4880  -24.7210 C   0  0  0  0  0  0
    3.9530    1.4180  -23.1130 C   0  0  0  0  0  0
    4.8560    1.0240  -21.9540 C   0  0  2  0  0  0
    6.4650    2.5770  -22.3990 C   0  0  2  0  0  0
    4.8090    1.9890  -20.7570 C   0  0  0  0  0  0
   -2.4210    3.6930  -26.1510 C   0  0  0  0  0  0
   -1.7950    2.7950  -21.7860 C   0  0  0  0  0  0
   -0.7780    2.4290  -21.2650 C   0  0  0  0  0  0
   -1.0270    5.7030  -23.3230 F   0  0  0  0  0  0
   -4.0200    3.0420  -20.3080 F   0  0  0  0  0  0
    1.6060    5.9890  -22.8060 N   0  0  0  0  0  0
    3.8230    5.0600  -22.8490 N   0  0  0  0  0  0
    0.1390    2.5760  -24.7510 N   0  0  0  0  0  0
    4.2810    2.8810  -23.5280 N   0  0  0  0  0  0
    6.2750    1.1030  -22.3960 N   0  0  1  0  0  0
   -3.9000    3.9480  -27.9390 O   0  0  0  0  0  0
   -6.2425    3.6372  -21.3450 H   0  0  0  0  0  0
   -6.6572    4.0329  -23.7365 H   0  0  0  0  0  0
    5.3547    3.9601  -21.1428 H   0  0  0  0  0  0
    6.5860    2.9519  -20.2618 H   0  0  0  0  0  0
    6.1678    2.7733  -24.5263 H   0  0  0  0  0  0
    5.8954    4.2803  -23.5930 H   0  0  0  0  0  0
   -5.7937    4.1697  -26.0743 H   0  0  0  0  0  0
    2.0823    1.8321  -24.6990 H   0  0  0  0  0  0
    2.9013    1.3534  -22.7971 H   0  0  0  0  0  0
    4.1367    0.7457  -23.9640 H   0  0  0  0  0  0
    4.6199    0.0019  -21.6230 H   0  0  0  0  0  0
    7.5349    2.8324  -22.4101 H   0  0  0  0  0  0
    3.8254    2.4803  -20.7237 H   0  0  0  0  0  0
    5.0834    1.4453  -19.8410 H   0  0  0  0  0  0
   -1.6313    3.6950  -26.8936 H   0  0  0  0  0  0
    0.1162    2.1069  -20.8049 H   0  0  0  0  0  0
    6.9028    0.5811  -21.6890 H   0  0  0  0  0  0
   -3.0445    3.8718  -28.3450 H   0  0  0  0  0  0
    6.5880    9.8790  -23.6740 N   0  3  0  0  0  0
    5.5260    8.9230  -22.1780 C   0  0  0  0  0  0
    3.4720    7.3400  -22.0980 C   0  0  0  0  0  0
    5.1260    9.8480  -23.3560 C   0  0  0  0  0  0
    7.0290    8.9960  -22.5490 C   0  0  0  0  0  0
    4.9940    7.4800  -22.3170 C   0  0  0  0  0  0
    5.2470    9.5580  -20.8020 C   0  0  0  0  0  0
    6.9358   10.8104  -23.5081 H   0  0  0  0  0  0
    6.7401    9.3938  -24.5444 H   0  0  0  0  0  0
    2.9522    8.1737  -22.5928 H   0  0  0  0  0  0
    3.2472    7.4289  -21.0249 H   0  0  0  0  0  0
    4.6478    9.2107  -24.1144 H   0  0  0  0  0  0
    4.8741   10.8265  -22.9212 H   0  0  0  0  0  0
    7.5102    9.6452  -21.8027 H   0  0  0  0  0  0
    7.2948    8.0247  -22.9917 H   0  0  0  0  0  0
    5.5262    6.8258  -21.6108 H   0  0  0  0  0  0
    5.2558    7.0893  -23.3114 H   0  0  0  0  0  0
    5.5490    8.8591  -20.0081 H   0  0  0  0  0  0
    5.8207   10.4915  -20.7050 H   0  0  0  0  0  0
    4.1728    9.7760  -20.7090 H   0  0  0  0  0  0
  1  2  2  0  0  0
  1  3  1  0  0  0
  1 34  1  0  0  0
  2  6  1  0  0  0
  2 35  1  0  0  0
  3  5  2  0  0  0
  3 27  1  0  0  0
  4  5  1  0  0  0
  4  6  2  0  0  0
  4 18  1  0  0  0
  5 24  1  0  0  0
  6 10  1  0  0  0
  7 10  2  0  0  0
  7 23  1  0  0  0
  7 33  1  0  0  0
  8 21  1  0  0  0
  8 22  1  0  0  0
  8 36  1  0  0  0
  8 37  1  0  0  0
  9 21  1  0  0  0
  9 31  1  0  0  0
  9 38  1  0  0  0
  9 39  1  0  0  0
 10 40  1  0  0  0
 11 12  1  0  0  0
 11 14  2  0  0  0
 11 15  1  0  0  0
 12 17  1  0  0  0
 12 28  2  0  0  0
 13 28  1  0  0  0
 13 29  2  0  0  0
 13 54  1  0  0  0
 14 29  1  0  0  0
 14 31  1  0  0  0
 15 30  2  0  0  0
 15 41  1  0  0  0
 16 17  2  0  0  0
 16 18  1  0  0  0
 16 30  1  0  0  0
 17 26  1  0  0  0
 18 23  2  0  0  0
 19 20  1  0  0  0
 19 31  1  0  0  0
 19 42  1  0  0  0
 19 43  1  0  0  0
 20 22  1  0  0  0
 20 32  1  0  0  0
 20 44  1  0  0  0
 21 32  1  0  0  0
 21 45  1  0  0  0
 22 46  1  0  0  0
 22 47  1  0  0  0
 23 48  1  0  0  0
 24 25  3  0  0  0
 25 49  1  0  0  0
 32 50  1  0  0  0
 33 51  1  0  0  0
 52 55  1  0  0  0
 52 56  1  0  0  0
 52 59  1  0  0  0
 52 60  1  0  0  0
 53 55  1  0  0  0
 53 56  1  0  0  0
 53 57  1  0  0  0
 53 58  1  0  0  0
 54 57  1  0  0  0
 54 61  1  0  0  0
 54 62  1  0  0  0
 55 63  1  0  0  0
 55 64  1  0  0  0
 56 65  1  0  0  0
 56 66  1  0  0  0
 57 67  1  0  0  0
 57 68  1  0  0  0
 58 69  1  0  0  0
 58 70  1  0  0  0
 58 71  1  0  0  0
M  CHG  1  52   1
M  END
> <s_m_entry_id>
167

> <s_m_entry_name>
000000009.1

> <s_m_Source_Path>
/Users/zaksoul/Documents/3r_UNI/2nd_SEMESTER/BSC/FRAG_RECON/RESULTS/2

> <s_m_Source_File>
000000009.mol2

> <i_m_Source_File_Index>
1

$$$$
No_0_10
                    3D
 Schrodinger Suite 2022-4.
 71 77  0  0  1  0            999 V2000
   -5.3280    3.5410  -21.7480 C   0  0  0  0  0  0
   -5.5880    3.7720  -23.0770 C   0  0  0  0  0  0
   -4.0930    3.2650  -21.4110 C   0  0  0  0  0  0
   -3.1940    3.4480  -23.5690 C   0  0  0  0  0  0
   -3.0400    3.1600  -22.1560 C   0  0  0  0  0  0
   -4.5370    3.7390  -24.0860 C   0  0  0  0  0  0
   -3.7750    3.8200  -26.2800 C   0  0  0  0  0  0
    5.9300    2.8340  -21.0130 C   0  0  0  0  0  0
    5.8010    3.0540  -23.5570 C   0  0  0  0  0  0
   -4.7830    3.9090  -25.4180 C   0  0  0  0  0  0
    2.0220    3.6390  -23.5680 C   0  0  0  0  0  0
    1.2100    4.7460  -23.2380 C   0  0  0  0  0  0
    3.0180    5.9030  -22.5180 C   0  0  0  0  0  0
    3.4230    3.8070  -23.2460 C   0  0  0  0  0  0
    1.4670    2.5480  -24.2640 C   0  0  0  0  0  0
   -0.6530    3.3780  -24.1350 C   0  0  0  0  0  0
   -0.1160    4.5740  -23.4980 C   0  0  0  0  0  0
   -2.1050    3.4080  -24.4930 C   0  0  0  0  0  0
    4.0040    1.2960  -23.0270 C   0  0  0  0  0  0
    4.9310    0.8970  -21.8890 C   0  0  2  0  0  0
    6.5400    2.4370  -22.3750 C   0  0  2  0  0  0
    4.9190    1.8620  -20.6930 C   0  0  0  0  0  0
   -2.4240    3.6140  -25.9170 C   0  0  0  0  0  0
   -1.7010    2.7160  -21.5670 C   0  0  0  0  0  0
   -0.6750    2.3430  -21.0690 C   0  0  0  0  0  0
   -0.9490    5.6170  -23.1250 F   0  0  0  0  0  0
   -3.8890    2.9790  -20.0360 F   0  0  0  0  0  0
    1.6970    5.8840  -22.6710 N   0  0  0  0  0  0
    3.9060    4.9390  -22.7640 N   0  0  0  0  0  0
    0.1610    2.4800  -24.5760 N   0  0  0  0  0  0
    4.3320    2.7560  -23.4520 N   0  0  0  0  0  0
    6.3390    0.9650  -22.3660 N   0  0  1  0  0  0
   -3.9440    3.8780  -27.6700 O   0  0  0  0  0  0
   -6.1309    3.5892  -21.0213 H   0  0  0  0  0  0
   -6.5995    3.9868  -23.4021 H   0  0  0  0  0  0
    5.4695    3.8297  -21.0938 H   0  0  0  0  0  0
    6.7137    2.8138  -20.2414 H   0  0  0  0  0  0
    6.1937    2.6341  -24.4948 H   0  0  0  0  0  0
    5.9543    4.1433  -23.5570 H   0  0  0  0  0  0
   -5.7905    4.1147  -25.7612 H   0  0  0  0  0  0
    2.0988    1.7216  -24.5689 H   0  0  0  0  0  0
    2.9595    1.2385  -22.6869 H   0  0  0  0  0  0
    4.1614    0.6218  -23.8818 H   0  0  0  0  0  0
    4.6960   -0.1235  -21.5522 H   0  0  0  0  0  0
    7.6110    2.6853  -22.4113 H   0  0  0  0  0  0
    3.9400    2.3606  -20.6375 H   0  0  0  0  0  0
    5.2107    1.3180  -19.7826 H   0  0  0  0  0  0
   -1.6520    3.6100  -26.6780 H   0  0  0  0  0  0
    0.2281    2.0150  -20.6309 H   0  0  0  0  0  0
    6.9796    0.4399  -21.6730 H   0  0  0  0  0  0
   -3.0985    3.7949  -28.0952 H   0  0  0  0  0  0
    6.0280   10.1620  -24.0220 N   0  3  0  0  0  0
    5.4430    8.9900  -22.4200 C   0  0  0  0  0  0
    3.5890    7.2220  -22.0080 C   0  0  0  0  0  0
    4.6980    9.9690  -23.3620 C   0  0  0  0  0  0
    6.7960    9.2310  -23.1360 C   0  0  0  0  0  0
    4.9930    7.5200  -22.5750 C   0  0  0  0  0  0
    5.4760    9.4780  -20.9590 C   0  0  0  0  0  0
    6.3402   11.1047  -23.8489 H   0  0  0  0  0  0
    5.9890    9.7668  -24.9485 H   0  0  0  0  0  0
    2.9062    8.0427  -22.2729 H   0  0  0  0  0  0
    3.6350    7.2000  -20.9092 H   0  0  0  0  0  0
    4.0898    9.3558  -24.0432 H   0  0  0  0  0  0
    4.4960   10.8802  -22.7799 H   0  0  0  0  0  0
    7.4036    9.8576  -22.4665 H   0  0  0  0  0  0
    7.0091    8.3296  -23.7293 H   0  0  0  0  0  0
    5.7292    6.8608  -22.0919 H   0  0  0  0  0  0
    5.0240    7.2399  -23.6383 H   0  0  0  0  0  0
    6.0151    8.7459  -20.3399 H   0  0  0  0  0  0
    5.9889   10.4498  -20.9080 H   0  0  0  0  0  0
    4.4473    9.5880  -20.5851 H   0  0  0  0  0  0
  1  2  2  0  0  0
  1  3  1  0  0  0
  1 34  1  0  0  0
  2  6  1  0  0  0
  2 35  1  0  0  0
  3  5  2  0  0  0
  3 27  1  0  0  0
  4  5  1  0  0  0
  4  6  2  0  0  0
  4 18  1  0  0  0
  5 24  1  0  0  0
  6 10  1  0  0  0
  7 10  2  0  0  0
  7 23  1  0  0  0
  7 33  1  0  0  0
  8 21  1  0  0  0
  8 22  1  0  0  0
  8 36  1  0  0  0
  8 37  1  0  0  0
  9 21  1  0  0  0
  9 31  1  0  0  0
  9 38  1  0  0  0
  9 39  1  0  0  0
 10 40  1  0  0  0
 11 12  1  0  0  0
 11 14  2  0  0  0
 11 15  1  0  0  0
 12 17  1  0  0  0
 12 28  2  0  0  0
 13 28  1  0  0  0
 13 29  2  0  0  0
 13 54  1  0  0  0
 14 29  1  0  0  0
 14 31  1  0  0  0
 15 30  2  0  0  0
 15 41  1  0  0  0
 16 17  2  0  0  0
 16 18  1  0  0  0
 16 30  1  0  0  0
 17 26  1  0  0  0
 18 23  2  0  0  0
 19 20  1  0  0  0
 19 31  1  0  0  0
 19 42  1  0  0  0
 19 43  1  0  0  0
 20 22  1  0  0  0
 20 32  1  0  0  0
 20 44  1  0  0  0
 21 32  1  0  0  0
 21 45  1  0  0  0
 22 46  1  0  0  0
 22 47  1  0  0  0
 23 48  1  0  0  0
 24 25  3  0  0  0
 25 49  1  0  0  0
 32 50  1  0  0  0
 33 51  1  0  0  0
 52 55  1  0  0  0
 52 56  1  0  0  0
 52 59  1  0  0  0
 52 60  1  0  0  0
 53 55  1  0  0  0
 53 56  1  0  0  0
 53 57  1  0  0  0
 53 58  1  0  0  0
 54 57  1  0  0  0
 54 61  1  0  0  0
 54 62  1  0  0  0
 55 63  1  0  0  0
 55 64  1  0  0  0
 56 65  1  0  0  0
 56 66  1  0  0  0
 57 67  1  0  0  0
 57 68  1  0  0  0
 58 69  1  0  0  0
 58 70  1  0  0  0
 58 71  1  0  0  0
M  CHG  1  52   1
M  END
> <s_m_entry_id>
168

> <s_m_entry_name>
000000010.1

> <s_m_Source_Path>
/Users/zaksoul/Documents/3r_UNI/2nd_SEMESTER/BSC/FRAG_RECON/RESULTS/2

> <s_m_Source_File>
000000010.mol2

> <i_m_Source_File_Index>
1

$$$$
No_0_11
                    3D
 Schrodinger Suite 2022-4.
 70 76  0  0  1  0            999 V2000
   -5.0890    3.5430  -21.6640 C   0  0  0  0  0  0
   -5.3860    3.7070  -22.9970 C   0  0  0  0  0  0
   -3.8420    3.3080  -21.3470 C   0  0  0  0  0  0
   -2.9990    3.4070  -23.5330 C   0  0  0  0  0  0
   -2.8050    3.1880  -22.1120 C   0  0  0  0  0  0
   -4.3600    3.6480  -24.0290 C   0  0  0  0  0  0
   -3.6530    3.6400  -26.2430 C   0  0  0  0  0  0
    6.1950    3.0920  -21.1790 C   0  0  0  0  0  0
    6.0000    3.1900  -23.7270 C   0  0  0  0  0  0
   -4.6410    3.7500  -25.3600 C   0  0  0  0  0  0
    2.2100    3.7000  -23.6710 C   0  0  0  0  0  0
    1.3840    4.8050  -23.3720 C   0  0  0  0  0  0
    3.1840    6.0300  -22.7510 C   0  0  0  0  0  0
    3.6150    3.9100  -23.3910 C   0  0  0  0  0  0
    1.6620    2.5660  -24.3010 C   0  0  0  0  0  0
   -0.4710    3.3600  -24.1580 C   0  0  0  0  0  0
    0.0560    4.5950  -23.5910 C   0  0  0  0  0  0
   -1.9320    3.3460  -24.4810 C   0  0  0  0  0  0
    4.2530    1.4240  -23.0720 C   0  0  0  0  0  0
    5.2150    1.0960  -21.9400 C   0  0  2  0  0  0
    6.7800    2.6440  -22.5360 C   0  0  2  0  0  0
    5.2120    2.1170  -20.7890 C   0  0  0  0  0  0
   -2.2890    3.4780  -25.9040 C   0  0  0  0  0  0
   -1.4440    2.7990  -21.5360 C   0  0  0  0  0  0
   -0.3990    2.4700  -21.0480 C   0  0  0  0  0  0
   -0.7890    5.6380  -23.2450 F   0  0  0  0  0  0
   -3.5990    3.0910  -19.9660 F   0  0  0  0  0  0
    1.8610    5.9770  -22.8700 N   0  0  0  0  0  0
    4.0860    5.0730  -22.9750 N   0  0  0  0  0  0
    0.3500    2.4590  -24.5770 N   0  0  0  0  0  0
    4.5400    2.8690  -23.5710 N   0  0  0  0  0  0
    6.6100    1.1700  -22.4540 N   0  0  1  0  0  0
   -3.8560    3.6300  -27.6280 O   0  0  0  0  0  0
   -5.8758    3.6102  -20.9214 H   0  0  0  0  0  0
   -6.4095    3.8856  -23.3061 H   0  0  0  0  0  0
    5.7115    4.0732  -21.2951 H   0  0  0  0  0  0
    6.9973    3.1233  -20.4271 H   0  0  0  0  0  0
    6.3787    2.7346  -24.6539 H   0  0  0  0  0  0
    6.1312    4.2808  -23.7805 H   0  0  0  0  0  0
   -5.6605    3.9196  -25.6871 H   0  0  0  0  0  0
    2.3033    1.7391  -24.5840 H   0  0  0  0  0  0
    3.2187    1.3624  -22.7027 H   0  0  0  0  0  0
    4.4044    0.7133  -23.8978 H   0  0  0  0  0  0
    5.0092    0.0881  -21.5505 H   0  0  0  0  0  0
    7.8443    2.9116  -22.6107 H   0  0  0  0  0  0
    4.2244    2.5982  -20.7325 H   0  0  0  0  0  0
    5.5370    1.6214  -19.8623 H   0  0  0  0  0  0
   -1.5359    3.4529  -26.6832 H   0  0  0  0  0  0
    0.5205    2.1801  -20.6172 H   0  0  0  0  0  0
    7.2779    0.6902  -21.7540 H   0  0  0  0  0  0
   -3.0199    3.5440  -28.0708 H   0  0  0  0  0  0
    5.2210    9.6720  -23.7710 O   0  5  0  0  0  0
    5.6910   11.0620  -22.0240 O   0  0  0  0  0  0
    7.0820    8.8060  -20.0200 N   0  3  0  0  0  0
    5.8610    8.7060  -21.6850 C   0  0  0  0  0  0
    3.7400    7.3820  -22.3170 C   0  0  0  0  0  0
    5.6000    8.9330  -20.1720 C   0  0  0  0  0  0
    7.3890    8.5820  -21.4660 C   0  0  0  0  0  0
    5.2770    7.3740  -22.1990 C   0  0  0  0  0  0
    5.5650    9.9050  -22.5590 C   0  0  0  0  0  0
    7.2840    7.9591  -19.5121 H   0  0  0  0  0  0
    7.4568    9.7005  -19.7452 H   0  0  0  0  0  0
    3.4332    8.1525  -23.0396 H   0  0  0  0  0  0
    3.3001    7.6649  -21.3493 H   0  0  0  0  0  0
    5.3569    9.9985  -20.0469 H   0  0  0  0  0  0
    5.1593    8.0036  -19.7822 H   0  0  0  0  0  0
    7.6410    7.5170  -21.5770 H   0  0  0  0  0  0
    7.8421    9.5103  -21.8441 H   0  0  0  0  0  0
    5.5870    6.5569  -21.5309 H   0  0  0  0  0  0
    5.7169    7.1361  -23.1787 H   0  0  0  0  0  0
  1  2  2  0  0  0
  1  3  1  0  0  0
  1 34  1  0  0  0
  2  6  1  0  0  0
  2 35  1  0  0  0
  3  5  2  0  0  0
  3 27  1  0  0  0
  4  5  1  0  0  0
  4  6  2  0  0  0
  4 18  1  0  0  0
  5 24  1  0  0  0
  6 10  1  0  0  0
  7 10  2  0  0  0
  7 23  1  0  0  0
  7 33  1  0  0  0
  8 21  1  0  0  0
  8 22  1  0  0  0
  8 36  1  0  0  0
  8 37  1  0  0  0
  9 21  1  0  0  0
  9 31  1  0  0  0
  9 38  1  0  0  0
  9 39  1  0  0  0
 10 40  1  0  0  0
 11 12  1  0  0  0
 11 14  2  0  0  0
 11 15  1  0  0  0
 12 17  1  0  0  0
 12 28  2  0  0  0
 13 28  1  0  0  0
 13 29  2  0  0  0
 13 56  1  0  0  0
 14 29  1  0  0  0
 14 31  1  0  0  0
 15 30  2  0  0  0
 15 41  1  0  0  0
 16 17  2  0  0  0
 16 18  1  0  0  0
 16 30  1  0  0  0
 17 26  1  0  0  0
 18 23  2  0  0  0
 19 20  1  0  0  0
 19 31  1  0  0  0
 19 42  1  0  0  0
 19 43  1  0  0  0
 20 22  1  0  0  0
 20 32  1  0  0  0
 20 44  1  0  0  0
 21 32  1  0  0  0
 21 45  1  0  0  0
 22 46  1  0  0  0
 22 47  1  0  0  0
 23 48  1  0  0  0
 24 25  3  0  0  0
 25 49  1  0  0  0
 32 50  1  0  0  0
 33 51  1  0  0  0
 52 60  1  0  0  0
 53 60  2  0  0  0
 54 57  1  0  0  0
 54 58  1  0  0  0
 54 61  1  0  0  0
 54 62  1  0  0  0
 55 57  1  0  0  0
 55 58  1  0  0  0
 55 59  1  0  0  0
 55 60  1  0  0  0
 56 59  1  0  0  0
 56 63  1  0  0  0
 56 64  1  0  0  0
 57 65  1  0  0  0
 57 66  1  0  0  0
 58 67  1  0  0  0
 58 68  1  0  0  0
 59 69  1  0  0  0
 59 70  1  0  0  0
M  CHG  2  52  -1  54   1
M  END
> <s_m_entry_id>
169

> <s_m_entry_name>
000000011.1

> <s_m_Source_Path>
/Users/zaksoul/Documents/3r_UNI/2nd_SEMESTER/BSC/FRAG_RECON/RESULTS/2

> <s_m_Source_File>
000000011.mol2

> <i_m_Source_File_Index>
1

$$$$
No_0_12
                    3D
 Schrodinger Suite 2022-4.
 70 76  0  0  1  0            999 V2000
   -5.1810    3.6090  -21.8530 C   0  0  0  0  0  0
   -5.4520    3.8050  -23.1860 C   0  0  0  0  0  0
   -3.9420    3.3510  -21.5190 C   0  0  0  0  0  0
   -3.0590    3.4860  -23.6870 C   0  0  0  0  0  0
   -2.8930    3.2340  -22.2690 C   0  0  0  0  0  0
   -4.4090    3.7540  -24.2010 C   0  0  0  0  0  0
   -3.6630    3.7850  -26.4030 C   0  0  0  0  0  0
    6.0870    3.0010  -21.1820 C   0  0  0  0  0  0
    5.9380    3.1560  -23.7310 C   0  0  0  0  0  0
   -4.6650    3.8890  -25.5350 C   0  0  0  0  0  0
    2.1540    3.7130  -23.7290 C   0  0  0  0  0  0
    1.3370    4.8230  -23.4210 C   0  0  0  0  0  0
    3.1410    6.0110  -22.7430 C   0  0  0  0  0  0
    3.5570    3.8990  -23.4210 C   0  0  0  0  0  0
    1.6030    2.6010  -24.3930 C   0  0  0  0  0  0
   -0.5220    3.4190  -24.2700 C   0  0  0  0  0  0
    0.0100    4.6350  -23.6670 C   0  0  0  0  0  0
   -1.9770    3.4300  -24.6180 C   0  0  0  0  0  0
    4.1570    1.3990  -23.1440 C   0  0  0  0  0  0
    5.0950    1.0350  -22.0030 C   0  0  2  0  0  0
    6.6890    2.5740  -22.5390 C   0  0  2  0  0  0
    5.0840    2.0310  -20.8310 C   0  0  0  0  0  0
   -2.3080    3.5970  -26.0440 C   0  0  0  0  0  0
   -1.5470    2.8150  -21.6780 C   0  0  0  0  0  0
   -0.5150    2.4620  -21.1780 C   0  0  0  0  0  0
   -0.8280    5.6800  -23.3140 F   0  0  0  0  0  0
   -3.7260    3.1020  -20.1390 F   0  0  0  0  0  0
    1.8200    5.9780  -22.8860 N   0  0  0  0  0  0
    4.0350    5.0470  -22.9720 N   0  0  0  0  0  0
    0.2950    2.5160  -24.6930 N   0  0  0  0  0  0
    4.4710    2.8500  -23.6070 N   0  0  0  0  0  0
    6.5000    1.1010  -22.4910 N   0  0  1  0  0  0
   -3.8410    3.8060  -27.7920 O   0  0  0  0  0  0
   -5.9796    3.6712  -21.1226 H   0  0  0  0  0  0
   -6.4675    4.0037  -23.5091 H   0  0  0  0  0  0
    5.6179    3.9906  -21.2849 H   0  0  0  0  0  0
    6.8763    3.0060  -20.4159 H   0  0  0  0  0  0
    6.3275    2.7150  -24.6604 H   0  0  0  0  0  0
    6.0833    4.2460  -23.7593 H   0  0  0  0  0  0
   -5.6765    4.0776  -25.8762 H   0  0  0  0  0  0
    2.2385    1.7718  -24.6821 H   0  0  0  0  0  0
    3.1157    1.3435  -22.7939 H   0  0  0  0  0  0
    4.3144    0.7047  -23.9826 H   0  0  0  0  0  0
    4.8700    0.0218  -21.6387 H   0  0  0  0  0  0
    7.7578    2.8293  -22.5885 H   0  0  0  0  0  0
    4.1018    2.5236  -20.7805 H   0  0  0  0  0  0
    5.3877    1.5123  -19.9097 H   0  0  0  0  0  0
   -1.5411    3.5789  -26.8099 H   0  0  0  0  0  0
    0.3934    2.1519  -20.7378 H   0  0  0  0  0  0
    7.1492    0.5983  -21.7894 H   0  0  0  0  0  0
   -2.9984    3.7179  -28.2217 H   0  0  0  0  0  0
    4.7190    9.8880  -23.7080 O   0  5  0  0  0  0
    5.4810   11.1110  -21.9380 O   0  0  0  0  0  0
    7.3860    8.7630  -20.5600 N   0  3  0  0  0  0
    5.8420    8.7520  -21.9340 C   0  0  0  0  0  0
    3.7060    7.3460  -22.2710 C   0  0  0  0  0  0
    5.9010    8.7910  -20.3840 C   0  0  0  0  0  0
    7.3850    8.7220  -22.0540 C   0  0  0  0  0  0
    5.2310    7.4430  -22.4760 C   0  0  0  0  0  0
    5.3040   10.0130  -22.5750 C   0  0  0  0  0  0
    7.7360    7.8841  -20.2120 H   0  0  0  0  0  0
    7.7641    9.6482  -20.2609 H   0  0  0  0  0  0
    3.2111    8.1648  -22.8139 H   0  0  0  0  0  0
    3.4709    7.4870  -21.2057 H   0  0  0  0  0  0
    5.6361    9.8147  -20.0811 H   0  0  0  0  0  0
    5.6029    7.7935  -20.0288 H   0  0  0  0  0  0
    7.6629    7.6982  -22.3449 H   0  0  0  0  0  0
    7.6979    9.7178  -22.4009 H   0  0  0  0  0  0
    5.7199    6.5841  -21.9931 H   0  0  0  0  0  0
    5.4619    7.3481  -23.5473 H   0  0  0  0  0  0
  1  2  2  0  0  0
  1  3  1  0  0  0
  1 34  1  0  0  0
  2  6  1  0  0  0
  2 35  1  0  0  0
  3  5  2  0  0  0
  3 27  1  0  0  0
  4  5  1  0  0  0
  4  6  2  0  0  0
  4 18  1  0  0  0
  5 24  1  0  0  0
  6 10  1  0  0  0
  7 10  2  0  0  0
  7 23  1  0  0  0
  7 33  1  0  0  0
  8 21  1  0  0  0
  8 22  1  0  0  0
  8 36  1  0  0  0
  8 37  1  0  0  0
  9 21  1  0  0  0
  9 31  1  0  0  0
  9 38  1  0  0  0
  9 39  1  0  0  0
 10 40  1  0  0  0
 11 12  1  0  0  0
 11 14  2  0  0  0
 11 15  1  0  0  0
 12 17  1  0  0  0
 12 28  2  0  0  0
 13 28  1  0  0  0
 13 29  2  0  0  0
 13 56  1  0  0  0
 14 29  1  0  0  0
 14 31  1  0  0  0
 15 30  2  0  0  0
 15 41  1  0  0  0
 16 17  2  0  0  0
 16 18  1  0  0  0
 16 30  1  0  0  0
 17 26  1  0  0  0
 18 23  2  0  0  0
 19 20  1  0  0  0
 19 31  1  0  0  0
 19 42  1  0  0  0
 19 43  1  0  0  0
 20 22  1  0  0  0
 20 32  1  0  0  0
 20 44  1  0  0  0
 21 32  1  0  0  0
 21 45  1  0  0  0
 22 46  1  0  0  0
 22 47  1  0  0  0
 23 48  1  0  0  0
 24 25  3  0  0  0
 25 49  1  0  0  0
 32 50  1  0  0  0
 33 51  1  0  0  0
 52 60  1  0  0  0
 53 60  2  0  0  0
 54 57  1  0  0  0
 54 58  1  0  0  0
 54 61  1  0  0  0
 54 62  1  0  0  0
 55 57  1  0  0  0
 55 58  1  0  0  0
 55 59  1  0  0  0
 55 60  1  0  0  0
 56 59  1  0  0  0
 56 63  1  0  0  0
 56 64  1  0  0  0
 57 65  1  0  0  0
 57 66  1  0  0  0
 58 67  1  0  0  0
 58 68  1  0  0  0
 59 69  1  0  0  0
 59 70  1  0  0  0
M  CHG  2  52  -1  54   1
M  END
> <s_m_entry_id>
170

> <s_m_entry_name>
000000012.1

> <s_m_Source_Path>
/Users/zaksoul/Documents/3r_UNI/2nd_SEMESTER/BSC/FRAG_RECON/RESULTS/2

> <s_m_Source_File>
000000012.mol2

> <i_m_Source_File_Index>
1

$$$$
No_0_13
                    3D
 Schrodinger Suite 2022-4.
 70 76  0  0  1  0            999 V2000
   -5.3270    3.1950  -21.8270 C   0  0  0  0  0  0
   -5.5750    3.4280  -23.1600 C   0  0  0  0  0  0
   -4.0920    2.9370  -21.4780 C   0  0  0  0  0  0
   -3.1710    3.1420  -23.6250 C   0  0  0  0  0  0
   -3.0290    2.8500  -22.2110 C   0  0  0  0  0  0
   -4.5120    3.4150  -24.1560 C   0  0  0  0  0  0
   -3.7260    3.5150  -26.3410 C   0  0  0  0  0  0
    5.9310    2.6540  -20.9630 C   0  0  0  0  0  0
    5.8280    2.8820  -23.5080 C   0  0  0  0  0  0
   -4.7450    3.5860  -25.4900 C   0  0  0  0  0  0
    2.0410    3.4100  -23.5620 C   0  0  0  0  0  0
    1.2090    4.5040  -23.2370 C   0  0  0  0  0  0
    2.9900    5.6850  -22.4910 C   0  0  0  0  0  0
    3.4350    3.5980  -23.2220 C   0  0  0  0  0  0
    1.5100    2.3130  -24.2680 C   0  0  0  0  0  0
   -0.6230    3.1110  -24.1610 C   0  0  0  0  0  0
   -0.1120    4.3130  -23.5130 C   0  0  0  0  0  0
   -2.0710    3.1220  -24.5360 C   0  0  0  0  0  0
    4.0510    1.0950  -23.0060 C   0  0  0  0  0  0
    4.9700    0.7050  -21.8590 C   0  0  2  0  0  0
    6.5620    2.2720  -22.3200 C   0  0  2  0  0  0
    4.9300    1.6660  -20.6590 C   0  0  0  0  0  0
   -2.3770    3.3280  -25.9620 C   0  0  0  0  0  0
   -1.6910    2.4240  -21.6070 C   0  0  0  0  0  0
   -0.6660    2.0650  -21.0990 C   0  0  0  0  0  0
   -0.9650    5.3420  -23.1460 F   0  0  0  0  0  0
   -3.9000    2.6490  -20.1010 F   0  0  0  0  0  0
    1.6720    5.6460  -22.6600 N   0  0  0  0  0  0
    3.8950    4.7350  -22.7310 N   0  0  0  0  0  0
    0.2090    2.2270  -24.5950 N   0  0  0  0  0  0
    4.3620    2.5610  -23.4210 N   0  0  0  0  0  0
    6.3830    0.7960  -22.3180 N   0  0  1  0  0  0
   -3.8790    3.5760  -27.7320 O   0  0  0  0  0  0
   -6.1398    3.2291  -21.1106 H   0  0  0  0  0  0
   -6.5861    3.6288  -23.4954 H   0  0  0  0  0  0
    5.4559    3.6426  -21.0457 H   0  0  0  0  0  0
    6.7063    2.6429  -20.1827 H   0  0  0  0  0  0
    6.2377    2.4712  -24.4425 H   0  0  0  0  0  0
    5.9652    3.9734  -23.5019 H   0  0  0  0  0  0
   -5.7514    3.7776  -25.8442 H   0  0  0  0  0  0
    2.1585    1.4979  -24.5681 H   0  0  0  0  0  0
    3.0036    1.0213  -22.6781 H   0  0  0  0  0  0
    4.2296    0.4260  -23.8607 H   0  0  0  0  0  0
    4.7470   -0.3201  -21.5281 H   0  0  0  0  0  0
    7.6298    2.5354  -22.3422 H   0  0  0  0  0  0
    3.9434    2.1502  -20.6126 H   0  0  0  0  0  0
    5.2197    1.1229  -19.7474 H   0  0  0  0  0  0
   -1.5961    3.3380  -26.7138 H   0  0  0  0  0  0
    0.2367    1.7491  -20.6512 H   0  0  0  0  0  0
    7.0237    0.2783  -21.6195 H   0  0  0  0  0  0
   -3.0276    3.5067  -28.1478 H   0  0  0  0  0  0
    3.4940    9.9190  -23.0150 O   0  5  0  0  0  0
    4.7970   10.9580  -21.4550 O   0  0  0  0  0  0
    7.3870    8.8790  -21.5810 N   0  3  0  0  0  0
    5.4110    8.7690  -22.1790 C   0  0  0  0  0  0
    3.5350    7.0110  -21.9700 C   0  0  0  0  0  0
    6.1380    8.5540  -20.8250 C   0  0  0  0  0  0
    6.7370    9.0950  -22.9090 C   0  0  0  0  0  0
    4.7920    7.4700  -22.7370 C   0  0  0  0  0  0
    4.4960    9.9730  -22.2170 C   0  0  0  0  0  0
    7.9592    8.0507  -21.6310 H   0  0  0  0  0  0
    7.7450    9.7609  -21.2490 H   0  0  0  0  0  0
    2.7557    7.7833  -22.0490 H   0  0  0  0  0  0
    3.7750    6.9130  -20.9010 H   0  0  0  0  0  0
    5.9080    9.4280  -20.1980 H   0  0  0  0  0  0
    6.1520    7.4699  -20.6390 H   0  0  0  0  0  0
    6.9829    8.2215  -23.5307 H   0  0  0  0  0  0
    6.7400   10.1793  -23.0939 H   0  0  0  0  0  0
    5.5448    6.6682  -22.7180 H   0  0  0  0  0  0
    4.5399    7.6120  -23.7983 H   0  0  0  0  0  0
  1  2  2  0  0  0
  1  3  1  0  0  0
  1 34  1  0  0  0
  2  6  1  0  0  0
  2 35  1  0  0  0
  3  5  2  0  0  0
  3 27  1  0  0  0
  4  5  1  0  0  0
  4  6  2  0  0  0
  4 18  1  0  0  0
  5 24  1  0  0  0
  6 10  1  0  0  0
  7 10  2  0  0  0
  7 23  1  0  0  0
  7 33  1  0  0  0
  8 21  1  0  0  0
  8 22  1  0  0  0
  8 36  1  0  0  0
  8 37  1  0  0  0
  9 21  1  0  0  0
  9 31  1  0  0  0
  9 38  1  0  0  0
  9 39  1  0  0  0
 10 40  1  0  0  0
 11 12  1  0  0  0
 11 14  2  0  0  0
 11 15  1  0  0  0
 12 17  1  0  0  0
 12 28  2  0  0  0
 13 28  1  0  0  0
 13 29  2  0  0  0
 13 56  1  0  0  0
 14 29  1  0  0  0
 14 31  1  0  0  0
 15 30  2  0  0  0
 15 41  1  0  0  0
 16 17  2  0  0  0
 16 18  1  0  0  0
 16 30  1  0  0  0
 17 26  1  0  0  0
 18 23  2  0  0  0
 19 20  1  0  0  0
 19 31  1  0  0  0
 19 42  1  0  0  0
 19 43  1  0  0  0
 20 22  1  0  0  0
 20 32  1  0  0  0
 20 44  1  0  0  0
 21 32  1  0  0  0
 21 45  1  0  0  0
 22 46  1  0  0  0
 22 47  1  0  0  0
 23 48  1  0  0  0
 24 25  3  0  0  0
 25 49  1  0  0  0
 32 50  1  0  0  0
 33 51  1  0  0  0
 52 60  1  0  0  0
 53 60  2  0  0  0
 54 57  1  0  0  0
 54 58  1  0  0  0
 54 61  1  0  0  0
 54 62  1  0  0  0
 55 57  1  0  0  0
 55 58  1  0  0  0
 55 59  1  0  0  0
 55 60  1  0  0  0
 56 59  1  0  0  0
 56 63  1  0  0  0
 56 64  1  0  0  0
 57 65  1  0  0  0
 57 66  1  0  0  0
 58 67  1  0  0  0
 58 68  1  0  0  0
 59 69  1  0  0  0
 59 70  1  0  0  0
M  CHG  2  52  -1  54   1
M  END
> <s_m_entry_id>
171

> <s_m_entry_name>
000000013.1

> <s_m_Source_Path>
/Users/zaksoul/Documents/3r_UNI/2nd_SEMESTER/BSC/FRAG_RECON/RESULTS/2

> <s_m_Source_File>
000000013.mol2

> <i_m_Source_File_Index>
1

$$$$
No_0_14
                    3D
 Schrodinger Suite 2022-4.
 68 74  0  0  1  0            999 V2000
   -4.9480    3.8980  -22.0120 C   0  0  0  0  0  0
   -5.2270    4.0720  -23.3470 C   0  0  0  0  0  0
   -3.7090    3.6350  -21.6820 C   0  0  0  0  0  0
   -2.8410    3.7240  -23.8590 C   0  0  0  0  0  0
   -2.6670    3.4960  -22.4370 C   0  0  0  0  0  0
   -4.1910    3.9950  -24.3680 C   0  0  0  0  0  0
   -3.4600    3.9800  -26.5750 C   0  0  0  0  0  0
    6.3190    3.2050  -21.4090 C   0  0  0  0  0  0
    6.1530    3.3170  -23.9580 C   0  0  0  0  0  0
   -4.4560    4.1080  -25.7020 C   0  0  0  0  0  0
    2.3750    3.9060  -23.9400 C   0  0  0  0  0  0
    1.5690    5.0270  -23.6460 C   0  0  0  0  0  0
    3.3880    6.2120  -23.0020 C   0  0  0  0  0  0
    3.7800    4.0850  -23.6450 C   0  0  0  0  0  0
    1.8090    2.7870  -24.5810 C   0  0  0  0  0  0
   -0.3080    3.6250  -24.4570 C   0  0  0  0  0  0
    0.2390    4.8470  -23.8800 C   0  0  0  0  0  0
   -1.7650    3.6430  -24.7960 C   0  0  0  0  0  0
    4.3620    1.5850  -23.3280 C   0  0  0  0  0  0
    5.3040    1.2330  -22.1870 C   0  0  2  0  0  0
    6.9080    2.7490  -22.7610 C   0  0  2  0  0  0
    5.3100    2.2490  -21.0330 C   0  0  0  0  0  0
   -2.1050    3.7880  -26.2220 C   0  0  0  0  0  0
   -1.3200    3.0750  -21.8480 C   0  0  0  0  0  0
   -0.2880    2.7220  -21.3500 C   0  0  0  0  0  0
   -0.5880    5.9060  -23.5390 F   0  0  0  0  0  0
   -3.4860    3.4080  -20.2990 F   0  0  0  0  0  0
    2.0650    6.1880  -23.1350 N   0  0  0  0  0  0
    4.2710    5.2360  -23.2190 N   0  0  0  0  0  0
    0.4980    2.7080  -24.8710 N   0  0  0  0  0  0
    4.6850    3.0250  -23.8190 N   0  0  0  0  0  0
    6.7060    1.2790  -22.6860 N   0  0  1  0  0  0
   -3.6490    3.9800  -27.9630 O   0  0  0  0  0  0
   -5.7414    3.9783  -21.2778 H   0  0  0  0  0  0
   -6.2429    4.2748  -23.6662 H   0  0  0  0  0  0
    5.8579    4.1968  -21.5260 H   0  0  0  0  0  0
    7.1133    3.2161  -20.6481 H   0  0  0  0  0  0
    6.5323    2.8560  -24.8819 H   0  0  0  0  0  0
    6.3074    4.4050  -24.0064 H   0  0  0  0  0  0
   -5.4681    4.2998  -26.0394 H   0  0  0  0  0  0
    2.4355    1.9476  -24.8601 H   0  0  0  0  0  0
    3.3224    1.5446  -22.9707 H   0  0  0  0  0  0
    4.5073    0.8747  -24.1553 H   0  0  0  0  0  0
    5.0728    0.2284  -21.8033 H   0  0  0  0  0  0
    7.9785    2.9942  -22.8236 H   0  0  0  0  0  0
    4.3328    2.7517  -20.9845 H   0  0  0  0  0  0
    5.6158    1.7444  -20.1046 H   0  0  0  0  0  0
   -1.3440    3.7499  -26.9930 H   0  0  0  0  0  0
    0.6210    2.4120  -20.9110 H   0  0  0  0  0  0
    7.3560    0.7830  -21.9804 H   0  0  0  0  0  0
   -2.8099    3.8771  -28.3964 H   0  0  0  0  0  0
    5.9920    9.7080  -22.6960 F   0  0  0  0  0  0
    6.9230    9.1670  -19.8400 N   0  3  0  0  0  0
    6.0450    8.7770  -21.6640 C   0  0  0  0  0  0
    3.9670    7.5500  -22.5570 C   0  0  0  0  0  0
    7.4820    8.6140  -21.1140 C   0  0  0  0  0  0
    5.5200    9.3550  -20.3270 C   0  0  0  0  0  0
    5.4240    7.4270  -22.0680 C   0  0  0  0  0  0
    7.3321   10.0732  -19.6740 H   0  0  0  0  0  0
    6.9290    8.4399  -19.1419 H   0  0  0  0  0  0
    3.9210    8.2648  -23.3918 H   0  0  0  0  0  0
    3.3453    7.9678  -21.7514 H   0  0  0  0  0  0
    7.6400    7.5377  -20.9510 H   0  0  0  0  0  0
    8.0880    9.4119  -21.5680 H   0  0  0  0  0  0
    5.3790   10.4350  -20.4810 H   0  0  0  0  0  0
    4.9131    8.5671  -19.8571 H   0  0  0  0  0  0
    5.4650    6.7354  -21.2136 H   0  0  0  0  0  0
    6.0359    6.9651  -22.8568 H   0  0  0  0  0  0
  1  2  2  0  0  0
  1  3  1  0  0  0
  1 34  1  0  0  0
  2  6  1  0  0  0
  2 35  1  0  0  0
  3  5  2  0  0  0
  3 27  1  0  0  0
  4  5  1  0  0  0
  4  6  2  0  0  0
  4 18  1  0  0  0
  5 24  1  0  0  0
  6 10  1  0  0  0
  7 10  2  0  0  0
  7 23  1  0  0  0
  7 33  1  0  0  0
  8 21  1  0  0  0
  8 22  1  0  0  0
  8 36  1  0  0  0
  8 37  1  0  0  0
  9 21  1  0  0  0
  9 31  1  0  0  0
  9 38  1  0  0  0
  9 39  1  0  0  0
 10 40  1  0  0  0
 11 12  1  0  0  0
 11 14  2  0  0  0
 11 15  1  0  0  0
 12 17  1  0  0  0
 12 28  2  0  0  0
 13 28  1  0  0  0
 13 29  2  0  0  0
 13 55  1  0  0  0
 14 29  1  0  0  0
 14 31  1  0  0  0
 15 30  2  0  0  0
 15 41  1  0  0  0
 16 17  2  0  0  0
 16 18  1  0  0  0
 16 30  1  0  0  0
 17 26  1  0  0  0
 18 23  2  0  0  0
 19 20  1  0  0  0
 19 31  1  0  0  0
 19 42  1  0  0  0
 19 43  1  0  0  0
 20 22  1  0  0  0
 20 32  1  0  0  0
 20 44  1  0  0  0
 21 32  1  0  0  0
 21 45  1  0  0  0
 22 46  1  0  0  0
 22 47  1  0  0  0
 23 48  1  0  0  0
 24 25  3  0  0  0
 25 49  1  0  0  0
 32 50  1  0  0  0
 33 51  1  0  0  0
 52 54  1  0  0  0
 53 56  1  0  0  0
 53 57  1  0  0  0
 53 59  1  0  0  0
 53 60  1  0  0  0
 54 56  1  0  0  0
 54 57  1  0  0  0
 54 58  1  0  0  0
 55 58  1  0  0  0
 55 61  1  0  0  0
 55 62  1  0  0  0
 56 63  1  0  0  0
 56 64  1  0  0  0
 57 65  1  0  0  0
 57 66  1  0  0  0
 58 67  1  0  0  0
 58 68  1  0  0  0
M  CHG  1  53   1
M  END
> <s_m_entry_id>
172

> <s_m_entry_name>
000000014.1

> <s_m_Source_Path>
/Users/zaksoul/Documents/3r_UNI/2nd_SEMESTER/BSC/FRAG_RECON/RESULTS/2

> <s_m_Source_File>
000000014.mol2

> <i_m_Source_File_Index>
1

$$$$
No_0_15
                    3D
 Schrodinger Suite 2022-4.
 68 74  0  0  1  0            999 V2000
   -5.4780    3.4200  -21.8090 C   0  0  0  0  0  0
   -5.7500    3.6160  -23.1420 C   0  0  0  0  0  0
   -4.2390    3.1620  -21.4750 C   0  0  0  0  0  0
   -3.3570    3.2970  -23.6430 C   0  0  0  0  0  0
   -3.1900    3.0450  -22.2250 C   0  0  0  0  0  0
   -4.7060    3.5650  -24.1570 C   0  0  0  0  0  0
   -3.9600    3.5960  -26.3590 C   0  0  0  0  0  0
    5.7900    2.8100  -21.1400 C   0  0  0  0  0  0
    5.6400    2.9650  -23.6880 C   0  0  0  0  0  0
   -4.9630    3.7000  -25.4910 C   0  0  0  0  0  0
    1.8570    3.5230  -23.6860 C   0  0  0  0  0  0
    1.0400    4.6320  -23.3770 C   0  0  0  0  0  0
    2.8450    5.8200  -22.7000 C   0  0  0  0  0  0
    3.2590    3.7090  -23.3780 C   0  0  0  0  0  0
    1.3050    2.4110  -24.3500 C   0  0  0  0  0  0
   -0.8200    3.2290  -24.2260 C   0  0  0  0  0  0
   -0.2870    4.4450  -23.6230 C   0  0  0  0  0  0
   -2.2740    3.2410  -24.5740 C   0  0  0  0  0  0
    3.8600    1.2080  -23.1010 C   0  0  0  0  0  0
    4.7970    0.8440  -21.9600 C   0  0  2  0  0  0
    6.3920    2.3830  -22.4960 C   0  0  2  0  0  0
    4.7870    1.8390  -20.7880 C   0  0  0  0  0  0
   -2.6060    3.4080  -26.0000 C   0  0  0  0  0  0
   -1.8450    2.6250  -21.6340 C   0  0  0  0  0  0
   -0.8130    2.2720  -21.1350 C   0  0  0  0  0  0
   -1.1250    5.4910  -23.2700 F   0  0  0  0  0  0
   -4.0230    2.9120  -20.0950 F   0  0  0  0  0  0
    1.5230    5.7870  -22.8420 N   0  0  0  0  0  0
    3.7380    4.8560  -22.9290 N   0  0  0  0  0  0
   -0.0030    2.3260  -24.6500 N   0  0  0  0  0  0
    4.1740    2.6590  -23.5640 N   0  0  0  0  0  0
    6.2020    0.9100  -22.4490 N   0  0  1  0  0  0
   -4.1390    3.6180  -27.7470 O   0  0  0  0  0  0
   -6.2766    3.4812  -21.0786 H   0  0  0  0  0  0
   -6.7653    3.8149  -23.4654 H   0  0  0  0  0  0
    5.3209    3.7996  -21.2429 H   0  0  0  0  0  0
    6.5793    2.8140  -20.3739 H   0  0  0  0  0  0
    6.0295    2.5240  -24.6174 H   0  0  0  0  0  0
    5.7863    4.0549  -23.7163 H   0  0  0  0  0  0
   -5.9745    3.8898  -25.8315 H   0  0  0  0  0  0
    1.9405    1.5818  -24.6391 H   0  0  0  0  0  0
    2.8187    1.1525  -22.7509 H   0  0  0  0  0  0
    4.0164    0.5136  -23.9397 H   0  0  0  0  0  0
    4.5720   -0.1692  -21.5957 H   0  0  0  0  0  0
    7.4610    2.6374  -22.5465 H   0  0  0  0  0  0
    3.8052    2.3324  -20.7375 H   0  0  0  0  0  0
    5.0898    1.3202  -19.8665 H   0  0  0  0  0  0
   -1.8396    3.3899  -26.7664 H   0  0  0  0  0  0
    0.0954    1.9612  -20.6953 H   0  0  0  0  0  0
    6.8509    0.4065  -21.7477 H   0  0  0  0  0  0
   -3.2967    3.5299  -28.1775 H   0  0  0  0  0  0
    5.1880    9.5060  -22.5300 F   0  0  0  0  0  0
    6.7750    8.7620  -20.0320 N   0  3  0  0  0  0
    5.5400    8.4810  -21.6570 C   0  0  0  0  0  0
    3.4100    7.1550  -22.2270 C   0  0  0  0  0  0
    7.0720    8.4040  -21.4540 C   0  0  0  0  0  0
    5.2880    8.8600  -20.1770 C   0  0  0  0  0  0
    4.9450    7.1260  -22.0830 C   0  0  0  0  0  0
    7.1438    9.6815  -19.8461 H   0  0  0  0  0  0
    6.9910    7.9700  -19.4470 H   0  0  0  0  0  0
    3.1251    7.9447  -22.9378 H   0  0  0  0  0  0
    2.9570    7.4230  -21.2611 H   0  0  0  0  0  0
    7.3411    7.3375  -21.4640 H   0  0  0  0  0  0
    7.4997    9.3015  -21.9247 H   0  0  0  0  0  0
    5.0380    9.9311  -20.1630 H   0  0  0  0  0  0
    4.8617    7.9713  -19.6886 H   0  0  0  0  0  0
    5.2278    6.3566  -21.3495 H   0  0  0  0  0  0
    5.3951    6.8119  -23.0363 H   0  0  0  0  0  0
  1  2  2  0  0  0
  1  3  1  0  0  0
  1 34  1  0  0  0
  2  6  1  0  0  0
  2 35  1  0  0  0
  3  5  2  0  0  0
  3 27  1  0  0  0
  4  5  1  0  0  0
  4  6  2  0  0  0
  4 18  1  0  0  0
  5 24  1  0  0  0
  6 10  1  0  0  0
  7 10  2  0  0  0
  7 23  1  0  0  0
  7 33  1  0  0  0
  8 21  1  0  0  0
  8 22  1  0  0  0
  8 36  1  0  0  0
  8 37  1  0  0  0
  9 21  1  0  0  0
  9 31  1  0  0  0
  9 38  1  0  0  0
  9 39  1  0  0  0
 10 40  1  0  0  0
 11 12  1  0  0  0
 11 14  2  0  0  0
 11 15  1  0  0  0
 12 17  1  0  0  0
 12 28  2  0  0  0
 13 28  1  0  0  0
 13 29  2  0  0  0
 13 55  1  0  0  0
 14 29  1  0  0  0
 14 31  1  0  0  0
 15 30  2  0  0  0
 15 41  1  0  0  0
 16 17  2  0  0  0
 16 18  1  0  0  0
 16 30  1  0  0  0
 17 26  1  0  0  0
 18 23  2  0  0  0
 19 20  1  0  0  0
 19 31  1  0  0  0
 19 42  1  0  0  0
 19 43  1  0  0  0
 20 22  1  0  0  0
 20 32  1  0  0  0
 20 44  1  0  0  0
 21 32  1  0  0  0
 21 45  1  0  0  0
 22 46  1  0  0  0
 22 47  1  0  0  0
 23 48  1  0  0  0
 24 25  3  0  0  0
 25 49  1  0  0  0
 32 50  1  0  0  0
 33 51  1  0  0  0
 52 54  1  0  0  0
 53 56  1  0  0  0
 53 57  1  0  0  0
 53 59  1  0  0  0
 53 60  1  0  0  0
 54 56  1  0  0  0
 54 57  1  0  0  0
 54 58  1  0  0  0
 55 58  1  0  0  0
 55 61  1  0  0  0
 55 62  1  0  0  0
 56 63  1  0  0  0
 56 64  1  0  0  0
 57 65  1  0  0  0
 57 66  1  0  0  0
 58 67  1  0  0  0
 58 68  1  0  0  0
M  CHG  1  53   1
M  END
> <s_m_entry_id>
173

> <s_m_entry_name>
000000015.1

> <s_m_Source_Path>
/Users/zaksoul/Documents/3r_UNI/2nd_SEMESTER/BSC/FRAG_RECON/RESULTS/2

> <s_m_Source_File>
000000015.mol2

> <i_m_Source_File_Index>
1

$$$$
No_0_16
                    3D
 Schrodinger Suite 2022-4.
 68 74  0  0  1  0            999 V2000
   -5.3580    3.5830  -21.7140 C   0  0  0  0  0  0
   -5.6340    3.8100  -23.0410 C   0  0  0  0  0  0
   -4.1230    3.2910  -21.3940 C   0  0  0  0  0  0
   -3.2530    3.4460  -23.5670 C   0  0  0  0  0  0
   -3.0820    3.1640  -22.1540 C   0  0  0  0  0  0
   -4.6000    3.7540  -24.0650 C   0  0  0  0  0  0
   -3.8690    3.8090  -26.2710 C   0  0  0  0  0  0
    5.8980    2.7070  -21.1420 C   0  0  0  0  0  0
    5.7330    2.9130  -23.6850 C   0  0  0  0  0  0
   -4.8630    3.9200  -25.3940 C   0  0  0  0  0  0
    1.9640    3.5560  -23.6440 C   0  0  0  0  0  0
    1.1750    4.6770  -23.3090 C   0  0  0  0  0  0
    3.0100    5.8110  -22.6230 C   0  0  0  0  0  0
    3.3720    3.7040  -23.3440 C   0  0  0  0  0  0
    1.3820    2.4690  -24.3250 C   0  0  0  0  0  0
   -0.7230    3.3320  -24.1700 C   0  0  0  0  0  0
   -0.1580    4.5240  -23.5490 C   0  0  0  0  0  0
   -2.1790    3.3830  -24.5060 C   0  0  0  0  0  0
    3.9180    1.1850  -23.1180 C   0  0  0  0  0  0
    4.8550    0.7790  -21.9910 C   0  0  2  0  0  0
    6.4800    2.2920  -22.5100 C   0  0  2  0  0  0
    4.8760    1.7530  -20.8010 C   0  0  0  0  0  0
   -2.5170    3.5850  -25.9260 C   0  0  0  0  0  0
   -1.7420    2.7030  -21.5820 C   0  0  0  0  0  0
   -0.7150    2.3180  -21.0970 C   0  0  0  0  0  0
   -0.9690    5.5820  -23.1700 F   0  0  0  0  0  0
   -3.9030    3.0100  -20.0200 F   0  0  0  0  0  0
    1.6870    5.8110  -22.7570 N   0  0  0  0  0  0
    3.8800    4.8320  -22.8770 N   0  0  0  0  0  0
    0.0700    2.4190  -24.6160 N   0  0  0  0  0  0
    4.2610    2.6380  -23.5560 N   0  0  0  0  0  0
    6.2570    0.8220  -22.4890 N   0  0  1  0  0  0
   -4.0580    3.8610  -27.6580 O   0  0  0  0  0  0
   -6.1497    3.6492  -20.9765 H   0  0  0  0  0  0
   -6.6472    4.0377  -23.3520 H   0  0  0  0  0  0
    5.4507    3.7087  -21.2228 H   0  0  0  0  0  0
    6.6925    2.6787  -20.3818 H   0  0  0  0  0  0
    6.1053    2.4802  -24.6253 H   0  0  0  0  0  0
    5.9035    3.9997  -23.6941 H   0  0  0  0  0  0
   -5.8725    4.1380  -25.7235 H   0  0  0  0  0  0
    1.9962    1.6310  -24.6341 H   0  0  0  0  0  0
    2.8783    1.1467  -22.7610 H   0  0  0  0  0  0
    4.0524    0.5031  -23.9706 H   0  0  0  0  0  0
    4.6097   -0.2355  -21.6437 H   0  0  0  0  0  0
    7.5541    2.5230  -22.5645 H   0  0  0  0  0  0
    3.9058    2.2669  -20.7334 H   0  0  0  0  0  0
    5.1737    1.2101  -19.8918 H   0  0  0  0  0  0
   -1.7567    3.5639  -26.6984 H   0  0  0  0  0  0
    0.1890    1.9780  -20.6700 H   0  0  0  0  0  0
    6.9002    0.2921  -21.8020 H   0  0  0  0  0  0
   -3.2206    3.7620  -28.0955 H   0  0  0  0  0  0
    5.1560    9.6180  -22.5380 F   0  0  0  0  0  0
    7.3200    8.7230  -20.5800 N   0  3  0  0  0  0
    5.7500    8.5320  -21.9020 C   0  0  0  0  0  0
    3.6090    7.1240  -22.1310 C   0  0  0  0  0  0
    7.2890    8.5460  -22.0660 C   0  0  0  0  0  0
    5.8370    8.7270  -20.3690 C   0  0  0  0  0  0
    5.1340    7.1920  -22.3450 C   0  0  0  0  0  0
    7.6791    9.6414  -20.3709 H   0  0  0  0  0  0
    7.7038    7.8893  -20.1632 H   0  0  0  0  0  0
    3.1289    7.9642  -22.6541 H   0  0  0  0  0  0
    3.3841    7.2499  -21.0616 H   0  0  0  0  0  0
    7.5971    7.5097  -22.2691 H   0  0  0  0  0  0
    7.5529    9.5186  -22.5068 H   0  0  0  0  0  0
    5.5490    9.7689  -20.1650 H   0  0  0  0  0  0
    5.5789    7.7608  -19.9109 H   0  0  0  0  0  0
    5.6168    6.3693  -21.7972 H   0  0  0  0  0  0
    5.3620    7.0180  -23.4070 H   0  0  0  0  0  0
  1  2  2  0  0  0
  1  3  1  0  0  0
  1 34  1  0  0  0
  2  6  1  0  0  0
  2 35  1  0  0  0
  3  5  2  0  0  0
  3 27  1  0  0  0
  4  5  1  0  0  0
  4  6  2  0  0  0
  4 18  1  0  0  0
  5 24  1  0  0  0
  6 10  1  0  0  0
  7 10  2  0  0  0
  7 23  1  0  0  0
  7 33  1  0  0  0
  8 21  1  0  0  0
  8 22  1  0  0  0
  8 36  1  0  0  0
  8 37  1  0  0  0
  9 21  1  0  0  0
  9 31  1  0  0  0
  9 38  1  0  0  0
  9 39  1  0  0  0
 10 40  1  0  0  0
 11 12  1  0  0  0
 11 14  2  0  0  0
 11 15  1  0  0  0
 12 17  1  0  0  0
 12 28  2  0  0  0
 13 28  1  0  0  0
 13 29  2  0  0  0
 13 55  1  0  0  0
 14 29  1  0  0  0
 14 31  1  0  0  0
 15 30  2  0  0  0
 15 41  1  0  0  0
 16 17  2  0  0  0
 16 18  1  0  0  0
 16 30  1  0  0  0
 17 26  1  0  0  0
 18 23  2  0  0  0
 19 20  1  0  0  0
 19 31  1  0  0  0
 19 42  1  0  0  0
 19 43  1  0  0  0
 20 22  1  0  0  0
 20 32  1  0  0  0
 20 44  1  0  0  0
 21 32  1  0  0  0
 21 45  1  0  0  0
 22 46  1  0  0  0
 22 47  1  0  0  0
 23 48  1  0  0  0
 24 25  3  0  0  0
 25 49  1  0  0  0
 32 50  1  0  0  0
 33 51  1  0  0  0
 52 54  1  0  0  0
 53 56  1  0  0  0
 53 57  1  0  0  0
 53 59  1  0  0  0
 53 60  1  0  0  0
 54 56  1  0  0  0
 54 57  1  0  0  0
 54 58  1  0  0  0
 55 58  1  0  0  0
 55 61  1  0  0  0
 55 62  1  0  0  0
 56 63  1  0  0  0
 56 64  1  0  0  0
 57 65  1  0  0  0
 57 66  1  0  0  0
 58 67  1  0  0  0
 58 68  1  0  0  0
M  CHG  1  53   1
M  END
> <s_m_entry_id>
174

> <s_m_entry_name>
000000016.1

> <s_m_Source_Path>
/Users/zaksoul/Documents/3r_UNI/2nd_SEMESTER/BSC/FRAG_RECON/RESULTS/2

> <s_m_Source_File>
000000016.mol2

> <i_m_Source_File_Index>
1

$$$$
No_0_17
                    3D
 Schrodinger Suite 2022-4.
 68 74  0  0  1  0            999 V2000
   -5.2870    3.4610  -21.5980 C   0  0  0  0  0  0
   -5.5650    3.6850  -22.9260 C   0  0  0  0  0  0
   -4.0480    3.1880  -21.2760 C   0  0  0  0  0  0
   -3.1770    3.3580  -23.4470 C   0  0  0  0  0  0
   -3.0050    3.0770  -22.0350 C   0  0  0  0  0  0
   -4.5270    3.6460  -23.9480 C   0  0  0  0  0  0
   -3.7940    3.7140  -26.1530 C   0  0  0  0  0  0
    5.9790    2.7550  -21.0070 C   0  0  0  0  0  0
    5.8160    2.9610  -23.5510 C   0  0  0  0  0  0
   -4.7910    3.8090  -25.2770 C   0  0  0  0  0  0
    2.0380    3.5470  -23.5160 C   0  0  0  0  0  0
    1.2310    4.6560  -23.1820 C   0  0  0  0  0  0
    3.0480    5.8170  -22.4920 C   0  0  0  0  0  0
    3.4430    3.7160  -23.2130 C   0  0  0  0  0  0
    1.4730    2.4510  -24.1980 C   0  0  0  0  0  0
   -0.6440    3.2830  -24.0460 C   0  0  0  0  0  0
   -0.0990    4.4830  -23.4230 C   0  0  0  0  0  0
   -2.1010    3.3120  -24.3850 C   0  0  0  0  0  0
    4.0260    1.2060  -22.9880 C   0  0  0  0  0  0
    4.9670    0.8130  -21.8600 C   0  0  2  0  0  0
    6.5710    2.3500  -22.3750 C   0  0  2  0  0  0
    4.9720    1.7860  -20.6690 C   0  0  0  0  0  0
   -2.4390    3.5090  -25.8060 C   0  0  0  0  0  0
   -1.6590    2.6360  -21.4610 C   0  0  0  0  0  0
   -0.6270    2.2660  -20.9740 C   0  0  0  0  0  0
   -0.9270    5.5280  -23.0450 F   0  0  0  0  0  0
   -3.8260    2.9100  -19.9030 F   0  0  0  0  0  0
    1.7250    5.7970  -22.6270 N   0  0  0  0  0  0
    3.9320    4.8510  -22.7440 N   0  0  0  0  0  0
    0.1630    2.3820  -24.4920 N   0  0  0  0  0  0
    4.3490    2.6630  -23.4250 N   0  0  0  0  0  0
    6.3700    0.8780  -22.3550 N   0  0  1  0  0  0
   -3.9810    3.7640  -27.5400 O   0  0  0  0  0  0
   -6.0811    3.5152  -20.8621 H   0  0  0  0  0  0
   -6.5807    3.8978  -23.2392 H   0  0  0  0  0  0
    5.5177    3.7503  -21.0888 H   0  0  0  0  0  0
    6.7732    2.7389  -20.2461 H   0  0  0  0  0  0
    6.1972    2.5354  -24.4910 H   0  0  0  0  0  0
    5.9704    4.0501  -23.5591 H   0  0  0  0  0  0
   -5.8030    4.0118  -25.6083 H   0  0  0  0  0  0
    2.1011    1.6233  -24.5070 H   0  0  0  0  0  0
    2.9864    1.1515  -22.6327 H   0  0  0  0  0  0
    4.1723    0.5268  -23.8408 H   0  0  0  0  0  0
    4.7369   -0.2054  -21.5138 H   0  0  0  0  0  0
    7.6416    2.5974  -22.4265 H   0  0  0  0  0  0
    3.9935    2.2843  -20.6034 H   0  0  0  0  0  0
    5.2757    1.2462  -19.7599 H   0  0  0  0  0  0
   -1.6770    3.5010  -26.5770 H   0  0  0  0  0  0
    0.2818    1.9401  -20.5461 H   0  0  0  0  0  0
    7.0191    0.3562  -21.6674 H   0  0  0  0  0  0
   -3.1416    3.6779  -27.9765 H   0  0  0  0  0  0
    4.7500    9.8420  -22.4480 F   0  0  0  0  0  0
    7.4430    9.0390  -21.2550 N   0  3  0  0  0  0
    5.5990    8.7830  -22.1410 C   0  0  0  0  0  0
    3.6260    7.1380  -21.9970 C   0  0  0  0  0  0
    7.0260    9.0160  -22.6930 C   0  0  0  0  0  0
    6.0810    8.8270  -20.6700 C   0  0  0  0  0  0
    5.0210    7.4270  -22.5870 C   0  0  0  0  0  0
    7.7529    9.9697  -21.0231 H   0  0  0  0  0  0
    8.0060    8.2240  -21.0680 H   0  0  0  0  0  0
    2.9412    7.9577  -22.2599 H   0  0  0  0  0  0
    3.6900    7.1220  -20.8990 H   0  0  0  0  0  0
    7.3671    8.0557  -23.1071 H   0  0  0  0  0  0
    7.0620   10.0554  -23.0512 H   0  0  0  0  0  0
    5.7571    9.7946  -20.2592 H   0  0  0  0  0  0
    6.0530    7.7929  -20.2960 H   0  0  0  0  0  0
    5.7130    6.6219  -22.2990 H   0  0  0  0  0  0
    4.9670    7.3970  -23.6853 H   0  0  0  0  0  0
  1  2  2  0  0  0
  1  3  1  0  0  0
  1 34  1  0  0  0
  2  6  1  0  0  0
  2 35  1  0  0  0
  3  5  2  0  0  0
  3 27  1  0  0  0
  4  5  1  0  0  0
  4  6  2  0  0  0
  4 18  1  0  0  0
  5 24  1  0  0  0
  6 10  1  0  0  0
  7 10  2  0  0  0
  7 23  1  0  0  0
  7 33  1  0  0  0
  8 21  1  0  0  0
  8 22  1  0  0  0
  8 36  1  0  0  0
  8 37  1  0  0  0
  9 21  1  0  0  0
  9 31  1  0  0  0
  9 38  1  0  0  0
  9 39  1  0  0  0
 10 40  1  0  0  0
 11 12  1  0  0  0
 11 14  2  0  0  0
 11 15  1  0  0  0
 12 17  1  0  0  0
 12 28  2  0  0  0
 13 28  1  0  0  0
 13 29  2  0  0  0
 13 55  1  0  0  0
 14 29  1  0  0  0
 14 31  1  0  0  0
 15 30  2  0  0  0
 15 41  1  0  0  0
 16 17  2  0  0  0
 16 18  1  0  0  0
 16 30  1  0  0  0
 17 26  1  0  0  0
 18 23  2  0  0  0
 19 20  1  0  0  0
 19 31  1  0  0  0
 19 42  1  0  0  0
 19 43  1  0  0  0
 20 22  1  0  0  0
 20 32  1  0  0  0
 20 44  1  0  0  0
 21 32  1  0  0  0
 21 45  1  0  0  0
 22 46  1  0  0  0
 22 47  1  0  0  0
 23 48  1  0  0  0
 24 25  3  0  0  0
 25 49  1  0  0  0
 32 50  1  0  0  0
 33 51  1  0  0  0
 52 54  1  0  0  0
 53 56  1  0  0  0
 53 57  1  0  0  0
 53 59  1  0  0  0
 53 60  1  0  0  0
 54 56  1  0  0  0
 54 57  1  0  0  0
 54 58  1  0  0  0
 55 58  1  0  0  0
 55 61  1  0  0  0
 55 62  1  0  0  0
 56 63  1  0  0  0
 56 64  1  0  0  0
 57 65  1  0  0  0
 57 66  1  0  0  0
 58 67  1  0  0  0
 58 68  1  0  0  0
M  CHG  1  53   1
M  END
> <s_m_entry_id>
175

> <s_m_entry_name>
000000017.1

> <s_m_Source_Path>
/Users/zaksoul/Documents/3r_UNI/2nd_SEMESTER/BSC/FRAG_RECON/RESULTS/2

> <s_m_Source_File>
000000017.mol2

> <i_m_Source_File_Index>
1

$$$$
No_0_18
                    3D
 Schrodinger Suite 2022-4.
 68 74  0  0  1  0            999 V2000
   -5.2960    3.4820  -21.6560 C   0  0  0  0  0  0
   -5.5360    3.7130  -22.9900 C   0  0  0  0  0  0
   -4.0660    3.2140  -21.2990 C   0  0  0  0  0  0
   -3.1320    3.4040  -23.4420 C   0  0  0  0  0  0
   -3.0000    3.1160  -22.0270 C   0  0  0  0  0  0
   -4.4680    3.6880  -23.9810 C   0  0  0  0  0  0
   -3.6710    3.7740  -26.1620 C   0  0  0  0  0  0
    5.9520    2.8430  -20.7350 C   0  0  0  0  0  0
    5.8630    3.0640  -23.2810 C   0  0  0  0  0  0
   -4.6930    3.8570  -25.3160 C   0  0  0  0  0  0
    2.0810    3.6260  -23.3540 C   0  0  0  0  0  0
    1.2580    4.7280  -23.0370 C   0  0  0  0  0  0
    3.0460    5.8960  -22.2860 C   0  0  0  0  0  0
    3.4760    3.8020  -23.0090 C   0  0  0  0  0  0
    1.5450    2.5320  -24.0600 C   0  0  0  0  0  0
   -0.5820    3.3490  -23.9660 C   0  0  0  0  0  0
   -0.0630    4.5490  -23.3190 C   0  0  0  0  0  0
   -2.0280    3.3720  -24.3480 C   0  0  0  0  0  0
    4.0680    1.2940  -22.7820 C   0  0  0  0  0  0
    4.9780    0.9000  -21.6290 C   0  0  2  0  0  0
    6.5860    2.4510  -22.0870 C   0  0  2  0  0  0
    4.9410    1.8650  -20.4330 C   0  0  0  0  0  0
   -2.3250    3.5760  -25.7760 C   0  0  0  0  0  0
   -1.6690    2.6790  -21.4160 C   0  0  0  0  0  0
   -0.6490    2.3120  -20.9010 C   0  0  0  0  0  0
   -0.9080    5.5860  -22.9590 F   0  0  0  0  0  0
   -3.8830    2.9290  -19.9210 F   0  0  0  0  0  0
    1.7280    5.8680  -22.4610 N   0  0  0  0  0  0
    3.9440    4.9370  -22.5180 N   0  0  0  0  0  0
    0.2440    2.4570  -24.3930 N   0  0  0  0  0  0
    4.3940    2.7570  -23.2000 N   0  0  0  0  0  0
    6.3940    0.9770  -22.0820 N   0  0  1  0  0  0
   -3.8170    3.8330  -27.5540 O   0  0  0  0  0  0
   -6.1118    3.5262  -20.9436 H   0  0  0  0  0  0
   -6.5435    3.9217  -23.3312 H   0  0  0  0  0  0
    5.4868    3.8359  -20.8228 H   0  0  0  0  0  0
    6.7231    2.8269  -19.9507 H   0  0  0  0  0  0
    6.2746    2.6474  -24.2121 H   0  0  0  0  0  0
    6.0102    4.1541  -23.2780 H   0  0  0  0  0  0
   -5.6961    4.0566  -25.6751 H   0  0  0  0  0  0
    2.1866    1.7097  -24.3552 H   0  0  0  0  0  0
    3.0183    1.2314  -22.4590 H   0  0  0  0  0  0
    4.2446    0.6219  -23.6347 H   0  0  0  0  0  0
    4.7439   -0.1222  -21.2970 H   0  0  0  0  0  0
    7.6560    2.7054  -22.1052 H   0  0  0  0  0  0
    3.9582    2.3574  -20.3926 H   0  0  0  0  0  0
    5.2214    1.3224  -19.5182 H   0  0  0  0  0  0
   -1.5411    3.5770  -26.5247 H   0  0  0  0  0  0
    0.2487    1.9891  -20.4482 H   0  0  0  0  0  0
    7.0270    0.4552  -21.3795 H   0  0  0  0  0  0
   -2.9643    3.7549  -27.9655 H   0  0  0  0  0  0
    4.4520   10.0310  -22.1350 F   0  0  0  0  0  0
    7.3450    9.3610  -21.4290 N   0  3  0  0  0  0
    5.4100    9.0250  -22.0520 C   0  0  0  0  0  0
    3.6010    7.2180  -21.7660 C   0  0  0  0  0  0
    6.7150    9.4160  -22.7850 C   0  0  0  0  0  0
    6.1080    8.9930  -20.6700 C   0  0  0  0  0  0
    4.8650    7.6650  -22.5270 C   0  0  0  0  0  0
    7.6229   10.2927  -21.1631 H   0  0  0  0  0  0
    7.9851    8.5828  -21.4010 H   0  0  0  0  0  0
    2.8285    7.9965  -21.8500 H   0  0  0  0  0  0
    3.8339    7.1210  -20.6953 H   0  0  0  0  0  0
    7.0538    8.5224  -23.3297 H   0  0  0  0  0  0
    6.6230   10.4797  -23.0499 H   0  0  0  0  0  0
    5.7859    9.8961  -20.1309 H   0  0  0  0  0  0
    6.2101    7.9342  -20.3898 H   0  0  0  0  0  0
    5.6474    6.8996  -22.4179 H   0  0  0  0  0  0
    4.6441    7.7160  -23.6034 H   0  0  0  0  0  0
  1  2  2  0  0  0
  1  3  1  0  0  0
  1 34  1  0  0  0
  2  6  1  0  0  0
  2 35  1  0  0  0
  3  5  2  0  0  0
  3 27  1  0  0  0
  4  5  1  0  0  0
  4  6  2  0  0  0
  4 18  1  0  0  0
  5 24  1  0  0  0
  6 10  1  0  0  0
  7 10  2  0  0  0
  7 23  1  0  0  0
  7 33  1  0  0  0
  8 21  1  0  0  0
  8 22  1  0  0  0
  8 36  1  0  0  0
  8 37  1  0  0  0
  9 21  1  0  0  0
  9 31  1  0  0  0
  9 38  1  0  0  0
  9 39  1  0  0  0
 10 40  1  0  0  0
 11 12  1  0  0  0
 11 14  2  0  0  0
 11 15  1  0  0  0
 12 17  1  0  0  0
 12 28  2  0  0  0
 13 28  1  0  0  0
 13 29  2  0  0  0
 13 55  1  0  0  0
 14 29  1  0  0  0
 14 31  1  0  0  0
 15 30  2  0  0  0
 15 41  1  0  0  0
 16 17  2  0  0  0
 16 18  1  0  0  0
 16 30  1  0  0  0
 17 26  1  0  0  0
 18 23  2  0  0  0
 19 20  1  0  0  0
 19 31  1  0  0  0
 19 42  1  0  0  0
 19 43  1  0  0  0
 20 22  1  0  0  0
 20 32  1  0  0  0
 20 44  1  0  0  0
 21 32  1  0  0  0
 21 45  1  0  0  0
 22 46  1  0  0  0
 22 47  1  0  0  0
 23 48  1  0  0  0
 24 25  3  0  0  0
 25 49  1  0  0  0
 32 50  1  0  0  0
 33 51  1  0  0  0
 52 54  1  0  0  0
 53 56  1  0  0  0
 53 57  1  0  0  0
 53 59  1  0  0  0
 53 60  1  0  0  0
 54 56  1  0  0  0
 54 57  1  0  0  0
 54 58  1  0  0  0
 55 58  1  0  0  0
 55 61  1  0  0  0
 55 62  1  0  0  0
 56 63  1  0  0  0
 56 64  1  0  0  0
 57 65  1  0  0  0
 57 66  1  0  0  0
 58 67  1  0  0  0
 58 68  1  0  0  0
M  CHG  1  53   1
M  END
> <s_m_entry_id>
176

> <s_m_entry_name>
000000018.1

> <s_m_Source_Path>
/Users/zaksoul/Documents/3r_UNI/2nd_SEMESTER/BSC/FRAG_RECON/RESULTS/2

> <s_m_Source_File>
000000018.mol2

> <i_m_Source_File_Index>
1

$$$$
No_0_19
                    3D
 Schrodinger Suite 2022-4.
 71 77  0  0  1  0            999 V2000
   -5.2550    3.4330  -22.2180 C   0  0  0  0  0  0
   -5.5060    3.6310  -23.5550 C   0  0  0  0  0  0
   -4.0240    3.1640  -21.8660 C   0  0  0  0  0  0
   -3.1090    3.2890  -24.0220 C   0  0  0  0  0  0
   -2.9660    3.0370  -22.6010 C   0  0  0  0  0  0
   -4.4480    3.5700  -24.5550 C   0  0  0  0  0  0
   -3.6700    3.5920  -26.7460 C   0  0  0  0  0  0
    5.9950    2.7210  -21.3860 C   0  0  0  0  0  0
    5.8840    2.8760  -23.9360 C   0  0  0  0  0  0
   -4.6840    3.7060  -25.8930 C   0  0  0  0  0  0
    2.1070    3.4690  -23.9890 C   0  0  0  0  0  0
    1.2960    4.5850  -23.6930 C   0  0  0  0  0  0
    3.1010    5.7570  -22.9900 C   0  0  0  0  0  0
    3.5060    3.6420  -23.6610 C   0  0  0  0  0  0
    1.5540    2.3610  -24.6600 C   0  0  0  0  0  0
   -0.5650    3.1990  -24.5680 C   0  0  0  0  0  0
   -0.0300    4.4100  -23.9580 C   0  0  0  0  0  0
   -2.0140    3.2230  -24.9370 C   0  0  0  0  0  0
    4.0790    1.1360  -23.3740 C   0  0  0  0  0  0
    4.9970    0.7640  -22.2190 C   0  0  2  0  0  0
    6.6130    2.2880  -22.7330 C   0  0  2  0  0  0
    4.9790    1.7600  -21.0480 C   0  0  0  0  0  0
   -2.3230    3.3930  -26.3670 C   0  0  0  0  0  0
   -1.6320    2.6050  -21.9910 C   0  0  0  0  0  0
   -0.6110    2.2430  -21.4760 C   0  0  0  0  0  0
   -0.8630    5.4630  -23.6170 F   0  0  0  0  0  0
   -3.8300    2.9130  -20.4830 F   0  0  0  0  0  0
    1.7810    5.7360  -23.1510 N   0  0  0  0  0  0
    3.9880    4.7850  -23.2050 N   0  0  0  0  0  0
    0.2500    2.2880  -24.9790 N   0  0  0  0  0  0
    4.4140    2.5840  -23.8330 N   0  0  0  0  0  0
    6.4090    0.8170  -22.6870 N   0  0  1  0  0  0
   -3.8290    3.6150  -28.1370 O   0  0  0  0  0  0
   -6.0638    3.5022  -21.4995 H   0  0  0  0  0  0
   -6.5147    3.8388  -23.8932 H   0  0  0  0  0  0
    5.5377    3.7154  -21.4960 H   0  0  0  0  0  0
    6.7733    2.7190  -20.6087 H   0  0  0  0  0  0
    6.2827    2.4309  -24.8595 H   0  0  0  0  0  0
    6.0404    3.9645  -23.9622 H   0  0  0  0  0  0
   -5.6887    3.9047  -26.2483 H   0  0  0  0  0  0
    2.1862    1.5261  -24.9400 H   0  0  0  0  0  0
    3.0323    1.0896  -23.0389 H   0  0  0  0  0  0
    4.2415    0.4395  -24.2098 H   0  0  0  0  0  0
    4.7578   -0.2471  -21.8578 H   0  0  0  0  0  0
    7.6848    2.5332  -22.7673 H   0  0  0  0  0  0
    4.0012    2.2625  -21.0117 H   0  0  0  0  0  0
    5.2638    1.2390  -20.1220 H   0  0  0  0  0  0
   -1.5458    3.3669  -27.1222 H   0  0  0  0  0  0
    0.2882    1.9249  -21.0229 H   0  0  0  0  0  0
    7.0437    0.3084  -21.9764 H   0  0  0  0  0  0
   -2.9811    3.5190  -28.5545 H   0  0  0  0  0  0
    8.7990    9.1090  -21.6480 N   0  3  0  0  0  0
    7.1260    8.0790  -21.0240 C   0  0  0  0  0  0
    5.7060    8.3050  -21.5790 C   0  0  0  0  0  0
    5.1140    6.9500  -21.9940 C   0  0  0  0  0  0
    7.8000    9.3950  -20.5720 C   0  0  0  0  0  0
    8.1830    7.8340  -22.1290 C   0  0  0  0  0  0
    3.6710    7.0880  -22.5100 C   0  0  0  0  0  0
    9.6859    8.8980  -21.2180 H   0  0  0  0  0  0
    8.7051    9.8066  -22.3696 H   0  0  0  0  0  0
    7.1520    7.3054  -20.2424 H   0  0  0  0  0  0
    5.7560    8.9675  -22.4557 H   0  0  0  0  0  0
    5.0763    8.7568  -20.7984 H   0  0  0  0  0  0
    5.1320    6.2641  -21.1342 H   0  0  0  0  0  0
    5.7421    6.5020  -22.7781 H   0  0  0  0  0  0
    7.1671   10.2178  -20.9359 H   0  0  0  0  0  0
    8.2968    9.1851  -19.6133 H   0  0  0  0  0  0
    8.8292    7.0168  -21.7759 H   0  0  0  0  0  0
    7.6963    8.0589  -23.0895 H   0  0  0  0  0  0
    3.6450    7.8155  -23.3346 H   0  0  0  0  0  0
    3.0333    7.4908  -21.7093 H   0  0  0  0  0  0
  1  2  2  0  0  0
  1  3  1  0  0  0
  1 34  1  0  0  0
  2  6  1  0  0  0
  2 35  1  0  0  0
  3  5  2  0  0  0
  3 27  1  0  0  0
  4  5  1  0  0  0
  4  6  2  0  0  0
  4 18  1  0  0  0
  5 24  1  0  0  0
  6 10  1  0  0  0
  7 10  2  0  0  0
  7 23  1  0  0  0
  7 33  1  0  0  0
  8 21  1  0  0  0
  8 22  1  0  0  0
  8 36  1  0  0  0
  8 37  1  0  0  0
  9 21  1  0  0  0
  9 31  1  0  0  0
  9 38  1  0  0  0
  9 39  1  0  0  0
 10 40  1  0  0  0
 11 12  1  0  0  0
 11 14  2  0  0  0
 11 15  1  0  0  0
 12 17  1  0  0  0
 12 28  2  0  0  0
 13 28  1  0  0  0
 13 29  2  0  0  0
 13 58  1  0  0  0
 14 29  1  0  0  0
 14 31  1  0  0  0
 15 30  2  0  0  0
 15 41  1  0  0  0
 16 17  2  0  0  0
 16 18  1  0  0  0
 16 30  1  0  0  0
 17 26  1  0  0  0
 18 23  2  0  0  0
 19 20  1  0  0  0
 19 31  1  0  0  0
 19 42  1  0  0  0
 19 43  1  0  0  0
 20 22  1  0  0  0
 20 32  1  0  0  0
 20 44  1  0  0  0
 21 32  1  0  0  0
 21 45  1  0  0  0
 22 46  1  0  0  0
 22 47  1  0  0  0
 23 48  1  0  0  0
 24 25  3  0  0  0
 25 49  1  0  0  0
 32 50  1  0  0  0
 33 51  1  0  0  0
 52 56  1  0  0  0
 52 57  1  0  0  0
 52 59  1  0  0  0
 52 60  1  0  0  0
 53 54  1  0  0  0
 53 56  1  0  0  0
 53 57  1  0  0  0
 53 61  1  0  0  0
 54 55  1  0  0  0
 54 62  1  0  0  0
 54 63  1  0  0  0
 55 58  1  0  0  0
 55 64  1  0  0  0
 55 65  1  0  0  0
 56 66  1  0  0  0
 56 67  1  0  0  0
 57 68  1  0  0  0
 57 69  1  0  0  0
 58 70  1  0  0  0
 58 71  1  0  0  0
M  CHG  1  52   1
M  END
> <s_m_entry_id>
177

> <s_m_entry_name>
000000019.1

> <s_m_Source_Path>
/Users/zaksoul/Documents/3r_UNI/2nd_SEMESTER/BSC/FRAG_RECON/RESULTS/2

> <s_m_Source_File>
000000019.mol2

> <i_m_Source_File_Index>
1

$$$$
No_0_20
                    3D
 Schrodinger Suite 2022-4.
 71 77  0  0  1  0            999 V2000
   -5.4020    3.4700  -22.0160 C   0  0  0  0  0  0
   -5.6400    3.6890  -23.3520 C   0  0  0  0  0  0
   -4.1730    3.1990  -21.6560 C   0  0  0  0  0  0
   -3.2380    3.3640  -23.8000 C   0  0  0  0  0  0
   -3.1070    3.0880  -22.3820 C   0  0  0  0  0  0
   -4.5720    3.6490  -24.3420 C   0  0  0  0  0  0
   -3.7730    3.7100  -26.5240 C   0  0  0  0  0  0
    5.8420    2.7820  -21.0840 C   0  0  0  0  0  0
    5.7560    2.9790  -23.6320 C   0  0  0  0  0  0
   -4.7960    3.8060  -25.6790 C   0  0  0  0  0  0
    1.9770    3.5600  -23.7130 C   0  0  0  0  0  0
    1.1590    4.6690  -23.4060 C   0  0  0  0  0  0
    2.9530    5.8340  -22.6660 C   0  0  0  0  0  0
    3.3720    3.7320  -23.3680 C   0  0  0  0  0  0
    1.4350    2.4610  -24.4080 C   0  0  0  0  0  0
   -0.6880    3.2900  -24.3220 C   0  0  0  0  0  0
   -0.1630    4.4930  -23.6870 C   0  0  0  0  0  0
   -2.1330    3.3160  -24.7050 C   0  0  0  0  0  0
    3.9520    1.2230  -23.1170 C   0  0  0  0  0  0
    4.8590    0.8350  -21.9600 C   0  0  2  0  0  0
    6.4750    2.3730  -22.4320 C   0  0  2  0  0  0
    4.8260    1.8120  -20.7730 C   0  0  0  0  0  0
   -2.4290    3.5090  -26.1350 C   0  0  0  0  0  0
   -1.7790    2.6500  -21.7660 C   0  0  0  0  0  0
   -0.7610    2.2830  -21.2480 C   0  0  0  0  0  0
   -1.0030    5.5380  -23.3370 F   0  0  0  0  0  0
   -3.9920    2.9260  -20.2750 F   0  0  0  0  0  0
    1.6350    5.8120  -22.8410 N   0  0  0  0  0  0
    3.8460    4.8690  -22.8880 N   0  0  0  0  0  0
    0.1340    2.3900  -24.7410 N   0  0  0  0  0  0
    4.2850    2.6800  -23.5490 N   0  0  0  0  0  0
    6.2760    0.9010  -22.4130 N   0  0  1  0  0  0
   -3.9180    3.7560  -27.9160 O   0  0  0  0  0  0
   -6.2174    3.5252  -21.3039 H   0  0  0  0  0  0
   -6.6460    3.8998  -23.6964 H   0  0  0  0  0  0
    5.3817    3.7763  -21.1819 H   0  0  0  0  0  0
    6.6127    2.7689  -20.2992 H   0  0  0  0  0  0
    6.1647    2.5512  -24.5593 H   0  0  0  0  0  0
    5.9083    4.0684  -23.6391 H   0  0  0  0  0  0
   -5.7977    4.0067  -26.0413 H   0  0  0  0  0  0
    2.0726    1.6327  -24.6952 H   0  0  0  0  0  0
    2.9021    1.1685  -22.7933 H   0  0  0  0  0  0
    4.1246    0.5415  -23.9630 H   0  0  0  0  0  0
    4.6197   -0.1827  -21.6178 H   0  0  0  0  0  0
    7.5462    2.6221  -22.4522 H   0  0  0  0  0  0
    3.8457    2.3097  -20.7377 H   0  0  0  0  0  0
    5.1034    1.2764  -19.8531 H   0  0  0  0  0  0
   -1.6447    3.4990  -26.8832 H   0  0  0  0  0  0
    0.1347    1.9601  -20.7912 H   0  0  0  0  0  0
    6.9050    0.3822  -21.7048 H   0  0  0  0  0  0
   -3.0657    3.6699  -28.3268 H   0  0  0  0  0  0
    8.5400    9.5810  -22.1560 N   0  3  0  0  0  0
    7.1280    8.3300  -21.3240 C   0  0  0  0  0  0
    5.6070    8.4700  -21.5350 C   0  0  0  0  0  0
    5.0410    7.1130  -21.9790 C   0  0  0  0  0  0
    7.7840    9.6540  -20.8660 C   0  0  0  0  0  0
    7.9300    8.3070  -22.6480 C   0  0  0  0  0  0
    3.5140    7.1580  -22.1580 C   0  0  0  0  0  0
    9.5132    9.4160  -21.9520 H   0  0  0  0  0  0
    8.2370   10.3361  -22.7511 H   0  0  0  0  0  0
    7.3831    7.4865  -20.6656 H   0  0  0  0  0  0
    5.4130    9.2210  -22.3150 H   0  0  0  0  0  0
    5.1330    8.7740  -20.5900 H   0  0  0  0  0  0
    5.2989    6.3474  -21.2324 H   0  0  0  0  0  0
    5.5121    6.8119  -22.9263 H   0  0  0  0  0  0
    7.0265   10.4425  -20.9861 H   0  0  0  0  0  0
    8.4949    9.3961  -20.0672 H   0  0  0  0  0  0
    8.6972    7.5258  -22.5420 H   0  0  0  0  0  0
    7.2282    8.5799  -23.4498 H   0  0  0  0  0  0
    3.2521    7.9608  -22.8629 H   0  0  0  0  0  0
    3.0403    7.4129  -21.1985 H   0  0  0  0  0  0
  1  2  2  0  0  0
  1  3  1  0  0  0
  1 34  1  0  0  0
  2  6  1  0  0  0
  2 35  1  0  0  0
  3  5  2  0  0  0
  3 27  1  0  0  0
  4  5  1  0  0  0
  4  6  2  0  0  0
  4 18  1  0  0  0
  5 24  1  0  0  0
  6 10  1  0  0  0
  7 10  2  0  0  0
  7 23  1  0  0  0
  7 33  1  0  0  0
  8 21  1  0  0  0
  8 22  1  0  0  0
  8 36  1  0  0  0
  8 37  1  0  0  0
  9 21  1  0  0  0
  9 31  1  0  0  0
  9 38  1  0  0  0
  9 39  1  0  0  0
 10 40  1  0  0  0
 11 12  1  0  0  0
 11 14  2  0  0  0
 11 15  1  0  0  0
 12 17  1  0  0  0
 12 28  2  0  0  0
 13 28  1  0  0  0
 13 29  2  0  0  0
 13 58  1  0  0  0
 14 29  1  0  0  0
 14 31  1  0  0  0
 15 30  2  0  0  0
 15 41  1  0  0  0
 16 17  2  0  0  0
 16 18  1  0  0  0
 16 30  1  0  0  0
 17 26  1  0  0  0
 18 23  2  0  0  0
 19 20  1  0  0  0
 19 31  1  0  0  0
 19 42  1  0  0  0
 19 43  1  0  0  0
 20 22  1  0  0  0
 20 32  1  0  0  0
 20 44  1  0  0  0
 21 32  1  0  0  0
 21 45  1  0  0  0
 22 46  1  0  0  0
 22 47  1  0  0  0
 23 48  1  0  0  0
 24 25  3  0  0  0
 25 49  1  0  0  0
 32 50  1  0  0  0
 33 51  1  0  0  0
 52 56  1  0  0  0
 52 57  1  0  0  0
 52 59  1  0  0  0
 52 60  1  0  0  0
 53 54  1  0  0  0
 53 56  1  0  0  0
 53 57  1  0  0  0
 53 61  1  0  0  0
 54 55  1  0  0  0
 54 62  1  0  0  0
 54 63  1  0  0  0
 55 58  1  0  0  0
 55 64  1  0  0  0
 55 65  1  0  0  0
 56 66  1  0  0  0
 56 67  1  0  0  0
 57 68  1  0  0  0
 57 69  1  0  0  0
 58 70  1  0  0  0
 58 71  1  0  0  0
M  CHG  1  52   1
M  END
> <s_m_entry_id>
178

> <s_m_entry_name>
000000020.1

> <s_m_Source_Path>
/Users/zaksoul/Documents/3r_UNI/2nd_SEMESTER/BSC/FRAG_RECON/RESULTS/2

> <s_m_Source_File>
000000020.mol2

> <i_m_Source_File_Index>
1

$$$$
No_0_21
                    3D
 Schrodinger Suite 2022-4.
 71 77  0  0  1  0            999 V2000
   -5.4320    3.5720  -22.0520 C   0  0  0  0  0  0
   -5.6640    3.7760  -23.3920 C   0  0  0  0  0  0
   -4.2070    3.2920  -21.6860 C   0  0  0  0  0  0
   -3.2650    3.4170  -23.8300 C   0  0  0  0  0  0
   -3.1410    3.1590  -22.4080 C   0  0  0  0  0  0
   -4.5950    3.7100  -24.3790 C   0  0  0  0  0  0
   -3.7910    3.7320  -26.5600 C   0  0  0  0  0  0
    5.8020    2.7680  -21.0850 C   0  0  0  0  0  0
    5.7230    2.9310  -23.6360 C   0  0  0  0  0  0
   -4.8140    3.8520  -25.7190 C   0  0  0  0  0  0
    1.9510    3.5540  -23.7330 C   0  0  0  0  0  0
    1.1460    4.6760  -23.4440 C   0  0  0  0  0  0
    2.9520    5.8310  -22.7150 C   0  0  0  0  0  0
    3.3480    3.7150  -23.3870 C   0  0  0  0  0  0
    1.3980    2.4530  -24.4150 C   0  0  0  0  0  0
   -0.7150    3.3070  -24.3450 C   0  0  0  0  0  0
   -0.1780    4.5130  -23.7250 C   0  0  0  0  0  0
   -2.1590    3.3450  -24.7320 C   0  0  0  0  0  0
    3.8980    1.2040  -23.1010 C   0  0  0  0  0  0
    4.7980    0.8210  -21.9370 C   0  0  2  0  0  0
    6.4330    2.3340  -22.4260 C   0  0  2  0  0  0
    4.7740    1.8140  -20.7630 C   0  0  0  0  0  0
   -2.4490    3.5210  -26.1650 C   0  0  0  0  0  0
   -1.8190    2.7150  -21.7830 C   0  0  0  0  0  0
   -0.8060    2.3430  -21.2570 C   0  0  0  0  0  0
   -1.0060    5.5720  -23.3920 F   0  0  0  0  0  0
   -4.0320    3.0360  -20.3010 F   0  0  0  0  0  0
    1.6340    5.8220  -22.8930 N   0  0  0  0  0  0
    3.8340    4.8530  -22.9220 N   0  0  0  0  0  0
    0.0980    2.3910  -24.7500 N   0  0  0  0  0  0
    4.2490    2.6500  -23.5520 N   0  0  0  0  0  0
    6.2170    0.8640  -22.3870 N   0  0  1  0  0  0
   -3.9320    3.7610  -27.9530 O   0  0  0  0  0  0
   -6.2485    3.6463  -21.3429 H   0  0  0  0  0  0
   -6.6668    3.9938  -23.7413 H   0  0  0  0  0  0
    5.3530    3.7659  -21.1970 H   0  0  0  0  0  0
    6.5712    2.7569  -20.2987 H   0  0  0  0  0  0
    6.1299    2.4857  -24.5559 H   0  0  0  0  0  0
    5.8884    4.0183  -23.6572 H   0  0  0  0  0  0
   -5.8128    4.0598  -26.0854 H   0  0  0  0  0  0
    2.0273    1.6140  -24.6890 H   0  0  0  0  0  0
    2.8468    1.1657  -22.7792 H   0  0  0  0  0  0
    4.0644    0.5090  -23.9372 H   0  0  0  0  0  0
    4.5457   -0.1891  -21.5818 H   0  0  0  0  0  0
    7.5071    2.5702  -22.4472 H   0  0  0  0  0  0
    3.7994    2.3235  -20.7378 H   0  0  0  0  0  0
    5.0434    1.2873  -19.8357 H   0  0  0  0  0  0
   -1.6635    3.4919  -26.9114 H   0  0  0  0  0  0
    0.0847    2.0157  -20.7936 H   0  0  0  0  0  0
    6.8384    0.3474  -21.6704 H   0  0  0  0  0  0
   -3.0796    3.6590  -28.3599 H   0  0  0  0  0  0
    8.2570    9.9790  -23.1040 N   0  3  0  0  0  0
    7.1530    8.5580  -22.1000 C   0  0  0  0  0  0
    5.6180    8.5860  -21.9590 C   0  0  0  0  0  0
    5.0550    7.2240  -22.3890 C   0  0  0  0  0  0
    7.8090    9.8930  -21.6790 C   0  0  0  0  0  0
    7.6350    8.7000  -23.5650 C   0  0  0  0  0  0
    3.5260    7.1560  -22.2240 C   0  0  0  0  0  0
    9.2598    9.8810  -23.1340 H   0  0  0  0  0  0
    7.7801   10.7488  -23.5469 H   0  0  0  0  0  0
    7.6030    7.6911  -21.5940 H   0  0  0  0  0  0
    5.2048    9.3744  -22.6053 H   0  0  0  0  0  0
    5.3511    8.7779  -20.9093 H   0  0  0  0  0  0
    5.5233    6.4286  -21.7907 H   0  0  0  0  0  0
    5.3181    7.0350  -23.4402 H   0  0  0  0  0  0
    6.9956   10.6234  -21.5569 H   0  0  0  0  0  0
    8.6966    9.6361  -21.0822 H   0  0  0  0  0  0
    8.4543    7.9787  -23.7011 H   0  0  0  0  0  0
    6.7538    8.9731  -24.1641 H   0  0  0  0  0  0
    3.0608    7.9844  -22.7783 H   0  0  0  0  0  0
    3.2661    7.2969  -21.1645 H   0  0  0  0  0  0
  1  2  2  0  0  0
  1  3  1  0  0  0
  1 34  1  0  0  0
  2  6  1  0  0  0
  2 35  1  0  0  0
  3  5  2  0  0  0
  3 27  1  0  0  0
  4  5  1  0  0  0
  4  6  2  0  0  0
  4 18  1  0  0  0
  5 24  1  0  0  0
  6 10  1  0  0  0
  7 10  2  0  0  0
  7 23  1  0  0  0
  7 33  1  0  0  0
  8 21  1  0  0  0
  8 22  1  0  0  0
  8 36  1  0  0  0
  8 37  1  0  0  0
  9 21  1  0  0  0
  9 31  1  0  0  0
  9 38  1  0  0  0
  9 39  1  0  0  0
 10 40  1  0  0  0
 11 12  1  0  0  0
 11 14  2  0  0  0
 11 15  1  0  0  0
 12 17  1  0  0  0
 12 28  2  0  0  0
 13 28  1  0  0  0
 13 29  2  0  0  0
 13 58  1  0  0  0
 14 29  1  0  0  0
 14 31  1  0  0  0
 15 30  2  0  0  0
 15 41  1  0  0  0
 16 17  2  0  0  0
 16 18  1  0  0  0
 16 30  1  0  0  0
 17 26  1  0  0  0
 18 23  2  0  0  0
 19 20  1  0  0  0
 19 31  1  0  0  0
 19 42  1  0  0  0
 19 43  1  0  0  0
 20 22  1  0  0  0
 20 32  1  0  0  0
 20 44  1  0  0  0
 21 32  1  0  0  0
 21 45  1  0  0  0
 22 46  1  0  0  0
 22 47  1  0  0  0
 23 48  1  0  0  0
 24 25  3  0  0  0
 25 49  1  0  0  0
 32 50  1  0  0  0
 33 51  1  0  0  0
 52 56  1  0  0  0
 52 57  1  0  0  0
 52 59  1  0  0  0
 52 60  1  0  0  0
 53 54  1  0  0  0
 53 56  1  0  0  0
 53 57  1  0  0  0
 53 61  1  0  0  0
 54 55  1  0  0  0
 54 62  1  0  0  0
 54 63  1  0  0  0
 55 58  1  0  0  0
 55 64  1  0  0  0
 55 65  1  0  0  0
 56 66  1  0  0  0
 56 67  1  0  0  0
 57 68  1  0  0  0
 57 69  1  0  0  0
 58 70  1  0  0  0
 58 71  1  0  0  0
M  CHG  1  52   1
M  END
> <s_m_entry_id>
179

> <s_m_entry_name>
000000021.1

> <s_m_Source_Path>
/Users/zaksoul/Documents/3r_UNI/2nd_SEMESTER/BSC/FRAG_RECON/RESULTS/2

> <s_m_Source_File>
000000021.mol2

> <i_m_Source_File_Index>
1

$$$$
No_0_22
                    3D
 Schrodinger Suite 2022-4.
 71 77  0  0  1  0            999 V2000
   -5.1100    3.6880  -21.9720 C   0  0  0  0  0  0
   -5.3610    3.9300  -23.3020 C   0  0  0  0  0  0
   -3.8780    3.4070  -21.6300 C   0  0  0  0  0  0
   -2.9640    3.6050  -23.7810 C   0  0  0  0  0  0
   -2.8200    3.3050  -22.3690 C   0  0  0  0  0  0
   -4.3040    3.9030  -24.3040 C   0  0  0  0  0  0
   -3.5270    3.9990  -26.4920 C   0  0  0  0  0  0
    6.1410    2.9490  -21.1690 C   0  0  0  0  0  0
    6.0290    3.1900  -23.7130 C   0  0  0  0  0  0
   -4.5410    4.0840  -25.6360 C   0  0  0  0  0  0
    2.2510    3.7830  -23.7440 C   0  0  0  0  0  0
    1.4400    4.8890  -23.4100 C   0  0  0  0  0  0
    3.2460    6.0370  -22.6690 C   0  0  0  0  0  0
    3.6510    3.9450  -23.4110 C   0  0  0  0  0  0
    1.6980    2.6990  -24.4520 C   0  0  0  0  0  0
   -0.4200    3.5330  -24.3300 C   0  0  0  0  0  0
    0.1150    4.7230  -23.6800 C   0  0  0  0  0  0
   -1.8700    3.5690  -24.6980 C   0  0  0  0  0  0
    4.2240    1.4310  -23.2090 C   0  0  0  0  0  0
    5.1430    1.0210  -22.0680 C   0  0  2  0  0  0
    6.7590    2.5610  -22.5310 C   0  0  2  0  0  0
    5.1250    1.9770  -20.8640 C   0  0  0  0  0  0
   -2.1790    3.7870  -26.1210 C   0  0  0  0  0  0
   -1.4870    2.8530  -21.7740 C   0  0  0  0  0  0
   -0.4650    2.4740  -21.2730 C   0  0  0  0  0  0
   -0.7180    5.7640  -23.3040 F   0  0  0  0  0  0
   -3.6840    3.1100  -20.2560 F   0  0  0  0  0  0
    1.9260    6.0210  -22.8310 N   0  0  0  0  0  0
    4.1330    5.0720  -22.9170 N   0  0  0  0  0  0
    0.3940    2.6360  -24.7730 N   0  0  0  0  0  0
    4.5580    2.8940  -23.6190 N   0  0  0  0  0  0
    6.5550    1.0890  -22.5350 N   0  0  1  0  0  0
   -3.6860    4.0690  -27.8820 O   0  0  0  0  0  0
   -5.9183    3.7332  -21.2511 H   0  0  0  0  0  0
   -6.3701    4.1499  -23.6313 H   0  0  0  0  0  0
    5.6828    3.9461  -21.2457 H   0  0  0  0  0  0
    6.9201    2.9207  -20.3930 H   0  0  0  0  0  0
    6.4278    2.7761  -24.6509 H   0  0  0  0  0  0
    6.1854    4.2788  -23.7029 H   0  0  0  0  0  0
   -5.5461    4.2939  -25.9834 H   0  0  0  0  0  0
    2.3298    1.8737  -24.7599 H   0  0  0  0  0  0
    3.1775    1.3735  -22.8750 H   0  0  0  0  0  0
    4.3865    0.7630  -24.0677 H   0  0  0  0  0  0
    4.9030   -0.0016  -21.7413 H   0  0  0  0  0  0
    7.8307    2.8072  -22.5582 H   0  0  0  0  0  0
    4.1470    2.4776  -20.8105 H   0  0  0  0  0  0
    5.4105    1.4253  -19.9562 H   0  0  0  0  0  0
   -1.4025    3.7870  -26.8774 H   0  0  0  0  0  0
    0.4340    2.1400  -20.8310 H   0  0  0  0  0  0
    7.1899    0.5578  -21.8413 H   0  0  0  0  0  0
   -2.8383    3.9868  -28.3029 H   0  0  0  0  0  0
    7.9560   10.7570  -23.6880 N   0  3  0  0  0  0
    7.2420    9.1170  -22.6650 C   0  0  0  0  0  0
    5.7900    8.9610  -22.1720 C   0  0  0  0  0  0
    5.2490    7.6040  -22.6460 C   0  0  0  0  0  0
    7.8740   10.4580  -22.2250 C   0  0  0  0  0  0
    7.3430    9.4790  -24.1670 C   0  0  0  0  0  0
    3.8160    7.3500  -22.1450 C   0  0  0  0  0  0
    8.9259   10.7730  -23.9620 H   0  0  0  0  0  0
    7.3271   11.5159  -23.8990 H   0  0  0  0  0  0
    7.8686    8.2526  -22.4002 H   0  0  0  0  0  0
    5.1717    9.7684  -22.5912 H   0  0  0  0  0  0
    5.7710    8.9990  -21.0728 H   0  0  0  0  0  0
    5.9092    6.8008  -22.2869 H   0  0  0  0  0  0
    5.2640    7.5670  -23.7453 H   0  0  0  0  0  0
    7.0589   11.0751  -21.8190 H   0  0  0  0  0  0
    8.8968   10.2320  -21.8891 H   0  0  0  0  0  0
    8.1599    8.8731  -24.5860 H   0  0  0  0  0  0
    6.3246    9.7221  -24.5041 H   0  0  0  0  0  0
    3.1672    8.1817  -22.4569 H   0  0  0  0  0  0
    3.8100    7.3390  -21.0451 H   0  0  0  0  0  0
  1  2  2  0  0  0
  1  3  1  0  0  0
  1 34  1  0  0  0
  2  6  1  0  0  0
  2 35  1  0  0  0
  3  5  2  0  0  0
  3 27  1  0  0  0
  4  5  1  0  0  0
  4  6  2  0  0  0
  4 18  1  0  0  0
  5 24  1  0  0  0
  6 10  1  0  0  0
  7 10  2  0  0  0
  7 23  1  0  0  0
  7 33  1  0  0  0
  8 21  1  0  0  0
  8 22  1  0  0  0
  8 36  1  0  0  0
  8 37  1  0  0  0
  9 21  1  0  0  0
  9 31  1  0  0  0
  9 38  1  0  0  0
  9 39  1  0  0  0
 10 40  1  0  0  0
 11 12  1  0  0  0
 11 14  2  0  0  0
 11 15  1  0  0  0
 12 17  1  0  0  0
 12 28  2  0  0  0
 13 28  1  0  0  0
 13 29  2  0  0  0
 13 58  1  0  0  0
 14 29  1  0  0  0
 14 31  1  0  0  0
 15 30  2  0  0  0
 15 41  1  0  0  0
 16 17  2  0  0  0
 16 18  1  0  0  0
 16 30  1  0  0  0
 17 26  1  0  0  0
 18 23  2  0  0  0
 19 20  1  0  0  0
 19 31  1  0  0  0
 19 42  1  0  0  0
 19 43  1  0  0  0
 20 22  1  0  0  0
 20 32  1  0  0  0
 20 44  1  0  0  0
 21 32  1  0  0  0
 21 45  1  0  0  0
 22 46  1  0  0  0
 22 47  1  0  0  0
 23 48  1  0  0  0
 24 25  3  0  0  0
 25 49  1  0  0  0
 32 50  1  0  0  0
 33 51  1  0  0  0
 52 56  1  0  0  0
 52 57  1  0  0  0
 52 59  1  0  0  0
 52 60  1  0  0  0
 53 54  1  0  0  0
 53 56  1  0  0  0
 53 57  1  0  0  0
 53 61  1  0  0  0
 54 55  1  0  0  0
 54 62  1  0  0  0
 54 63  1  0  0  0
 55 58  1  0  0  0
 55 64  1  0  0  0
 55 65  1  0  0  0
 56 66  1  0  0  0
 56 67  1  0  0  0
 57 68  1  0  0  0
 57 69  1  0  0  0
 58 70  1  0  0  0
 58 71  1  0  0  0
M  CHG  1  52   1
M  END
> <s_m_entry_id>
180

> <s_m_entry_name>
000000022.1

> <s_m_Source_Path>
/Users/zaksoul/Documents/3r_UNI/2nd_SEMESTER/BSC/FRAG_RECON/RESULTS/2

> <s_m_Source_File>
000000022.mol2

> <i_m_Source_File_Index>
1

$$$$
No_0_23
                    3D
 Schrodinger Suite 2022-4.
 71 77  0  0  1  0            999 V2000
   -5.3780    3.3180  -21.5630 C   0  0  0  0  0  0
   -5.6490    3.5380  -22.8920 C   0  0  0  0  0  0
   -4.1310    3.1020  -21.2270 C   0  0  0  0  0  0
   -3.2420    3.3310  -23.3850 C   0  0  0  0  0  0
   -3.0740    3.0480  -21.9720 C   0  0  0  0  0  0
   -4.5980    3.5570  -23.9010 C   0  0  0  0  0  0
   -3.8410    3.6780  -26.0950 C   0  0  0  0  0  0
    5.9010    3.1550  -20.8300 C   0  0  0  0  0  0
    5.7610    3.3720  -23.3740 C   0  0  0  0  0  0
   -4.8520    3.7170  -25.2320 C   0  0  0  0  0  0
    1.9580    3.7730  -23.3840 C   0  0  0  0  0  0
    1.0940    4.8390  -23.0520 C   0  0  0  0  0  0
    2.8440    6.0820  -22.3310 C   0  0  0  0  0  0
    3.3490    4.0080  -23.0610 C   0  0  0  0  0  0
    1.4560    2.6570  -24.0820 C   0  0  0  0  0  0
   -0.7010    3.3840  -23.9510 C   0  0  0  0  0  0
   -0.2230    4.6040  -23.3130 C   0  0  0  0  0  0
   -2.1530    3.3450  -24.3090 C   0  0  0  0  0  0
    4.0510    1.5280  -22.8470 C   0  0  0  0  0  0
    4.9960    1.1720  -21.7090 C   0  0  2  0  0  0
    6.5290    2.7900  -22.1930 C   0  0  2  0  0  0
    4.9380    2.1350  -20.5110 C   0  0  0  0  0  0
   -2.4820    3.5360  -25.7320 C   0  0  0  0  0  0
   -1.7160    2.6690  -21.3840 C   0  0  0  0  0  0
   -0.6730    2.3450  -20.8860 C   0  0  0  0  0  0
   -1.1050    5.6040  -22.9380 F   0  0  0  0  0  0
   -3.9130    2.8240  -19.8520 F   0  0  0  0  0  0
    1.5250    5.9980  -22.4830 N   0  0  0  0  0  0
    3.7770    5.1620  -22.5790 N   0  0  0  0  0  0
    0.1550    2.5270  -24.3930 N   0  0  0  0  0  0
    4.3080    3.0030  -23.2690 N   0  0  0  0  0  0
    6.4000    1.3090  -22.1860 N   0  0  1  0  0  0
   -4.0130    3.7290  -27.4840 O   0  0  0  0  0  0
   -6.1822    3.3270  -20.8361 H   0  0  0  0  0  0
   -6.6697    3.7036  -23.2172 H   0  0  0  0  0  0
    5.3931    4.1274  -20.9098 H   0  0  0  0  0  0
    6.6853    3.1711  -20.0589 H   0  0  0  0  0  0
    6.1736    2.9725  -24.3122 H   0  0  0  0  0  0
    5.8620    4.4674  -23.3720 H   0  0  0  0  0  0
   -5.8683    3.8735  -25.5751 H   0  0  0  0  0  0
    2.1275    1.8630  -24.3881 H   0  0  0  0  0  0
    3.0108    1.4200  -22.5060 H   0  0  0  0  0  0
    4.2417    0.8632  -23.7024 H   0  0  0  0  0  0
    4.8102    0.1409  -21.3737 H   0  0  0  0  0  0
    7.5868    3.0898  -22.2283 H   0  0  0  0  0  0
    3.9359    2.5851  -20.4545 H   0  0  0  0  0  0
    5.2569    1.6042  -19.6018 H   0  0  0  0  0  0
   -1.7114    3.5711  -26.4936 H   0  0  0  0  0  0
    0.2450    2.0610  -20.4480 H   0  0  0  0  0  0
    7.0651    0.8150  -21.4931 H   0  0  0  0  0  0
   -3.1651    3.6874  -27.9104 H   0  0  0  0  0  0
    6.5360   11.5030  -23.9050 N   0  3  0  0  0  0
    6.3010    9.7090  -22.9180 C   0  0  0  0  0  0
    5.0400    9.3080  -22.1280 C   0  0  0  0  0  0
    4.5780    7.9210  -22.6020 C   0  0  0  0  0  0
    6.8430   11.0960  -22.4990 C   0  0  0  0  0  0
    5.9950   10.1850  -24.3590 C   0  0  0  0  0  0
    3.3500    7.4260  -21.8190 C   0  0  0  0  0  0
    7.4033   11.6801  -24.3872 H   0  0  0  0  0  0
    5.7840   12.1740  -23.8910 H   0  0  0  0  0  0
    7.0781    8.9309  -22.8900 H   0  0  0  0  0  0
    4.2419   10.0421  -22.3130 H   0  0  0  0  0  0
    5.2771    9.2680  -21.0546 H   0  0  0  0  0  0
    5.4020    7.2020  -22.4840 H   0  0  0  0  0  0
    4.3369    7.9630  -23.6744 H   0  0  0  0  0  0
    6.0757   11.5572  -21.8598 H   0  0  0  0  0  0
    7.9365   11.0010  -22.4270 H   0  0  0  0  0  0
    6.7586    9.7352  -25.0106 H   0  0  0  0  0  0
    4.9032   10.2971  -24.4321 H   0  0  0  0  0  0
    2.5450    8.1720  -21.8920 H   0  0  0  0  0  0
    3.6070    7.3390  -20.7530 H   0  0  0  0  0  0
  1  2  2  0  0  0
  1  3  1  0  0  0
  1 34  1  0  0  0
  2  6  1  0  0  0
  2 35  1  0  0  0
  3  5  2  0  0  0
  3 27  1  0  0  0
  4  5  1  0  0  0
  4  6  2  0  0  0
  4 18  1  0  0  0
  5 24  1  0  0  0
  6 10  1  0  0  0
  7 10  2  0  0  0
  7 23  1  0  0  0
  7 33  1  0  0  0
  8 21  1  0  0  0
  8 22  1  0  0  0
  8 36  1  0  0  0
  8 37  1  0  0  0
  9 21  1  0  0  0
  9 31  1  0  0  0
  9 38  1  0  0  0
  9 39  1  0  0  0
 10 40  1  0  0  0
 11 12  1  0  0  0
 11 14  2  0  0  0
 11 15  1  0  0  0
 12 17  1  0  0  0
 12 28  2  0  0  0
 13 28  1  0  0  0
 13 29  2  0  0  0
 13 58  1  0  0  0
 14 29  1  0  0  0
 14 31  1  0  0  0
 15 30  2  0  0  0
 15 41  1  0  0  0
 16 17  2  0  0  0
 16 18  1  0  0  0
 16 30  1  0  0  0
 17 26  1  0  0  0
 18 23  2  0  0  0
 19 20  1  0  0  0
 19 31  1  0  0  0
 19 42  1  0  0  0
 19 43  1  0  0  0
 20 22  1  0  0  0
 20 32  1  0  0  0
 20 44  1  0  0  0
 21 32  1  0  0  0
 21 45  1  0  0  0
 22 46  1  0  0  0
 22 47  1  0  0  0
 23 48  1  0  0  0
 24 25  3  0  0  0
 25 49  1  0  0  0
 32 50  1  0  0  0
 33 51  1  0  0  0
 52 56  1  0  0  0
 52 57  1  0  0  0
 52 59  1  0  0  0
 52 60  1  0  0  0
 53 54  1  0  0  0
 53 56  1  0  0  0
 53 57  1  0  0  0
 53 61  1  0  0  0
 54 55  1  0  0  0
 54 62  1  0  0  0
 54 63  1  0  0  0
 55 58  1  0  0  0
 55 64  1  0  0  0
 55 65  1  0  0  0
 56 66  1  0  0  0
 56 67  1  0  0  0
 57 68  1  0  0  0
 57 69  1  0  0  0
 58 70  1  0  0  0
 58 71  1  0  0  0
M  CHG  1  52   1
M  END
> <s_m_entry_id>
181

> <s_m_entry_name>
000000023.1

> <s_m_Source_Path>
/Users/zaksoul/Documents/3r_UNI/2nd_SEMESTER/BSC/FRAG_RECON/RESULTS/2

> <s_m_Source_File>
000000023.mol2

> <i_m_Source_File_Index>
1

$$$$
No_0_24
                    3D
 Schrodinger Suite 2022-4.
 71 77  0  0  1  0            999 V2000
   -5.3990    3.4070  -22.0290 C   0  0  0  0  0  0
   -5.6720    3.5930  -23.3630 C   0  0  0  0  0  0
   -4.1560    3.1740  -21.6920 C   0  0  0  0  0  0
   -3.2730    3.3180  -23.8600 C   0  0  0  0  0  0
   -3.1040    3.0740  -22.4400 C   0  0  0  0  0  0
   -4.6270    3.5590  -24.3760 C   0  0  0  0  0  0
   -3.8780    3.5960  -26.5770 C   0  0  0  0  0  0
    5.8770    3.0170  -21.3410 C   0  0  0  0  0  0
    5.7290    3.1610  -23.8890 C   0  0  0  0  0  0
   -4.8840    3.6840  -25.7110 C   0  0  0  0  0  0
    1.9350    3.6450  -23.8950 C   0  0  0  0  0  0
    1.0970    4.7400  -23.5920 C   0  0  0  0  0  0
    2.8770    5.9640  -22.9160 C   0  0  0  0  0  0
    3.3330    3.8590  -23.5860 C   0  0  0  0  0  0
    1.4060    2.5200  -24.5560 C   0  0  0  0  0  0
   -0.7350    3.2980  -24.4380 C   0  0  0  0  0  0
   -0.2260    4.5260  -23.8390 C   0  0  0  0  0  0
   -2.1880    3.2800  -24.7890 C   0  0  0  0  0  0
    3.9810    1.3710  -23.2990 C   0  0  0  0  0  0
    4.9240    1.0290  -22.1560 C   0  0  2  0  0  0
    6.4890    2.5970  -22.6950 C   0  0  2  0  0  0
    4.8930    2.0290  -20.9870 C   0  0  0  0  0  0
   -2.5210    3.4360  -26.2150 C   0  0  0  0  0  0
   -1.7520    2.6830  -21.8460 C   0  0  0  0  0  0
   -0.7140    2.3510  -21.3440 C   0  0  0  0  0  0
   -1.0850    5.5560  -23.4910 F   0  0  0  0  0  0
   -3.9380    2.9330  -20.3110 F   0  0  0  0  0  0
    1.5560    5.9060  -23.0600 N   0  0  0  0  0  0
    3.7880    5.0170  -23.1400 N   0  0  0  0  0  0
    0.1000    2.4090  -24.8580 N   0  0  0  0  0  0
    4.2680    2.8270  -23.7670 N   0  0  0  0  0  0
    6.3280    1.1210  -22.6420 N   0  0  1  0  0  0
   -4.0550    3.6100  -27.9660 O   0  0  0  0  0  0
   -6.1995    3.4552  -21.2997 H   0  0  0  0  0  0
   -6.6905    3.7716  -23.6881 H   0  0  0  0  0  0
    5.3894    3.9972  -21.4480 H   0  0  0  0  0  0
    6.6652    3.0392  -20.5740 H   0  0  0  0  0  0
    6.1276    2.7240  -24.8164 H   0  0  0  0  0  0
    5.8532    4.2535  -23.9213 H   0  0  0  0  0  0
   -5.8982    3.8527  -26.0544 H   0  0  0  0  0  0
    2.0575    1.7019  -24.8411 H   0  0  0  0  0  0
    2.9402    1.2973  -22.9507 H   0  0  0  0  0  0
    4.1526    0.6777  -24.1356 H   0  0  0  0  0  0
    4.7180    0.0129  -21.7884 H   0  0  0  0  0  0
    7.5528    2.8723  -22.7444 H   0  0  0  0  0  0
    3.9015    2.5031  -20.9396 H   0  0  0  0  0  0
    5.2048    1.5185  -20.0639 H   0  0  0  0  0  0
   -1.7535    3.4300  -26.9805 H   0  0  0  0  0  0
    0.1995    2.0602  -20.9012 H   0  0  0  0  0  0
    6.9856    0.6323  -21.9384 H   0  0  0  0  0  0
   -3.2104    3.5367  -28.3947 H   0  0  0  0  0  0
    5.6610    9.5090  -22.8300 F   0  0  0  0  0  0
    7.8540    9.7970  -20.7330 N   0  3  0  0  0  0
    6.0260    9.2420  -21.5150 C   0  0  0  0  0  0
    4.8980    8.5430  -20.7280 C   0  0  0  0  0  0
    4.4720    7.1870  -21.3300 C   0  0  0  0  0  0
    6.5430   10.5160  -20.8030 C   0  0  0  0  0  0
    7.4070    8.5470  -21.4250 C   0  0  0  0  0  0
    3.4150    7.3120  -22.4470 C   0  0  0  0  0  0
    8.0542    9.5798  -19.7692 H   0  0  0  0  0  0
    8.5165   10.2736  -21.3246 H   0  0  0  0  0  0
    4.0241    9.2089  -20.6740 H   0  0  0  0  0  0
    5.2171    8.3959  -19.6856 H   0  0  0  0  0  0
    4.0838    6.5387  -20.5306 H   0  0  0  0  0  0
    5.3591    6.6680  -21.7220 H   0  0  0  0  0  0
    6.6470   11.2928  -21.5748 H   0  0  0  0  0  0
    6.1211   10.5070  -19.7872 H   0  0  0  0  0  0
    7.3221    7.7695  -20.6515 H   0  0  0  0  0  0
    7.8412    8.5690  -22.4354 H   0  0  0  0  0  0
    3.8499    7.8489  -23.3029 H   0  0  0  0  0  0
    2.5807    7.9353  -22.0929 H   0  0  0  0  0  0
  1  2  2  0  0  0
  1  3  1  0  0  0
  1 34  1  0  0  0
  2  6  1  0  0  0
  2 35  1  0  0  0
  3  5  2  0  0  0
  3 27  1  0  0  0
  4  5  1  0  0  0
  4  6  2  0  0  0
  4 18  1  0  0  0
  5 24  1  0  0  0
  6 10  1  0  0  0
  7 10  2  0  0  0
  7 23  1  0  0  0
  7 33  1  0  0  0
  8 21  1  0  0  0
  8 22  1  0  0  0
  8 36  1  0  0  0
  8 37  1  0  0  0
  9 21  1  0  0  0
  9 31  1  0  0  0
  9 38  1  0  0  0
  9 39  1  0  0  0
 10 40  1  0  0  0
 11 12  1  0  0  0
 11 14  2  0  0  0
 11 15  1  0  0  0
 12 17  1  0  0  0
 12 28  2  0  0  0
 13 28  1  0  0  0
 13 29  2  0  0  0
 13 59  1  0  0  0
 14 29  1  0  0  0
 14 31  1  0  0  0
 15 30  2  0  0  0
 15 41  1  0  0  0
 16 17  2  0  0  0
 16 18  1  0  0  0
 16 30  1  0  0  0
 17 26  1  0  0  0
 18 23  2  0  0  0
 19 20  1  0  0  0
 19 31  1  0  0  0
 19 42  1  0  0  0
 19 43  1  0  0  0
 20 22  1  0  0  0
 20 32  1  0  0  0
 20 44  1  0  0  0
 21 32  1  0  0  0
 21 45  1  0  0  0
 22 46  1  0  0  0
 22 47  1  0  0  0
 23 48  1  0  0  0
 24 25  3  0  0  0
 25 49  1  0  0  0
 32 50  1  0  0  0
 33 51  1  0  0  0
 52 54  1  0  0  0
 53 57  1  0  0  0
 53 58  1  0  0  0
 53 60  1  0  0  0
 53 61  1  0  0  0
 54 55  1  0  0  0
 54 57  1  0  0  0
 54 58  1  0  0  0
 55 56  1  0  0  0
 55 62  1  0  0  0
 55 63  1  0  0  0
 56 59  1  0  0  0
 56 64  1  0  0  0
 56 65  1  0  0  0
 57 66  1  0  0  0
 57 67  1  0  0  0
 58 68  1  0  0  0
 58 69  1  0  0  0
 59 70  1  0  0  0
 59 71  1  0  0  0
M  CHG  1  53   1
M  END
> <s_m_entry_id>
182

> <s_m_entry_name>
000000024.1

> <s_m_Source_Path>
/Users/zaksoul/Documents/3r_UNI/2nd_SEMESTER/BSC/FRAG_RECON/RESULTS/2

> <s_m_Source_File>
000000024.mol2

> <i_m_Source_File_Index>
1

$$$$
No_0_25
                    3D
 Schrodinger Suite 2022-4.
 71 77  0  0  1  0            999 V2000
   -5.2640    3.5930  -21.8520 C   0  0  0  0  0  0
   -5.5470    3.7840  -23.1830 C   0  0  0  0  0  0
   -4.0230    3.3310  -21.5280 C   0  0  0  0  0  0
   -3.1610    3.4520  -23.7050 C   0  0  0  0  0  0
   -2.9820    3.2060  -22.2870 C   0  0  0  0  0  0
   -4.5130    3.7240  -24.2080 C   0  0  0  0  0  0
   -3.7880    3.7420  -26.4160 C   0  0  0  0  0  0
    6.0070    2.9360  -21.2850 C   0  0  0  0  0  0
    5.8340    3.0810  -23.8320 C   0  0  0  0  0  0
   -4.7820    3.8540  -25.5400 C   0  0  0  0  0  0
    2.0540    3.6550  -23.7970 C   0  0  0  0  0  0
    1.2450    4.7700  -23.4860 C   0  0  0  0  0  0
    3.0600    5.9520  -22.8310 C   0  0  0  0  0  0
    3.4600    3.8360  -23.5030 C   0  0  0  0  0  0
    1.4910    2.5430  -24.4510 C   0  0  0  0  0  0
   -0.6290    3.3710  -24.3110 C   0  0  0  0  0  0
   -0.0860    4.5870  -23.7190 C   0  0  0  0  0  0
   -2.0870    3.3870  -24.6460 C   0  0  0  0  0  0
    4.0510    1.3340  -23.2210 C   0  0  0  0  0  0
    4.9980    0.9710  -22.0870 C   0  0  2  0  0  0
    6.5940    2.5010  -22.6450 C   0  0  2  0  0  0
    5.0030    1.9720  -20.9190 C   0  0  0  0  0  0
   -2.4310    3.5500  -26.0690 C   0  0  0  0  0  0
   -1.6330    2.7820  -21.7070 C   0  0  0  0  0  0
   -0.5980    2.4270  -21.2160 C   0  0  0  0  0  0
   -0.9150    5.6380  -23.3630 F   0  0  0  0  0  0
   -3.7950    3.0860  -20.1490 F   0  0  0  0  0  0
    1.7370    5.9250  -22.9610 N   0  0  0  0  0  0
    3.9470    4.9830  -23.0630 N   0  0  0  0  0  0
    0.1790    2.4620  -24.7390 N   0  0  0  0  0  0
    4.3680    2.7820  -23.6930 N   0  0  0  0  0  0
    6.3990    1.0280  -22.5890 N   0  0  1  0  0  0
   -3.9800    3.7590  -27.8030 O   0  0  0  0  0  0
   -6.0551    3.6613  -21.1141 H   0  0  0  0  0  0
   -6.5645    3.9867  -23.4971 H   0  0  0  0  0  0
    5.5416    3.9274  -21.3880 H   0  0  0  0  0  0
    6.8033    2.9400  -20.5261 H   0  0  0  0  0  0
    6.2123    2.6341  -24.7632 H   0  0  0  0  0  0
    5.9844    4.1701  -23.8663 H   0  0  0  0  0  0
   -5.7957    4.0467  -25.8722 H   0  0  0  0  0  0
    2.1193    1.7090  -24.7421 H   0  0  0  0  0  0
    3.0128    1.2846  -22.8608 H   0  0  0  0  0  0
    4.1974    0.6354  -24.0579 H   0  0  0  0  0  0
    4.7718   -0.0397  -21.7164 H   0  0  0  0  0  0
    7.6637    2.7503  -22.7055 H   0  0  0  0  0  0
    4.0237    2.4697  -20.8625 H   0  0  0  0  0  0
    5.3128    1.4553  -19.9986 H   0  0  0  0  0  0
   -1.6723    3.5249  -26.8428 H   0  0  0  0  0  0
    0.3132    2.1143  -20.7834 H   0  0  0  0  0  0
    7.0526    0.5252  -21.8915 H   0  0  0  0  0  0
   -3.1419    3.6650  -28.2403 H   0  0  0  0  0  0
    5.6230    9.6550  -23.0480 F   0  0  0  0  0  0
    8.2430    9.9060  -21.5100 N   0  3  0  0  0  0
    6.3060    9.3000  -21.8900 C   0  0  0  0  0  0
    5.4320    8.4610  -20.9340 C   0  0  0  0  0  0
    4.9350    7.1370  -21.5510 C   0  0  0  0  0  0
    6.9230   10.5390  -21.1960 C   0  0  0  0  0  0
    7.6980    8.6930  -22.1980 C   0  0  0  0  0  0
    3.6360    7.2870  -22.3690 C   0  0  0  0  0  0
    8.6781    9.6200  -20.6469 H   0  0  0  0  0  0
    8.7213   10.4754  -22.1905 H   0  0  0  0  0  0
    4.5687    9.0602  -20.6089 H   0  0  0  0  0  0
    5.9988    8.2451  -20.0163 H   0  0  0  0  0  0
    4.7800    6.3970  -20.7520 H   0  0  0  0  0  0
    5.7232    6.7139  -22.1911 H   0  0  0  0  0  0
    6.8029   11.3845  -21.8894 H   0  0  0  0  0  0
    6.7591   10.4131  -20.1156 H   0  0  0  0  0  0
    7.8350    7.8472  -21.5082 H   0  0  0  0  0  0
    7.8740    8.8320  -23.2749 H   0  0  0  0  0  0
    3.8269    7.9248  -23.2447 H   0  0  0  0  0  0
    2.8848    7.8202  -21.7678 H   0  0  0  0  0  0
  1  2  2  0  0  0
  1  3  1  0  0  0
  1 34  1  0  0  0
  2  6  1  0  0  0
  2 35  1  0  0  0
  3  5  2  0  0  0
  3 27  1  0  0  0
  4  5  1  0  0  0
  4  6  2  0  0  0
  4 18  1  0  0  0
  5 24  1  0  0  0
  6 10  1  0  0  0
  7 10  2  0  0  0
  7 23  1  0  0  0
  7 33  1  0  0  0
  8 21  1  0  0  0
  8 22  1  0  0  0
  8 36  1  0  0  0
  8 37  1  0  0  0
  9 21  1  0  0  0
  9 31  1  0  0  0
  9 38  1  0  0  0
  9 39  1  0  0  0
 10 40  1  0  0  0
 11 12  1  0  0  0
 11 14  2  0  0  0
 11 15  1  0  0  0
 12 17  1  0  0  0
 12 28  2  0  0  0
 13 28  1  0  0  0
 13 29  2  0  0  0
 13 59  1  0  0  0
 14 29  1  0  0  0
 14 31  1  0  0  0
 15 30  2  0  0  0
 15 41  1  0  0  0
 16 17  2  0  0  0
 16 18  1  0  0  0
 16 30  1  0  0  0
 17 26  1  0  0  0
 18 23  2  0  0  0
 19 20  1  0  0  0
 19 31  1  0  0  0
 19 42  1  0  0  0
 19 43  1  0  0  0
 20 22  1  0  0  0
 20 32  1  0  0  0
 20 44  1  0  0  0
 21 32  1  0  0  0
 21 45  1  0  0  0
 22 46  1  0  0  0
 22 47  1  0  0  0
 23 48  1  0  0  0
 24 25  3  0  0  0
 25 49  1  0  0  0
 32 50  1  0  0  0
 33 51  1  0  0  0
 52 54  1  0  0  0
 53 57  1  0  0  0
 53 58  1  0  0  0
 53 60  1  0  0  0
 53 61  1  0  0  0
 54 55  1  0  0  0
 54 57  1  0  0  0
 54 58  1  0  0  0
 55 56  1  0  0  0
 55 62  1  0  0  0
 55 63  1  0  0  0
 56 59  1  0  0  0
 56 64  1  0  0  0
 56 65  1  0  0  0
 57 66  1  0  0  0
 57 67  1  0  0  0
 58 68  1  0  0  0
 58 69  1  0  0  0
 59 70  1  0  0  0
 59 71  1  0  0  0
M  CHG  1  53   1
M  END
> <s_m_entry_id>
183

> <s_m_entry_name>
000000025.1

> <s_m_Source_Path>
/Users/zaksoul/Documents/3r_UNI/2nd_SEMESTER/BSC/FRAG_RECON/RESULTS/2

> <s_m_Source_File>
000000025.mol2

> <i_m_Source_File_Index>
1

$$$$
No_0_26
                    3D
 Schrodinger Suite 2022-4.
 71 77  0  0  1  0            999 V2000
   -5.3910    3.3270  -21.9690 C   0  0  0  0  0  0
   -5.6430    3.5190  -23.3070 C   0  0  0  0  0  0
   -4.1540    3.0930  -21.6140 C   0  0  0  0  0  0
   -3.2360    3.2470  -23.7660 C   0  0  0  0  0  0
   -3.0900    2.9970  -22.3450 C   0  0  0  0  0  0
   -4.5810    3.4900  -24.3040 C   0  0  0  0  0  0
   -3.7970    3.5380  -26.4920 C   0  0  0  0  0  0
    5.8730    2.9400  -21.1010 C   0  0  0  0  0  0
    5.7650    3.0950  -23.6510 C   0  0  0  0  0  0
   -4.8170    3.6210  -25.6420 C   0  0  0  0  0  0
    1.9720    3.5770  -23.7160 C   0  0  0  0  0  0
    1.1280    4.6700  -23.4210 C   0  0  0  0  0  0
    2.8960    5.8920  -22.7110 C   0  0  0  0  0  0
    3.3650    3.7910  -23.3830 C   0  0  0  0  0  0
    1.4540    2.4550  -24.3910 C   0  0  0  0  0  0
   -0.6880    3.2310  -24.3040 C   0  0  0  0  0  0
   -0.1910    4.4570  -23.6910 C   0  0  0  0  0  0
   -2.1360    3.2140  -24.6780 C   0  0  0  0  0  0
    4.0100    1.3020  -23.0970 C   0  0  0  0  0  0
    4.9340    0.9550  -21.9400 C   0  0  2  0  0  0
    6.5070    2.5260  -22.4470 C   0  0  2  0  0  0
    4.8830    1.9490  -20.7680 C   0  0  0  0  0  0
   -2.4450    3.3770  -26.1090 C   0  0  0  0  0  0
   -1.7470    2.6040  -21.7310 C   0  0  0  0  0  0
   -0.7170    2.2710  -21.2140 C   0  0  0  0  0  0
   -1.0550    5.4850  -23.3520 F   0  0  0  0  0  0
   -3.9570    2.8460  -20.2300 F   0  0  0  0  0  0
    1.5780    5.8340  -22.8770 N   0  0  0  0  0  0
    3.8120    4.9470  -22.9240 N   0  0  0  0  0  0
    0.1540    2.3450  -24.7140 N   0  0  0  0  0  0
    4.3030    2.7600  -23.5540 N   0  0  0  0  0  0
    6.3460    1.0490  -22.4040 N   0  0  1  0  0  0
   -3.9520    3.5580  -27.8830 O   0  0  0  0  0  0
   -6.2040    3.3712  -21.2534 H   0  0  0  0  0  0
   -6.6563    3.6976  -23.6481 H   0  0  0  0  0  0
    5.3864    3.9203  -21.2110 H   0  0  0  0  0  0
    6.6482    2.9592  -20.3208 H   0  0  0  0  0  0
    6.1797    2.6621  -24.5733 H   0  0  0  0  0  0
    5.8902    4.1876  -23.6762 H   0  0  0  0  0  0
   -5.8259    3.7907  -26.0004 H   0  0  0  0  0  0
    2.1113    1.6391  -24.6690 H   0  0  0  0  0  0
    2.9638    1.2253  -22.7661 H   0  0  0  0  0  0
    4.1946    0.6119  -23.9334 H   0  0  0  0  0  0
    4.7229   -0.0629  -21.5805 H   0  0  0  0  0  0
    7.5713    2.8024  -22.4773 H   0  0  0  0  0  0
    3.8907    2.4225  -20.7347 H   0  0  0  0  0  0
    5.1806    1.4355  -19.8419 H   0  0  0  0  0  0
   -1.6651    3.3750  -26.8618 H   0  0  0  0  0  0
    0.1895    1.9782  -20.7583 H   0  0  0  0  0  0
    6.9925    0.5585  -21.6913 H   0  0  0  0  0  0
   -3.1002    3.4868  -28.2975 H   0  0  0  0  0  0
    5.0000    9.8680  -23.0180 F   0  0  0  0  0  0
    7.8450   10.2790  -22.0040 N   0  3  0  0  0  0
    5.9370    9.4920  -22.0620 C   0  0  0  0  0  0
    5.3620    8.4780  -21.0510 C   0  0  0  0  0  0
    4.8750    7.1660  -21.7010 C   0  0  0  0  0  0
    6.5650   10.7270  -21.3700 C   0  0  0  0  0  0
    7.2860    9.0780  -22.7010 C   0  0  0  0  0  0
    3.4260    7.2380  -22.2270 C   0  0  0  0  0  0
    8.4736    9.9697  -21.2793 H   0  0  0  0  0  0
    8.1169   10.9578  -22.6978 H   0  0  0  0  0  0
    4.5316    8.9432  -20.4997 H   0  0  0  0  0  0
    6.1241    8.2480  -20.2919 H   0  0  0  0  0  0
    4.9580    6.3453  -20.9733 H   0  0  0  0  0  0
    5.5499    6.8940  -22.5259 H   0  0  0  0  0  0
    6.2252   11.6115  -21.9287 H   0  0  0  0  0  0
    6.6390   10.4880  -20.2988 H   0  0  0  0  0  0
    7.6421    8.1958  -22.1489 H   0  0  0  0  0  0
    7.2230    9.3309  -23.7697 H   0  0  0  0  0  0
    3.3720    7.9680  -23.0480 H   0  0  0  0  0  0
    2.7686    7.6272  -21.4356 H   0  0  0  0  0  0
  1  2  2  0  0  0
  1  3  1  0  0  0
  1 34  1  0  0  0
  2  6  1  0  0  0
  2 35  1  0  0  0
  3  5  2  0  0  0
  3 27  1  0  0  0
  4  5  1  0  0  0
  4  6  2  0  0  0
  4 18  1  0  0  0
  5 24  1  0  0  0
  6 10  1  0  0  0
  7 10  2  0  0  0
  7 23  1  0  0  0
  7 33  1  0  0  0
  8 21  1  0  0  0
  8 22  1  0  0  0
  8 36  1  0  0  0
  8 37  1  0  0  0
  9 21  1  0  0  0
  9 31  1  0  0  0
  9 38  1  0  0  0
  9 39  1  0  0  0
 10 40  1  0  0  0
 11 12  1  0  0  0
 11 14  2  0  0  0
 11 15  1  0  0  0
 12 17  1  0  0  0
 12 28  2  0  0  0
 13 28  1  0  0  0
 13 29  2  0  0  0
 13 59  1  0  0  0
 14 29  1  0  0  0
 14 31  1  0  0  0
 15 30  2  0  0  0
 15 41  1  0  0  0
 16 17  2  0  0  0
 16 18  1  0  0  0
 16 30  1  0  0  0
 17 26  1  0  0  0
 18 23  2  0  0  0
 19 20  1  0  0  0
 19 31  1  0  0  0
 19 42  1  0  0  0
 19 43  1  0  0  0
 20 22  1  0  0  0
 20 32  1  0  0  0
 20 44  1  0  0  0
 21 32  1  0  0  0
 21 45  1  0  0  0
 22 46  1  0  0  0
 22 47  1  0  0  0
 23 48  1  0  0  0
 24 25  3  0  0  0
 25 49  1  0  0  0
 32 50  1  0  0  0
 33 51  1  0  0  0
 52 54  1  0  0  0
 53 57  1  0  0  0
 53 58  1  0  0  0
 53 60  1  0  0  0
 53 61  1  0  0  0
 54 55  1  0  0  0
 54 57  1  0  0  0
 54 58  1  0  0  0
 55 56  1  0  0  0
 55 62  1  0  0  0
 55 63  1  0  0  0
 56 59  1  0  0  0
 56 64  1  0  0  0
 56 65  1  0  0  0
 57 66  1  0  0  0
 57 67  1  0  0  0
 58 68  1  0  0  0
 58 69  1  0  0  0
 59 70  1  0  0  0
 59 71  1  0  0  0
M  CHG  1  53   1
M  END
> <s_m_entry_id>
184

> <s_m_entry_name>
000000026.1

> <s_m_Source_Path>
/Users/zaksoul/Documents/3r_UNI/2nd_SEMESTER/BSC/FRAG_RECON/RESULTS/2

> <s_m_Source_File>
000000026.mol2

> <i_m_Source_File_Index>
1

$$$$
No_0_27
                    3D
 Schrodinger Suite 2022-4.
 73 78  0  0  1  0            999 V2000
   -5.2550    3.7240  -21.8970 C   0  0  0  0  0  0
   -5.5380    3.9140  -23.2290 C   0  0  0  0  0  0
   -4.0110    3.4790  -21.5720 C   0  0  0  0  0  0
   -3.1460    3.6160  -23.7470 C   0  0  0  0  0  0
   -2.9670    3.3700  -22.3300 C   0  0  0  0  0  0
   -4.5020    3.8710  -24.2520 C   0  0  0  0  0  0
   -3.7730    3.9030  -26.4590 C   0  0  0  0  0  0
    6.0230    3.2250  -21.3110 C   0  0  0  0  0  0
    5.8530    3.3720  -23.8590 C   0  0  0  0  0  0
   -4.7700    3.9990  -25.5840 C   0  0  0  0  0  0
    2.0650    3.8930  -23.8300 C   0  0  0  0  0  0
    1.2390    4.9950  -23.5180 C   0  0  0  0  0  0
    3.0370    6.2020  -22.8570 C   0  0  0  0  0  0
    3.4670    4.0930  -23.5330 C   0  0  0  0  0  0
    1.5180    2.7740  -24.4870 C   0  0  0  0  0  0
   -0.6130    3.5720  -24.3490 C   0  0  0  0  0  0
   -0.0880    4.7950  -23.7530 C   0  0  0  0  0  0
   -2.0700    3.5690  -24.6860 C   0  0  0  0  0  0
    4.0940    1.5990  -23.2540 C   0  0  0  0  0  0
    5.0430    1.2470  -22.1190 C   0  0  2  0  0  0
    6.6190    2.8000  -22.6710 C   0  0  2  0  0  0
    5.0320    2.2460  -20.9500 C   0  0  0  0  0  0
   -2.4140    3.7290  -26.1100 C   0  0  0  0  0  0
   -1.6130    2.9650  -21.7480 C   0  0  0  0  0  0
   -0.5740    2.6230  -21.2550 C   0  0  0  0  0  0
   -0.9330    5.8330  -23.3970 F   0  0  0  0  0  0
   -3.7820    3.2350  -20.1930 F   0  0  0  0  0  0
    1.7150    6.1560  -22.9900 N   0  0  0  0  0  0
    3.9380    5.2460  -23.0900 N   0  0  0  0  0  0
    0.2090    2.6760  -24.7770 N   0  0  0  0  0  0
    4.3900    3.0520  -23.7230 N   0  0  0  0  0  0
    6.4440    1.3250  -22.6180 N   0  0  1  0  0  0
   -3.9630    3.9190  -27.8460 O   0  0  0  0  0  0
   -6.0490    3.7802  -21.1612 H   0  0  0  0  0  0
   -6.5579    4.1027  -23.5442 H   0  0  0  0  0  0
    5.5437    4.2098  -21.4129 H   0  0  0  0  0  0
    6.8182    3.2391  -20.5511 H   0  0  0  0  0  0
    6.2397    2.9318  -24.7899 H   0  0  0  0  0  0
    5.9883    4.4632  -23.8903 H   0  0  0  0  0  0
   -5.7859    4.1777  -25.9173 H   0  0  0  0  0  0
    2.1593    1.9500  -24.7781 H   0  0  0  0  0  0
    3.0559    1.5344  -22.8959 H   0  0  0  0  0  0
    4.2505    0.9035  -24.0918 H   0  0  0  0  0  0
    4.8310    0.2325  -21.7505 H   0  0  0  0  0  0
    7.6848    3.0654  -22.7305 H   0  0  0  0  0  0
    4.0456    2.7296  -20.8935 H   0  0  0  0  0  0
    5.3478    1.7325  -20.0299 H   0  0  0  0  0  0
   -1.6531    3.7160  -26.8820 H   0  0  0  0  0  0
    0.3409    2.3220  -20.8220 H   0  0  0  0  0  0
    7.1037    0.8299  -21.9208 H   0  0  0  0  0  0
   -3.1230    3.8379  -28.2823 H   0  0  0  0  0  0
    8.8280    8.4860  -20.8740 N   0  3  0  0  0  0
    7.4580    8.4310  -20.2580 C   0  0  0  0  0  0
    4.9740    8.8310  -20.6800 C   0  0  0  0  0  0
    4.3070    7.4850  -21.0260 C   0  0  0  0  0  0
    6.4020    8.9360  -21.2600 C   0  0  0  0  0  0
    9.9480    8.1860  -19.9200 C   0  0  0  0  0  0
    3.5930    7.5440  -22.3920 C   0  0  0  0  0  0
    8.9740    9.3948  -21.2849 H   0  0  0  0  0  0
    8.8710    7.8451  -21.6508 H   0  0  0  0  0  0
    7.4370    9.0589  -19.3551 H   0  0  0  0  0  0
    7.2261    7.3944  -19.9721 H   0  0  0  0  0  0
    5.0140    8.9500  -19.5872 H   0  0  0  0  0  0
    4.3597    9.6554  -21.0712 H   0  0  0  0  0  0
    3.5792    7.2251  -20.2432 H   0  0  0  0  0  0
    5.0696    6.6925  -21.0460 H   0  0  0  0  0  0
    6.4650    8.3466  -22.1866 H   0  0  0  0  0  0
    6.6151    9.9834  -21.5201 H   0  0  0  0  0  0
   10.9095    8.2480  -20.4507 H   0  0  0  0  0  0
    9.9370    8.9169  -19.0981 H   0  0  0  0  0  0
    9.8210    7.1728  -19.5109 H   0  0  0  0  0  0
    4.2879    7.9329  -23.1509 H   0  0  0  0  0  0
    2.7769    8.2801  -22.3460 H   0  0  0  0  0  0
  1  2  2  0  0  0
  1  3  1  0  0  0
  1 34  1  0  0  0
  2  6  1  0  0  0
  2 35  1  0  0  0
  3  5  2  0  0  0
  3 27  1  0  0  0
  4  5  1  0  0  0
  4  6  2  0  0  0
  4 18  1  0  0  0
  5 24  1  0  0  0
  6 10  1  0  0  0
  7 10  2  0  0  0
  7 23  1  0  0  0
  7 33  1  0  0  0
  8 21  1  0  0  0
  8 22  1  0  0  0
  8 36  1  0  0  0
  8 37  1  0  0  0
  9 21  1  0  0  0
  9 31  1  0  0  0
  9 38  1  0  0  0
  9 39  1  0  0  0
 10 40  1  0  0  0
 11 12  1  0  0  0
 11 14  2  0  0  0
 11 15  1  0  0  0
 12 17  1  0  0  0
 12 28  2  0  0  0
 13 28  1  0  0  0
 13 29  2  0  0  0
 13 58  1  0  0  0
 14 29  1  0  0  0
 14 31  1  0  0  0
 15 30  2  0  0  0
 15 41  1  0  0  0
 16 17  2  0  0  0
 16 18  1  0  0  0
 16 30  1  0  0  0
 17 26  1  0  0  0
 18 23  2  0  0  0
 19 20  1  0  0  0
 19 31  1  0  0  0
 19 42  1  0  0  0
 19 43  1  0  0  0
 20 22  1  0  0  0
 20 32  1  0  0  0
 20 44  1  0  0  0
 21 32  1  0  0  0
 21 45  1  0  0  0
 22 46  1  0  0  0
 22 47  1  0  0  0
 23 48  1  0  0  0
 24 25  3  0  0  0
 25 49  1  0  0  0
 32 50  1  0  0  0
 33 51  1  0  0  0
 52 53  1  0  0  0
 52 57  1  0  0  0
 52 59  1  0  0  0
 52 60  1  0  0  0
 53 56  1  0  0  0
 53 61  1  0  0  0
 53 62  1  0  0  0
 54 55  1  0  0  0
 54 56  1  0  0  0
 54 63  1  0  0  0
 54 64  1  0  0  0
 55 58  1  0  0  0
 55 65  1  0  0  0
 55 66  1  0  0  0
 56 67  1  0  0  0
 56 68  1  0  0  0
 57 69  1  0  0  0
 57 70  1  0  0  0
 57 71  1  0  0  0
 58 72  1  0  0  0
 58 73  1  0  0  0
M  CHG  1  52   1
M  END
> <s_m_entry_id>
185

> <s_m_entry_name>
000000027.1

> <s_m_Source_Path>
/Users/zaksoul/Documents/3r_UNI/2nd_SEMESTER/BSC/FRAG_RECON/RESULTS/2

> <s_m_Source_File>
000000027.mol2

> <i_m_Source_File_Index>
1

$$$$
No_0_28
                    3D
 Schrodinger Suite 2022-4.
 73 78  0  0  1  0            999 V2000
   -5.2560    3.8430  -21.9890 C   0  0  0  0  0  0
   -5.5220    4.0140  -23.3270 C   0  0  0  0  0  0
   -4.0230    3.5640  -21.6470 C   0  0  0  0  0  0
   -3.1370    3.6270  -23.8180 C   0  0  0  0  0  0
   -2.9770    3.4050  -22.3930 C   0  0  0  0  0  0
   -4.4790    3.9150  -24.3390 C   0  0  0  0  0  0
   -3.7320    3.8770  -26.5400 C   0  0  0  0  0  0
    5.9940    2.9850  -21.2920 C   0  0  0  0  0  0
    5.8500    3.0840  -23.8430 C   0  0  0  0  0  0
   -4.7320    4.0240  -25.6760 C   0  0  0  0  0  0
    2.0810    3.7300  -23.8590 C   0  0  0  0  0  0
    1.2900    4.8650  -23.5780 C   0  0  0  0  0  0
    3.1220    6.0260  -22.9260 C   0  0  0  0  0  0
    3.4870    3.8900  -23.5540 C   0  0  0  0  0  0
    1.5030    2.6160  -24.4980 C   0  0  0  0  0  0
   -0.6020    3.4870  -24.3950 C   0  0  0  0  0  0
   -0.0410    4.7030  -23.8210 C   0  0  0  0  0  0
   -2.0550    3.5240  -24.7450 C   0  0  0  0  0  0
    4.0280    1.3830  -23.2180 C   0  0  0  0  0  0
    4.9560    1.0240  -22.0680 C   0  0  2  0  0  0
    6.5870    2.5120  -22.6370 C   0  0  2  0  0  0
    4.9690    2.0470  -20.9190 C   0  0  0  0  0  0
   -2.3820    3.6660  -26.1750 C   0  0  0  0  0  0
   -1.6420    2.9670  -21.7910 C   0  0  0  0  0  0
   -0.6190    2.6020  -21.2820 C   0  0  0  0  0  0
   -0.8540    5.7760  -23.4930 F   0  0  0  0  0  0
   -3.8140    3.3410  -20.2610 F   0  0  0  0  0  0
    1.7990    6.0210  -23.0690 N   0  0  0  0  0  0
    3.9920    5.0360  -23.1310 N   0  0  0  0  0  0
    0.1940    2.5550  -24.7970 N   0  0  0  0  0  0
    4.3770    2.8150  -23.7140 N   0  0  0  0  0  0
    6.3630    1.0450  -22.5560 N   0  0  1  0  0  0
   -3.9090    3.8700  -27.9290 O   0  0  0  0  0  0
   -6.0533    3.9404  -21.2610 H   0  0  0  0  0  0
   -6.5322    4.2299  -23.6554 H   0  0  0  0  0  0
    5.5490    3.9830  -21.4181 H   0  0  0  0  0  0
    6.7833    2.9890  -20.5259 H   0  0  0  0  0  0
    6.2295    2.6126  -24.7616 H   0  0  0  0  0  0
    6.0216    4.1692  -23.8965 H   0  0  0  0  0  0
   -5.7383    4.2299  -26.0225 H   0  0  0  0  0  0
    2.1195    1.7656  -24.7661 H   0  0  0  0  0  0
    2.9855    1.3608  -22.8678 H   0  0  0  0  0  0
    4.1693    0.6654  -24.0396 H   0  0  0  0  0  0
    4.7069    0.0254  -21.6797 H   0  0  0  0  0  0
    7.6615    2.7410  -22.6925 H   0  0  0  0  0  0
    3.9985    2.5635  -20.8817 H   0  0  0  0  0  0
    5.2586    1.5424  -19.9855 H   0  0  0  0  0  0
   -1.6155    3.6118  -26.9395 H   0  0  0  0  0  0
    0.2813    2.2799  -20.8338 H   0  0  0  0  0  0
    6.9992    0.5435  -21.8417 H   0  0  0  0  0  0
   -3.0682    3.7523  -28.3553 H   0  0  0  0  0  0
    9.0940    8.3270  -21.6150 N   0  3  0  0  0  0
    7.8160    8.2270  -20.8310 C   0  0  0  0  0  0
    5.2940    8.6020  -20.9140 C   0  0  0  0  0  0
    4.6030    7.2590  -21.2240 C   0  0  0  0  0  0
    6.6330    8.7520  -21.6680 C   0  0  0  0  0  0
   10.3310    8.0090  -20.8260 C   0  0  0  0  0  0
    3.7170    7.3580  -22.4840 C   0  0  0  0  0  0
    9.1750    9.2530  -22.0050 H   0  0  0  0  0  0
    9.0430    7.7164  -22.4154 H   0  0  0  0  0  0
    7.9040    8.8201  -19.9088 H   0  0  0  0  0  0
    7.6340    7.1768  -20.5590 H   0  0  0  0  0  0
    5.4721    8.6810  -19.8314 H   0  0  0  0  0  0
    4.6254    9.4305  -21.1908 H   0  0  0  0  0  0
    3.9850    6.9590  -20.3649 H   0  0  0  0  0  0
    5.3656    6.4804  -21.3731 H   0  0  0  0  0  0
    6.5830    8.1988  -22.6174 H   0  0  0  0  0  0
    6.8001    9.8115  -21.9121 H   0  0  0  0  0  0
   11.2152    8.1060  -21.4731 H   0  0  0  0  0  0
   10.4169    8.7086  -19.9815 H   0  0  0  0  0  0
   10.2690    6.9794  -20.4438 H   0  0  0  0  0  0
    4.3045    7.7866  -23.3093 H   0  0  0  0  0  0
    2.9060    8.0790  -22.3040 H   0  0  0  0  0  0
  1  2  2  0  0  0
  1  3  1  0  0  0
  1 34  1  0  0  0
  2  6  1  0  0  0
  2 35  1  0  0  0
  3  5  2  0  0  0
  3 27  1  0  0  0
  4  5  1  0  0  0
  4  6  2  0  0  0
  4 18  1  0  0  0
  5 24  1  0  0  0
  6 10  1  0  0  0
  7 10  2  0  0  0
  7 23  1  0  0  0
  7 33  1  0  0  0
  8 21  1  0  0  0
  8 22  1  0  0  0
  8 36  1  0  0  0
  8 37  1  0  0  0
  9 21  1  0  0  0
  9 31  1  0  0  0
  9 38  1  0  0  0
  9 39  1  0  0  0
 10 40  1  0  0  0
 11 12  1  0  0  0
 11 14  2  0  0  0
 11 15  1  0  0  0
 12 17  1  0  0  0
 12 28  2  0  0  0
 13 28  1  0  0  0
 13 29  2  0  0  0
 13 58  1  0  0  0
 14 29  1  0  0  0
 14 31  1  0  0  0
 15 30  2  0  0  0
 15 41  1  0  0  0
 16 17  2  0  0  0
 16 18  1  0  0  0
 16 30  1  0  0  0
 17 26  1  0  0  0
 18 23  2  0  0  0
 19 20  1  0  0  0
 19 31  1  0  0  0
 19 42  1  0  0  0
 19 43  1  0  0  0
 20 22  1  0  0  0
 20 32  1  0  0  0
 20 44  1  0  0  0
 21 32  1  0  0  0
 21 45  1  0  0  0
 22 46  1  0  0  0
 22 47  1  0  0  0
 23 48  1  0  0  0
 24 25  3  0  0  0
 25 49  1  0  0  0
 32 50  1  0  0  0
 33 51  1  0  0  0
 52 53  1  0  0  0
 52 57  1  0  0  0
 52 59  1  0  0  0
 52 60  1  0  0  0
 53 56  1  0  0  0
 53 61  1  0  0  0
 53 62  1  0  0  0
 54 55  1  0  0  0
 54 56  1  0  0  0
 54 63  1  0  0  0
 54 64  1  0  0  0
 55 58  1  0  0  0
 55 65  1  0  0  0
 55 66  1  0  0  0
 56 67  1  0  0  0
 56 68  1  0  0  0
 57 69  1  0  0  0
 57 70  1  0  0  0
 57 71  1  0  0  0
 58 72  1  0  0  0
 58 73  1  0  0  0
M  CHG  1  52   1
M  END
> <s_m_entry_id>
186

> <s_m_entry_name>
000000028.1

> <s_m_Source_Path>
/Users/zaksoul/Documents/3r_UNI/2nd_SEMESTER/BSC/FRAG_RECON/RESULTS/2

> <s_m_Source_File>
000000028.mol2

> <i_m_Source_File_Index>
1

$$$$
No_0_29
                    3D
 Schrodinger Suite 2022-4.
 73 78  0  0  1  0            999 V2000
   -5.1800    3.6430  -21.9040 C   0  0  0  0  0  0
   -5.4510    3.8400  -23.2380 C   0  0  0  0  0  0
   -3.9420    3.3840  -21.5690 C   0  0  0  0  0  0
   -3.0580    3.5190  -23.7370 C   0  0  0  0  0  0
   -2.8930    3.2670  -22.3190 C   0  0  0  0  0  0
   -4.4070    3.7890  -24.2520 C   0  0  0  0  0  0
   -3.6600    3.8200  -26.4530 C   0  0  0  0  0  0
    6.0870    3.0260  -21.2280 C   0  0  0  0  0  0
    5.9390    3.1830  -23.7760 C   0  0  0  0  0  0
   -4.6620    3.9250  -25.5860 C   0  0  0  0  0  0
    2.1560    3.7430  -23.7760 C   0  0  0  0  0  0
    1.3400    4.8520  -23.4680 C   0  0  0  0  0  0
    3.1440    6.0390  -22.7880 C   0  0  0  0  0  0
    3.5580    3.9270  -23.4670 C   0  0  0  0  0  0
    1.6040    2.6310  -24.4410 C   0  0  0  0  0  0
   -0.5210    3.4510  -24.3180 C   0  0  0  0  0  0
    0.0120    4.6660  -23.7150 C   0  0  0  0  0  0
   -1.9750    3.4630  -24.6670 C   0  0  0  0  0  0
    4.1570    1.4260  -23.1910 C   0  0  0  0  0  0
    5.0930    1.0610  -22.0500 C   0  0  2  0  0  0
    6.6890    2.6000  -22.5840 C   0  0  2  0  0  0
    5.0830    2.0560  -20.8770 C   0  0  0  0  0  0
   -2.3050    3.6320  -26.0930 C   0  0  0  0  0  0
   -1.5480    2.8460  -21.7280 C   0  0  0  0  0  0
   -0.5160    2.4920  -21.2280 C   0  0  0  0  0  0
   -0.8250    5.7120  -23.3620 F   0  0  0  0  0  0
   -3.7270    3.1340  -20.1890 F   0  0  0  0  0  0
    1.8230    6.0070  -22.9320 N   0  0  0  0  0  0
    4.0370    5.0740  -23.0170 N   0  0  0  0  0  0
    0.2960    2.5470  -24.7420 N   0  0  0  0  0  0
    4.4720    2.8780  -23.6530 N   0  0  0  0  0  0
    6.4990    1.1260  -22.5370 N   0  0  1  0  0  0
   -3.8380    3.8430  -27.8420 O   0  0  0  0  0  0
   -5.9791    3.7052  -21.1742 H   0  0  0  0  0  0
   -6.4662    4.0398  -23.5613 H   0  0  0  0  0  0
    5.6187    4.0160  -21.3309 H   0  0  0  0  0  0
    6.8753    3.0300  -20.4609 H   0  0  0  0  0  0
    6.3285    2.7420  -24.7054 H   0  0  0  0  0  0
    6.0853    4.2729  -23.8032 H   0  0  0  0  0  0
   -5.6733    4.1146  -25.9271 H   0  0  0  0  0  0
    2.2395    1.8018  -24.7301 H   0  0  0  0  0  0
    3.1152    1.3715  -22.8421 H   0  0  0  0  0  0
    4.3134    0.7316  -24.0297 H   0  0  0  0  0  0
    4.8670    0.0480  -21.6858 H   0  0  0  0  0  0
    7.7583    2.8532  -22.6334 H   0  0  0  0  0  0
    4.1011    2.5495  -20.8276 H   0  0  0  0  0  0
    5.3847    1.5363  -19.9557 H   0  0  0  0  0  0
   -1.5386    3.6139  -26.8594 H   0  0  0  0  0  0
    0.3918    2.1811  -20.7871 H   0  0  0  0  0  0
    7.1472    0.6222  -21.8353 H   0  0  0  0  0  0
   -2.9951    3.7550  -28.2713 H   0  0  0  0  0  0
    9.0820    8.6730  -22.0930 N   0  3  0  0  0  0
    7.9350    8.4160  -21.1570 C   0  0  0  0  0  0
    5.4080    8.6060  -20.8680 C   0  0  0  0  0  0
    4.7670    7.2430  -21.1990 C   0  0  0  0  0  0
    6.6160    8.9140  -21.7780 C   0  0  0  0  0  0
   10.4360    8.3890  -21.5080 C   0  0  0  0  0  0
    3.7100    7.3740  -22.3150 C   0  0  0  0  0  0
    9.0490    9.6302  -22.4071 H   0  0  0  0  0  0
    8.9591    8.1254  -22.9303 H   0  0  0  0  0  0
    8.1139    8.9398  -20.2064 H   0  0  0  0  0  0
    7.8610    7.3371  -20.9560 H   0  0  0  0  0  0
    5.7309    8.6130  -19.8165 H   0  0  0  0  0  0
    4.6549    9.4001  -20.9780 H   0  0  0  0  0  0
    4.2958    6.8308  -20.2946 H   0  0  0  0  0  0
    5.5496    6.5384  -21.5168 H   0  0  0  0  0  0
    6.4690    8.4349  -22.7572 H   0  0  0  0  0  0
    6.6790    9.9990  -21.9480 H   0  0  0  0  0  0
   11.2123    8.6031  -22.2573 H   0  0  0  0  0  0
   10.5940    9.0241  -20.6239 H   0  0  0  0  0  0
   10.4930    7.3308  -21.2130 H   0  0  0  0  0  0
    4.1472    7.9083  -23.1714 H   0  0  0  0  0  0
    2.8877    8.0152  -21.9649 H   0  0  0  0  0  0
  1  2  2  0  0  0
  1  3  1  0  0  0
  1 34  1  0  0  0
  2  6  1  0  0  0
  2 35  1  0  0  0
  3  5  2  0  0  0
  3 27  1  0  0  0
  4  5  1  0  0  0
  4  6  2  0  0  0
  4 18  1  0  0  0
  5 24  1  0  0  0
  6 10  1  0  0  0
  7 10  2  0  0  0
  7 23  1  0  0  0
  7 33  1  0  0  0
  8 21  1  0  0  0
  8 22  1  0  0  0
  8 36  1  0  0  0
  8 37  1  0  0  0
  9 21  1  0  0  0
  9 31  1  0  0  0
  9 38  1  0  0  0
  9 39  1  0  0  0
 10 40  1  0  0  0
 11 12  1  0  0  0
 11 14  2  0  0  0
 11 15  1  0  0  0
 12 17  1  0  0  0
 12 28  2  0  0  0
 13 28  1  0  0  0
 13 29  2  0  0  0
 13 58  1  0  0  0
 14 29  1  0  0  0
 14 31  1  0  0  0
 15 30  2  0  0  0
 15 41  1  0  0  0
 16 17  2  0  0  0
 16 18  1  0  0  0
 16 30  1  0  0  0
 17 26  1  0  0  0
 18 23  2  0  0  0
 19 20  1  0  0  0
 19 31  1  0  0  0
 19 42  1  0  0  0
 19 43  1  0  0  0
 20 22  1  0  0  0
 20 32  1  0  0  0
 20 44  1  0  0  0
 21 32  1  0  0  0
 21 45  1  0  0  0
 22 46  1  0  0  0
 22 47  1  0  0  0
 23 48  1  0  0  0
 24 25  3  0  0  0
 25 49  1  0  0  0
 32 50  1  0  0  0
 33 51  1  0  0  0
 52 53  1  0  0  0
 52 57  1  0  0  0
 52 59  1  0  0  0
 52 60  1  0  0  0
 53 56  1  0  0  0
 53 61  1  0  0  0
 53 62  1  0  0  0
 54 55  1  0  0  0
 54 56  1  0  0  0
 54 63  1  0  0  0
 54 64  1  0  0  0
 55 58  1  0  0  0
 55 65  1  0  0  0
 55 66  1  0  0  0
 56 67  1  0  0  0
 56 68  1  0  0  0
 57 69  1  0  0  0
 57 70  1  0  0  0
 57 71  1  0  0  0
 58 72  1  0  0  0
 58 73  1  0  0  0
M  CHG  1  52   1
M  END
> <s_m_entry_id>
187

> <s_m_entry_name>
000000029.1

> <s_m_Source_Path>
/Users/zaksoul/Documents/3r_UNI/2nd_SEMESTER/BSC/FRAG_RECON/RESULTS/2

> <s_m_Source_File>
000000029.mol2

> <i_m_Source_File_Index>
1

$$$$
No_0_30
                    3D
 Schrodinger Suite 2022-4.
 71 77  0  0  1  0            999 V2000
   -4.9210    3.7970  -21.8720 C   0  0  0  0  0  0
   -5.1820    4.0480  -23.1980 C   0  0  0  0  0  0
   -3.6940    3.4810  -21.5460 C   0  0  0  0  0  0
   -2.8020    3.6570  -23.7080 C   0  0  0  0  0  0
   -2.6480    3.3500  -22.2980 C   0  0  0  0  0  0
   -4.1390    3.9930  -24.2130 C   0  0  0  0  0  0
   -3.3880    4.0710  -26.4120 C   0  0  0  0  0  0
    6.3140    2.7420  -21.2120 C   0  0  0  0  0  0
    6.1770    2.9900  -23.7540 C   0  0  0  0  0  0
   -4.3870    4.1830  -25.5420 C   0  0  0  0  0  0
    2.4170    3.6890  -23.7370 C   0  0  0  0  0  0
    1.6410    4.8170  -23.3910 C   0  0  0  0  0  0
    3.4870    5.9120  -22.6710 C   0  0  0  0  0  0
    3.8240    3.8120  -23.4210 C   0  0  0  0  0  0
    1.8250    2.6220  -24.4390 C   0  0  0  0  0  0
   -0.2680    3.5140  -24.2900 C   0  0  0  0  0  0
    0.3080    4.6880  -23.6450 C   0  0  0  0  0  0
   -1.7200    3.5920  -24.6380 C   0  0  0  0  0  0
    4.3300    1.2820  -23.2290 C   0  0  0  0  0  0
    5.2510    0.8440  -22.1010 C   0  0  2  0  0  0
    6.9030    2.3400  -22.5820 C   0  0  2  0  0  0
    5.2750    1.7990  -20.8950 C   0  0  0  0  0  0
   -2.0420    3.8210  -26.0580 C   0  0  0  0  0  0
   -1.3210    2.8600  -21.7210 C   0  0  0  0  0  0
   -0.3040    2.4520  -21.2330 C   0  0  0  0  0  0
   -0.4900    5.7520  -23.2570 F   0  0  0  0  0  0
   -3.4900    3.1760  -20.1750 F   0  0  0  0  0  0
    2.1660    5.9340  -22.8160 N   0  0  0  0  0  0
    4.3440    4.9240  -22.9320 N   0  0  0  0  0  0
    0.5160    2.5960  -24.7430 N   0  0  0  0  0  0
    4.6990    2.7350  -23.6420 N   0  0  0  0  0  0
    6.6580    0.8740  -22.5850 N   0  0  1  0  0  0
   -3.5620    4.1470  -27.7990 O   0  0  0  0  0  0
   -5.7185    3.8632  -21.1407 H   0  0  0  0  0  0
   -6.1885    4.2959  -23.5151 H   0  0  0  0  0  0
    5.8833    3.7518  -21.2816 H   0  0  0  0  0  0
    7.1015    2.6915  -20.4457 H   0  0  0  0  0  0
    6.5515    2.5670  -24.6978 H   0  0  0  0  0  0
    6.3626    4.0742  -23.7449 H   0  0  0  0  0  0
   -5.3898    4.4219  -25.8773 H   0  0  0  0  0  0
    2.4300    1.7802  -24.7560 H   0  0  0  0  0  0
    3.2863    1.2537  -22.8828 H   0  0  0  0  0  0
    4.4622    0.6111  -24.0906 H   0  0  0  0  0  0
    4.9865   -0.1717  -21.7719 H   0  0  0  0  0  0
    7.9808    2.5560  -22.6224 H   0  0  0  0  0  0
    4.3122    2.3268  -20.8294 H   0  0  0  0  0  0
    5.5566    1.2379  -19.9918 H   0  0  0  0  0  0
   -1.2751    3.7999  -26.8239 H   0  0  0  0  0  0
    0.5911    2.0929  -20.8029 H   0  0  0  0  0  0
    7.2866    0.3234  -21.9008 H   0  0  0  0  0  0
   -2.7223    4.0420  -28.2307 H   0  0  0  0  0  0
    6.0940    9.7150  -21.3150 N   0  3  0  0  0  0
    7.4780   10.1630  -21.0640 C   0  0  0  0  0  0
    7.1420    8.7450  -21.6960 C   0  0  0  0  0  0
    3.7940    9.1460  -20.4670 C   0  0  0  0  0  0
    5.2610    9.4360  -20.0950 C   0  0  0  0  0  0
    4.1010    7.2090  -22.1530 C   0  0  0  0  0  0
    3.5210    7.6680  -20.8000 C   0  0  0  0  0  0
    5.6167   10.1683  -22.0784 H   0  0  0  0  0  0
    7.5550    9.8501  -20.0123 H   0  0  0  0  0  0
    7.6340   10.7179  -22.0009 H   0  0  0  0  0  0
    7.2310    9.0229  -22.7566 H   0  0  0  0  0  0
    7.1530    8.1549  -20.7678 H   0  0  0  0  0  0
    3.5031    9.7729  -21.3228 H   0  0  0  0  0  0
    3.1391    9.4609  -19.6412 H   0  0  0  0  0  0
    5.3030   10.3011  -19.4169 H   0  0  0  0  0  0
    5.6788    8.5734  -19.5552 H   0  0  0  0  0  0
    5.1901    7.0860  -22.0600 H   0  0  0  0  0  0
    3.9590    8.0039  -22.8999 H   0  0  0  0  0  0
    2.4364    7.4851  -20.7880 H   0  0  0  0  0  0
    3.9220    7.0320  -19.9970 H   0  0  0  0  0  0
  1  2  2  0  0  0
  1  3  1  0  0  0
  1 34  1  0  0  0
  2  6  1  0  0  0
  2 35  1  0  0  0
  3  5  2  0  0  0
  3 27  1  0  0  0
  4  5  1  0  0  0
  4  6  2  0  0  0
  4 18  1  0  0  0
  5 24  1  0  0  0
  6 10  1  0  0  0
  7 10  2  0  0  0
  7 23  1  0  0  0
  7 33  1  0  0  0
  8 21  1  0  0  0
  8 22  1  0  0  0
  8 36  1  0  0  0
  8 37  1  0  0  0
  9 21  1  0  0  0
  9 31  1  0  0  0
  9 38  1  0  0  0
  9 39  1  0  0  0
 10 40  1  0  0  0
 11 12  1  0  0  0
 11 14  2  0  0  0
 11 15  1  0  0  0
 12 17  1  0  0  0
 12 28  2  0  0  0
 13 28  1  0  0  0
 13 29  2  0  0  0
 13 57  1  0  0  0
 14 29  1  0  0  0
 14 31  1  0  0  0
 15 30  2  0  0  0
 15 41  1  0  0  0
 16 17  2  0  0  0
 16 18  1  0  0  0
 16 30  1  0  0  0
 17 26  1  0  0  0
 18 23  2  0  0  0
 19 20  1  0  0  0
 19 31  1  0  0  0
 19 42  1  0  0  0
 19 43  1  0  0  0
 20 22  1  0  0  0
 20 32  1  0  0  0
 20 44  1  0  0  0
 21 32  1  0  0  0
 21 45  1  0  0  0
 22 46  1  0  0  0
 22 47  1  0  0  0
 23 48  1  0  0  0
 24 25  3  0  0  0
 25 49  1  0  0  0
 32 50  1  0  0  0
 33 51  1  0  0  0
 52 53  1  0  0  0
 52 54  1  0  0  0
 52 56  1  0  0  0
 52 59  1  0  0  0
 53 54  1  0  0  0
 53 60  1  0  0  0
 53 61  1  0  0  0
 54 62  1  0  0  0
 54 63  1  0  0  0
 55 56  1  0  0  0
 55 58  1  0  0  0
 55 64  1  0  0  0
 55 65  1  0  0  0
 56 66  1  0  0  0
 56 67  1  0  0  0
 57 58  1  0  0  0
 57 68  1  0  0  0
 57 69  1  0  0  0
 58 70  1  0  0  0
 58 71  1  0  0  0
M  CHG  1  52   1
M  END
> <s_m_entry_id>
188

> <s_m_entry_name>
000000030.1

> <s_m_Source_Path>
/Users/zaksoul/Documents/3r_UNI/2nd_SEMESTER/BSC/FRAG_RECON/RESULTS/2

> <s_m_Source_File>
000000030.mol2

> <i_m_Source_File_Index>
1

$$$$
No_0_31
                    3D
 Schrodinger Suite 2022-4.
 71 77  0  0  1  0            999 V2000
   -5.1810    3.6090  -21.8530 C   0  0  0  0  0  0
   -5.4520    3.8050  -23.1860 C   0  0  0  0  0  0
   -3.9420    3.3510  -21.5190 C   0  0  0  0  0  0
   -3.0590    3.4860  -23.6870 C   0  0  0  0  0  0
   -2.8930    3.2340  -22.2690 C   0  0  0  0  0  0
   -4.4090    3.7540  -24.2010 C   0  0  0  0  0  0
   -3.6630    3.7850  -26.4030 C   0  0  0  0  0  0
    6.0870    3.0010  -21.1820 C   0  0  0  0  0  0
    5.9380    3.1560  -23.7310 C   0  0  0  0  0  0
   -4.6650    3.8890  -25.5350 C   0  0  0  0  0  0
    2.1540    3.7130  -23.7290 C   0  0  0  0  0  0
    1.3370    4.8230  -23.4210 C   0  0  0  0  0  0
    3.1410    6.0110  -22.7430 C   0  0  0  0  0  0
    3.5570    3.8990  -23.4210 C   0  0  0  0  0  0
    1.6030    2.6010  -24.3930 C   0  0  0  0  0  0
   -0.5220    3.4190  -24.2700 C   0  0  0  0  0  0
    0.0100    4.6350  -23.6670 C   0  0  0  0  0  0
   -1.9770    3.4300  -24.6180 C   0  0  0  0  0  0
    4.1570    1.3990  -23.1440 C   0  0  0  0  0  0
    5.0950    1.0350  -22.0030 C   0  0  2  0  0  0
    6.6890    2.5740  -22.5390 C   0  0  2  0  0  0
    5.0840    2.0310  -20.8310 C   0  0  0  0  0  0
   -2.3080    3.5970  -26.0440 C   0  0  0  0  0  0
   -1.5470    2.8150  -21.6780 C   0  0  0  0  0  0
   -0.5150    2.4620  -21.1780 C   0  0  0  0  0  0
   -0.8280    5.6800  -23.3140 F   0  0  0  0  0  0
   -3.7260    3.1020  -20.1390 F   0  0  0  0  0  0
    1.8200    5.9780  -22.8860 N   0  0  0  0  0  0
    4.0350    5.0470  -22.9720 N   0  0  0  0  0  0
    0.2950    2.5160  -24.6930 N   0  0  0  0  0  0
    4.4710    2.8500  -23.6070 N   0  0  0  0  0  0
    6.5000    1.1010  -22.4910 N   0  0  1  0  0  0
   -3.8410    3.8060  -27.7920 O   0  0  0  0  0  0
   -5.9796    3.6712  -21.1226 H   0  0  0  0  0  0
   -6.4675    4.0037  -23.5091 H   0  0  0  0  0  0
    5.6179    3.9906  -21.2849 H   0  0  0  0  0  0
    6.8763    3.0060  -20.4159 H   0  0  0  0  0  0
    6.3275    2.7150  -24.6604 H   0  0  0  0  0  0
    6.0833    4.2460  -23.7593 H   0  0  0  0  0  0
   -5.6765    4.0776  -25.8762 H   0  0  0  0  0  0
    2.2385    1.7718  -24.6821 H   0  0  0  0  0  0
    3.1157    1.3435  -22.7939 H   0  0  0  0  0  0
    4.3144    0.7047  -23.9826 H   0  0  0  0  0  0
    4.8700    0.0218  -21.6387 H   0  0  0  0  0  0
    7.7578    2.8293  -22.5885 H   0  0  0  0  0  0
    4.1018    2.5236  -20.7805 H   0  0  0  0  0  0
    5.3877    1.5123  -19.9097 H   0  0  0  0  0  0
   -1.5411    3.5789  -26.8099 H   0  0  0  0  0  0
    0.3934    2.1519  -20.7378 H   0  0  0  0  0  0
    7.1492    0.5983  -21.7894 H   0  0  0  0  0  0
   -2.9984    3.7179  -28.2217 H   0  0  0  0  0  0
    5.5410   10.0400  -21.6960 N   0  3  0  0  0  0
    6.8860   10.6500  -21.7220 C   0  0  0  0  0  0
    6.5770    9.2350  -22.3760 C   0  0  0  0  0  0
    3.5760    9.1370  -20.4090 C   0  0  0  0  0  0
    5.0470    9.5930  -20.3490 C   0  0  0  0  0  0
    3.7060    7.3460  -22.2710 C   0  0  0  0  0  0
    3.4030    7.6550  -20.7920 C   0  0  0  0  0  0
    4.8537   10.4682  -22.2963 H   0  0  0  0  0  0
    7.2361   10.2939  -20.7419 H   0  0  0  0  0  0
    6.7580   11.2680  -22.6230 H   0  0  0  0  0  0
    6.3880    9.5780  -23.4039 H   0  0  0  0  0  0
    6.8670    8.6040  -21.5230 H   0  0  0  0  0  0
    3.0283    9.7656  -21.1266 H   0  0  0  0  0  0
    3.0958    9.3211  -19.4366 H   0  0  0  0  0  0
    5.1439   10.4203  -19.6306 H   0  0  0  0  0  0
    5.6725    8.7643  -19.9857 H   0  0  0  0  0  0
    4.7942    7.3590  -22.4310 H   0  0  0  0  0  0
    3.3079    8.1542  -22.9021 H   0  0  0  0  0  0
    2.3777    7.3349  -20.5549 H   0  0  0  0  0  0
    4.0470    7.0360  -20.1500 H   0  0  0  0  0  0
  1  2  2  0  0  0
  1  3  1  0  0  0
  1 34  1  0  0  0
  2  6  1  0  0  0
  2 35  1  0  0  0
  3  5  2  0  0  0
  3 27  1  0  0  0
  4  5  1  0  0  0
  4  6  2  0  0  0
  4 18  1  0  0  0
  5 24  1  0  0  0
  6 10  1  0  0  0
  7 10  2  0  0  0
  7 23  1  0  0  0
  7 33  1  0  0  0
  8 21  1  0  0  0
  8 22  1  0  0  0
  8 36  1  0  0  0
  8 37  1  0  0  0
  9 21  1  0  0  0
  9 31  1  0  0  0
  9 38  1  0  0  0
  9 39  1  0  0  0
 10 40  1  0  0  0
 11 12  1  0  0  0
 11 14  2  0  0  0
 11 15  1  0  0  0
 12 17  1  0  0  0
 12 28  2  0  0  0
 13 28  1  0  0  0
 13 29  2  0  0  0
 13 57  1  0  0  0
 14 29  1  0  0  0
 14 31  1  0  0  0
 15 30  2  0  0  0
 15 41  1  0  0  0
 16 17  2  0  0  0
 16 18  1  0  0  0
 16 30  1  0  0  0
 17 26  1  0  0  0
 18 23  2  0  0  0
 19 20  1  0  0  0
 19 31  1  0  0  0
 19 42  1  0  0  0
 19 43  1  0  0  0
 20 22  1  0  0  0
 20 32  1  0  0  0
 20 44  1  0  0  0
 21 32  1  0  0  0
 21 45  1  0  0  0
 22 46  1  0  0  0
 22 47  1  0  0  0
 23 48  1  0  0  0
 24 25  3  0  0  0
 25 49  1  0  0  0
 32 50  1  0  0  0
 33 51  1  0  0  0
 52 53  1  0  0  0
 52 54  1  0  0  0
 52 56  1  0  0  0
 52 59  1  0  0  0
 53 54  1  0  0  0
 53 60  1  0  0  0
 53 61  1  0  0  0
 54 62  1  0  0  0
 54 63  1  0  0  0
 55 56  1  0  0  0
 55 58  1  0  0  0
 55 64  1  0  0  0
 55 65  1  0  0  0
 56 66  1  0  0  0
 56 67  1  0  0  0
 57 58  1  0  0  0
 57 68  1  0  0  0
 57 69  1  0  0  0
 58 70  1  0  0  0
 58 71  1  0  0  0
M  CHG  1  52   1
M  END
> <s_m_entry_id>
189

> <s_m_entry_name>
000000031.1

> <s_m_Source_Path>
/Users/zaksoul/Documents/3r_UNI/2nd_SEMESTER/BSC/FRAG_RECON/RESULTS/2

> <s_m_Source_File>
000000031.mol2

> <i_m_Source_File_Index>
1

$$$$
No_0_32
                    3D
 Schrodinger Suite 2022-4.
 71 77  0  0  1  0            999 V2000
   -5.1810    3.6090  -21.8530 C   0  0  0  0  0  0
   -5.4520    3.8050  -23.1860 C   0  0  0  0  0  0
   -3.9420    3.3510  -21.5190 C   0  0  0  0  0  0
   -3.0590    3.4860  -23.6870 C   0  0  0  0  0  0
   -2.8930    3.2340  -22.2690 C   0  0  0  0  0  0
   -4.4090    3.7540  -24.2010 C   0  0  0  0  0  0
   -3.6630    3.7850  -26.4030 C   0  0  0  0  0  0
    6.0870    3.0010  -21.1820 C   0  0  0  0  0  0
    5.9380    3.1560  -23.7310 C   0  0  0  0  0  0
   -4.6650    3.8890  -25.5350 C   0  0  0  0  0  0
    2.1540    3.7130  -23.7290 C   0  0  0  0  0  0
    1.3370    4.8230  -23.4210 C   0  0  0  0  0  0
    3.1410    6.0110  -22.7430 C   0  0  0  0  0  0
    3.5570    3.8990  -23.4210 C   0  0  0  0  0  0
    1.6030    2.6010  -24.3930 C   0  0  0  0  0  0
   -0.5220    3.4190  -24.2700 C   0  0  0  0  0  0
    0.0100    4.6350  -23.6670 C   0  0  0  0  0  0
   -1.9770    3.4300  -24.6180 C   0  0  0  0  0  0
    4.1570    1.3990  -23.1440 C   0  0  0  0  0  0
    5.0950    1.0350  -22.0030 C   0  0  2  0  0  0
    6.6890    2.5740  -22.5390 C   0  0  2  0  0  0
    5.0840    2.0310  -20.8310 C   0  0  0  0  0  0
   -2.3080    3.5970  -26.0440 C   0  0  0  0  0  0
   -1.5470    2.8150  -21.6780 C   0  0  0  0  0  0
   -0.5150    2.4620  -21.1780 C   0  0  0  0  0  0
   -0.8280    5.6800  -23.3140 F   0  0  0  0  0  0
   -3.7260    3.1020  -20.1390 F   0  0  0  0  0  0
    1.8200    5.9780  -22.8860 N   0  0  0  0  0  0
    4.0350    5.0470  -22.9720 N   0  0  0  0  0  0
    0.2950    2.5160  -24.6930 N   0  0  0  0  0  0
    4.4710    2.8500  -23.6070 N   0  0  0  0  0  0
    6.5000    1.1010  -22.4910 N   0  0  1  0  0  0
   -3.8410    3.8060  -27.7920 O   0  0  0  0  0  0
   -5.9796    3.6712  -21.1226 H   0  0  0  0  0  0
   -6.4675    4.0037  -23.5091 H   0  0  0  0  0  0
    5.6179    3.9906  -21.2849 H   0  0  0  0  0  0
    6.8763    3.0060  -20.4159 H   0  0  0  0  0  0
    6.3275    2.7150  -24.6604 H   0  0  0  0  0  0
    6.0833    4.2460  -23.7593 H   0  0  0  0  0  0
   -5.6765    4.0776  -25.8762 H   0  0  0  0  0  0
    2.2385    1.7718  -24.6821 H   0  0  0  0  0  0
    3.1157    1.3435  -22.7939 H   0  0  0  0  0  0
    4.3144    0.7047  -23.9826 H   0  0  0  0  0  0
    4.8700    0.0218  -21.6387 H   0  0  0  0  0  0
    7.7578    2.8293  -22.5885 H   0  0  0  0  0  0
    4.1018    2.5236  -20.7805 H   0  0  0  0  0  0
    5.3877    1.5123  -19.9097 H   0  0  0  0  0  0
   -1.5411    3.5789  -26.8099 H   0  0  0  0  0  0
    0.3934    2.1519  -20.7378 H   0  0  0  0  0  0
    7.1492    0.5983  -21.7894 H   0  0  0  0  0  0
   -2.9984    3.7179  -28.2217 H   0  0  0  0  0  0
    5.4340   10.1360  -21.8390 N   0  3  0  0  0  0
    6.6910   10.8660  -22.1000 C   0  0  0  0  0  0
    6.3380    9.4910  -22.8140 C   0  0  0  0  0  0
    3.8850    8.9500  -20.2490 C   0  0  0  0  0  0
    5.2950    9.5310  -20.4700 C   0  0  0  0  0  0
    3.7060    7.3460  -22.2710 C   0  0  0  0  0  0
    3.7320    7.4970  -20.7370 C   0  0  0  0  0  0
    4.5987   10.5497  -22.2227 H   0  0  0  0  0  0
    7.2814   10.4597  -21.2655 H   0  0  0  0  0  0
    6.3162   11.5456  -22.8795 H   0  0  0  0  0  0
    5.8939    9.9031  -23.7321 H   0  0  0  0  0  0
    6.8590    8.8170  -22.1180 H   0  0  0  0  0  0
    3.1445    9.5856  -20.7567 H   0  0  0  0  0  0
    3.6310    9.0050  -19.1801 H   0  0  0  0  0  0
    5.4990   10.2988  -19.7092 H   0  0  0  0  0  0
    6.0439    8.7351  -20.3450 H   0  0  0  0  0  0
    4.7246    7.4719  -22.6668 H   0  0  0  0  0  0
    3.1180    8.1660  -22.7090 H   0  0  0  0  0  0
    2.8134    7.0652  -20.3132 H   0  0  0  0  0  0
    4.5481    6.8859  -20.3240 H   0  0  0  0  0  0
  1  2  2  0  0  0
  1  3  1  0  0  0
  1 34  1  0  0  0
  2  6  1  0  0  0
  2 35  1  0  0  0
  3  5  2  0  0  0
  3 27  1  0  0  0
  4  5  1  0  0  0
  4  6  2  0  0  0
  4 18  1  0  0  0
  5 24  1  0  0  0
  6 10  1  0  0  0
  7 10  2  0  0  0
  7 23  1  0  0  0
  7 33  1  0  0  0
  8 21  1  0  0  0
  8 22  1  0  0  0
  8 36  1  0  0  0
  8 37  1  0  0  0
  9 21  1  0  0  0
  9 31  1  0  0  0
  9 38  1  0  0  0
  9 39  1  0  0  0
 10 40  1  0  0  0
 11 12  1  0  0  0
 11 14  2  0  0  0
 11 15  1  0  0  0
 12 17  1  0  0  0
 12 28  2  0  0  0
 13 28  1  0  0  0
 13 29  2  0  0  0
 13 57  1  0  0  0
 14 29  1  0  0  0
 14 31  1  0  0  0
 15 30  2  0  0  0
 15 41  1  0  0  0
 16 17  2  0  0  0
 16 18  1  0  0  0
 16 30  1  0  0  0
 17 26  1  0  0  0
 18 23  2  0  0  0
 19 20  1  0  0  0
 19 31  1  0  0  0
 19 42  1  0  0  0
 19 43  1  0  0  0
 20 22  1  0  0  0
 20 32  1  0  0  0
 20 44  1  0  0  0
 21 32  1  0  0  0
 21 45  1  0  0  0
 22 46  1  0  0  0
 22 47  1  0  0  0
 23 48  1  0  0  0
 24 25  3  0  0  0
 25 49  1  0  0  0
 32 50  1  0  0  0
 33 51  1  0  0  0
 52 53  1  0  0  0
 52 54  1  0  0  0
 52 56  1  0  0  0
 52 59  1  0  0  0
 53 54  1  0  0  0
 53 60  1  0  0  0
 53 61  1  0  0  0
 54 62  1  0  0  0
 54 63  1  0  0  0
 55 56  1  0  0  0
 55 58  1  0  0  0
 55 64  1  0  0  0
 55 65  1  0  0  0
 56 66  1  0  0  0
 56 67  1  0  0  0
 57 58  1  0  0  0
 57 68  1  0  0  0
 57 69  1  0  0  0
 58 70  1  0  0  0
 58 71  1  0  0  0
M  CHG  1  52   1
M  END
> <s_m_entry_id>
190

> <s_m_entry_name>
000000032.1

> <s_m_Source_Path>
/Users/zaksoul/Documents/3r_UNI/2nd_SEMESTER/BSC/FRAG_RECON/RESULTS/2

> <s_m_Source_File>
000000032.mol2

> <i_m_Source_File_Index>
1

$$$$
No_0_33
                    3D
 Schrodinger Suite 2022-4.
 71 77  0  0  1  0            999 V2000
   -5.0900    3.6780  -22.0010 C   0  0  0  0  0  0
   -5.3660    3.8820  -23.3330 C   0  0  0  0  0  0
   -3.8470    3.4340  -21.6700 C   0  0  0  0  0  0
   -2.9690    3.6010  -23.8390 C   0  0  0  0  0  0
   -2.7980    3.3380  -22.4220 C   0  0  0  0  0  0
   -4.3220    3.8550  -24.3490 C   0  0  0  0  0  0
   -3.5790    3.9150  -26.5500 C   0  0  0  0  0  0
    6.1860    3.2200  -21.3460 C   0  0  0  0  0  0
    6.0320    3.3960  -23.8930 C   0  0  0  0  0  0
   -4.5820    3.9980  -25.6810 C   0  0  0  0  0  0
    2.2410    3.9010  -23.8830 C   0  0  0  0  0  0
    1.4090    4.9950  -23.5640 C   0  0  0  0  0  0
    3.1970    6.2020  -22.8770 C   0  0  0  0  0  0
    3.6410    4.1030  -23.5740 C   0  0  0  0  0  0
    1.7040    2.7860  -24.5570 C   0  0  0  0  0  0
   -0.4320    3.5740  -24.4240 C   0  0  0  0  0  0
    0.0840    4.7920  -23.8110 C   0  0  0  0  0  0
   -1.8870    3.5680  -24.7700 C   0  0  0  0  0  0
    4.2760    1.6080  -23.3200 C   0  0  0  0  0  0
    5.2200    1.2480  -22.1830 C   0  0  2  0  0  0
    6.7930    2.8140  -22.7070 C   0  0  2  0  0  0
    5.1970    2.2320  -21.0030 C   0  0  0  0  0  0
   -2.2220    3.7440  -26.1940 C   0  0  0  0  0  0
   -1.4460    2.9320  -21.8370 C   0  0  0  0  0  0
   -0.4090    2.5890  -21.3410 C   0  0  0  0  0  0
   -0.7680    5.8220  -23.4470 F   0  0  0  0  0  0
   -3.6270    3.1750  -20.2930 F   0  0  0  0  0  0
    1.8760    6.1520  -23.0190 N   0  0  0  0  0  0
    4.1030    5.2530  -23.1150 N   0  0  0  0  0  0
    0.3970    2.6860  -24.8560 N   0  0  0  0  0  0
    4.5700    3.0680  -23.7710 N   0  0  0  0  0  0
    6.6230    1.3370  -22.6720 N   0  0  1  0  0  0
   -3.7600    3.9470  -27.9390 O   0  0  0  0  0  0
   -5.8887    3.7222  -21.2695 H   0  0  0  0  0  0
   -6.3844    4.0698  -23.6534 H   0  0  0  0  0  0
    5.7027    4.2037  -21.4398 H   0  0  0  0  0  0
    6.9763    3.2291  -20.5809 H   0  0  0  0  0  0
    6.4266    2.9681  -24.8264 H   0  0  0  0  0  0
    6.1622    4.4881  -23.9112 H   0  0  0  0  0  0
   -5.5965    4.1756  -26.0192 H   0  0  0  0  0  0
    2.3510    1.9683  -24.8534 H   0  0  0  0  0  0
    3.2357    1.5354  -22.9699 H   0  0  0  0  0  0
    4.4416    0.9235  -24.1650 H   0  0  0  0  0  0
    5.0092    0.2284  -21.8280 H   0  0  0  0  0  0
    7.8583    3.0836  -22.7555 H   0  0  0  0  0  0
    4.2084    2.7112  -20.9475 H   0  0  0  0  0  0
    5.5076    1.7095  -20.0862 H   0  0  0  0  0  0
   -1.4565    3.7430  -26.9615 H   0  0  0  0  0  0
    0.5044    2.2879  -20.9048 H   0  0  0  0  0  0
    7.2806    0.8376  -21.9759 H   0  0  0  0  0  0
   -2.9165    3.8748  -28.3701 H   0  0  0  0  0  0
    5.2880   10.4480  -22.0420 N   0  3  0  0  0  0
    6.3850   11.3280  -22.4910 C   0  0  0  0  0  0
    5.9900    9.9950  -23.2610 C   0  0  0  0  0  0
    4.2550    8.9620  -20.2930 C   0  0  0  0  0  0
    5.5220    9.7080  -20.7550 C   0  0  0  0  0  0
    3.7440    7.5410  -22.3940 C   0  0  0  0  0  0
    4.1130    7.5520  -20.8970 C   0  0  0  0  0  0
    4.3551   10.8040  -22.1800 H   0  0  0  0  0  0
    7.1853   10.9128  -21.8608 H   0  0  0  0  0  0
    5.7850   12.0330  -23.0850 H   0  0  0  0  0  0
    5.3126   10.4403  -24.0045 H   0  0  0  0  0  0
    6.7132    9.3197  -22.7805 H   0  0  0  0  0  0
    3.3668    9.5591  -20.5471 H   0  0  0  0  0  0
    4.2540    8.8900  -19.1954 H   0  0  0  0  0  0
    5.8329   10.4188  -19.9752 H   0  0  0  0  0  0
    6.3422    8.9877  -20.8909 H   0  0  0  0  0  0
    4.6282    7.8110  -22.9901 H   0  0  0  0  0  0
    3.0049    8.3311  -22.5930 H   0  0  0  0  0  0
    3.3579    6.9869  -20.3309 H   0  0  0  0  0  0
    5.0507    6.9962  -20.7491 H   0  0  0  0  0  0
  1  2  2  0  0  0
  1  3  1  0  0  0
  1 34  1  0  0  0
  2  6  1  0  0  0
  2 35  1  0  0  0
  3  5  2  0  0  0
  3 27  1  0  0  0
  4  5  1  0  0  0
  4  6  2  0  0  0
  4 18  1  0  0  0
  5 24  1  0  0  0
  6 10  1  0  0  0
  7 10  2  0  0  0
  7 23  1  0  0  0
  7 33  1  0  0  0
  8 21  1  0  0  0
  8 22  1  0  0  0
  8 36  1  0  0  0
  8 37  1  0  0  0
  9 21  1  0  0  0
  9 31  1  0  0  0
  9 38  1  0  0  0
  9 39  1  0  0  0
 10 40  1  0  0  0
 11 12  1  0  0  0
 11 14  2  0  0  0
 11 15  1  0  0  0
 12 17  1  0  0  0
 12 28  2  0  0  0
 13 28  1  0  0  0
 13 29  2  0  0  0
 13 57  1  0  0  0
 14 29  1  0  0  0
 14 31  1  0  0  0
 15 30  2  0  0  0
 15 41  1  0  0  0
 16 17  2  0  0  0
 16 18  1  0  0  0
 16 30  1  0  0  0
 17 26  1  0  0  0
 18 23  2  0  0  0
 19 20  1  0  0  0
 19 31  1  0  0  0
 19 42  1  0  0  0
 19 43  1  0  0  0
 20 22  1  0  0  0
 20 32  1  0  0  0
 20 44  1  0  0  0
 21 32  1  0  0  0
 21 45  1  0  0  0
 22 46  1  0  0  0
 22 47  1  0  0  0
 23 48  1  0  0  0
 24 25  3  0  0  0
 25 49  1  0  0  0
 32 50  1  0  0  0
 33 51  1  0  0  0
 52 53  1  0  0  0
 52 54  1  0  0  0
 52 56  1  0  0  0
 52 59  1  0  0  0
 53 54  1  0  0  0
 53 60  1  0  0  0
 53 61  1  0  0  0
 54 62  1  0  0  0
 54 63  1  0  0  0
 55 56  1  0  0  0
 55 58  1  0  0  0
 55 64  1  0  0  0
 55 65  1  0  0  0
 56 66  1  0  0  0
 56 67  1  0  0  0
 57 58  1  0  0  0
 57 68  1  0  0  0
 57 69  1  0  0  0
 58 70  1  0  0  0
 58 71  1  0  0  0
M  CHG  1  52   1
M  END
> <s_m_entry_id>
191

> <s_m_entry_name>
000000033.1

> <s_m_Source_Path>
/Users/zaksoul/Documents/3r_UNI/2nd_SEMESTER/BSC/FRAG_RECON/RESULTS/2

> <s_m_Source_File>
000000033.mol2

> <i_m_Source_File_Index>
1

$$$$
No_0_34
                    3D
 Schrodinger Suite 2022-4.
 71 77  0  0  1  0            999 V2000
   -5.2230    3.7090  -21.9150 C   0  0  0  0  0  0
   -5.4970    3.8880  -23.2500 C   0  0  0  0  0  0
   -3.9810    3.4680  -21.5790 C   0  0  0  0  0  0
   -3.1010    3.5900  -23.7490 C   0  0  0  0  0  0
   -2.9320    3.3550  -22.3280 C   0  0  0  0  0  0
   -4.4530    3.8380  -24.2650 C   0  0  0  0  0  0
   -3.7090    3.8540  -26.4670 C   0  0  0  0  0  0
    6.0510    3.2320  -21.2440 C   0  0  0  0  0  0
    5.8990    3.3590  -23.7930 C   0  0  0  0  0  0
   -4.7120    3.9560  -25.6000 C   0  0  0  0  0  0
    2.1100    3.8750  -23.7960 C   0  0  0  0  0  0
    1.2810    4.9780  -23.4990 C   0  0  0  0  0  0
    3.0720    6.1930  -22.8340 C   0  0  0  0  0  0
    3.5100    4.0790  -23.4900 C   0  0  0  0  0  0
    1.5700    2.7490  -24.4480 C   0  0  0  0  0  0
   -0.5640    3.5450  -24.3320 C   0  0  0  0  0  0
   -0.0450    4.7730  -23.7420 C   0  0  0  0  0  0
   -2.0180    3.5370  -24.6790 C   0  0  0  0  0  0
    4.1380    1.5880  -23.1870 C   0  0  0  0  0  0
    5.0800    1.2470  -22.0430 C   0  0  2  0  0  0
    6.6570    2.7980  -22.5960 C   0  0  2  0  0  0
    5.0590    2.2540  -20.8810 C   0  0  0  0  0  0
   -2.3520    3.6850  -26.1070 C   0  0  0  0  0  0
   -1.5810    2.9560  -21.7340 C   0  0  0  0  0  0
   -0.5450    2.6200  -21.2310 C   0  0  0  0  0  0
   -0.8940    5.8130  -23.3990 F   0  0  0  0  0  0
   -3.7620    3.2350  -20.1960 F   0  0  0  0  0  0
    1.7500    6.1440  -22.9760 N   0  0  0  0  0  0
    3.9750    5.2360  -23.0530 N   0  0  0  0  0  0
    0.2630    2.6470  -24.7470 N   0  0  0  0  0  0
    4.4360    3.0380  -23.6660 N   0  0  0  0  0  0
    6.4840    1.3230  -22.5330 N   0  0  1  0  0  0
   -3.8880    3.8600  -27.8560 O   0  0  0  0  0  0
   -6.0222    3.7692  -21.1851 H   0  0  0  0  0  0
   -6.5145    4.0726  -23.5751 H   0  0  0  0  0  0
    5.5710    4.2153  -21.3570 H   0  0  0  0  0  0
    6.8402    3.2532  -20.4780 H   0  0  0  0  0  0
    6.2925    2.9130  -24.7183 H   0  0  0  0  0  0
    6.0322    4.4502  -23.8324 H   0  0  0  0  0  0
   -5.7256    4.1306  -25.9422 H   0  0  0  0  0  0
    2.2146    1.9237  -24.7281 H   0  0  0  0  0  0
    3.0972    1.5244  -22.8367 H   0  0  0  0  0  0
    4.3025    0.8868  -24.0184 H   0  0  0  0  0  0
    4.8661    0.2350  -21.6687 H   0  0  0  0  0  0
    7.7230    3.0642  -22.6484 H   0  0  0  0  0  0
    4.0720    2.7374  -20.8356 H   0  0  0  0  0  0
    5.3679    1.7482  -19.9543 H   0  0  0  0  0  0
   -1.5861    3.6679  -26.8739 H   0  0  0  0  0  0
    0.3668    2.3241  -20.7881 H   0  0  0  0  0  0
    7.1390    0.8347  -21.8267 H   0  0  0  0  0  0
   -3.0448    3.7759  -28.2855 H   0  0  0  0  0  0
    5.0020   10.5380  -22.1400 N   0  3  0  0  0  0
    5.9030   11.5370  -22.7490 C   0  0  0  0  0  0
    5.4340   10.2280  -23.5180 C   0  0  0  0  0  0
    4.5040    8.8580  -20.3330 C   0  0  0  0  0  0
    5.5770    9.7390  -21.0040 C   0  0  0  0  0  0
    3.6220    7.5390  -22.3760 C   0  0  0  0  0  0
    4.3240    7.4840  -21.0050 C   0  0  0  0  0  0
    4.0402   10.8209  -22.0350 H   0  0  0  0  0  0
    6.8530   11.1510  -22.3510 H   0  0  0  0  0  0
    5.1350   12.2250  -23.1320 H   0  0  0  0  0  0
    4.5748   10.6611  -24.0511 H   0  0  0  0  0  0
    6.2929    9.5871  -23.2700 H   0  0  0  0  0  0
    3.5425    9.3923  -20.3310 H   0  0  0  0  0  0
    4.7601    8.7160  -19.2727 H   0  0  0  0  0  0
    6.0091   10.4221  -20.2579 H   0  0  0  0  0  0
    6.3911    9.1019  -21.3800 H   0  0  0  0  0  0
    4.3241    7.9221  -23.1312 H   0  0  0  0  0  0
    2.8043    8.2738  -22.3380 H   0  0  0  0  0  0
    3.7598    6.8208  -20.3328 H   0  0  0  0  0  0
    5.3063    7.0018  -21.1170 H   0  0  0  0  0  0
  1  2  2  0  0  0
  1  3  1  0  0  0
  1 34  1  0  0  0
  2  6  1  0  0  0
  2 35  1  0  0  0
  3  5  2  0  0  0
  3 27  1  0  0  0
  4  5  1  0  0  0
  4  6  2  0  0  0
  4 18  1  0  0  0
  5 24  1  0  0  0
  6 10  1  0  0  0
  7 10  2  0  0  0
  7 23  1  0  0  0
  7 33  1  0  0  0
  8 21  1  0  0  0
  8 22  1  0  0  0
  8 36  1  0  0  0
  8 37  1  0  0  0
  9 21  1  0  0  0
  9 31  1  0  0  0
  9 38  1  0  0  0
  9 39  1  0  0  0
 10 40  1  0  0  0
 11 12  1  0  0  0
 11 14  2  0  0  0
 11 15  1  0  0  0
 12 17  1  0  0  0
 12 28  2  0  0  0
 13 28  1  0  0  0
 13 29  2  0  0  0
 13 57  1  0  0  0
 14 29  1  0  0  0
 14 31  1  0  0  0
 15 30  2  0  0  0
 15 41  1  0  0  0
 16 17  2  0  0  0
 16 18  1  0  0  0
 16 30  1  0  0  0
 17 26  1  0  0  0
 18 23  2  0  0  0
 19 20  1  0  0  0
 19 31  1  0  0  0
 19 42  1  0  0  0
 19 43  1  0  0  0
 20 22  1  0  0  0
 20 32  1  0  0  0
 20 44  1  0  0  0
 21 32  1  0  0  0
 21 45  1  0  0  0
 22 46  1  0  0  0
 22 47  1  0  0  0
 23 48  1  0  0  0
 24 25  3  0  0  0
 25 49  1  0  0  0
 32 50  1  0  0  0
 33 51  1  0  0  0
 52 53  1  0  0  0
 52 54  1  0  0  0
 52 56  1  0  0  0
 52 59  1  0  0  0
 53 54  1  0  0  0
 53 60  1  0  0  0
 53 61  1  0  0  0
 54 62  1  0  0  0
 54 63  1  0  0  0
 55 56  1  0  0  0
 55 58  1  0  0  0
 55 64  1  0  0  0
 55 65  1  0  0  0
 56 66  1  0  0  0
 56 67  1  0  0  0
 57 58  1  0  0  0
 57 68  1  0  0  0
 57 69  1  0  0  0
 58 70  1  0  0  0
 58 71  1  0  0  0
M  CHG  1  52   1
M  END
> <s_m_entry_id>
192

> <s_m_entry_name>
000000034.1

> <s_m_Source_Path>
/Users/zaksoul/Documents/3r_UNI/2nd_SEMESTER/BSC/FRAG_RECON/RESULTS/2

> <s_m_Source_File>
000000034.mol2

> <i_m_Source_File_Index>
1

$$$$
No_0_35
                    3D
 Schrodinger Suite 2022-4.
 71 77  0  0  1  0            999 V2000
   -5.1810    3.6090  -21.8530 C   0  0  0  0  0  0
   -5.4520    3.8050  -23.1860 C   0  0  0  0  0  0
   -3.9420    3.3510  -21.5190 C   0  0  0  0  0  0
   -3.0590    3.4860  -23.6870 C   0  0  0  0  0  0
   -2.8930    3.2340  -22.2690 C   0  0  0  0  0  0
   -4.4090    3.7540  -24.2010 C   0  0  0  0  0  0
   -3.6630    3.7850  -26.4030 C   0  0  0  0  0  0
    6.0870    3.0010  -21.1820 C   0  0  0  0  0  0
    5.9380    3.1560  -23.7310 C   0  0  0  0  0  0
   -4.6650    3.8890  -25.5350 C   0  0  0  0  0  0
    2.1540    3.7130  -23.7290 C   0  0  0  0  0  0
    1.3370    4.8230  -23.4210 C   0  0  0  0  0  0
    3.1410    6.0110  -22.7430 C   0  0  0  0  0  0
    3.5570    3.8990  -23.4210 C   0  0  0  0  0  0
    1.6030    2.6010  -24.3930 C   0  0  0  0  0  0
   -0.5220    3.4190  -24.2700 C   0  0  0  0  0  0
    0.0100    4.6350  -23.6670 C   0  0  0  0  0  0
   -1.9770    3.4300  -24.6180 C   0  0  0  0  0  0
    4.1570    1.3990  -23.1440 C   0  0  0  0  0  0
    5.0950    1.0350  -22.0030 C   0  0  2  0  0  0
    6.6890    2.5740  -22.5390 C   0  0  2  0  0  0
    5.0840    2.0310  -20.8310 C   0  0  0  0  0  0
   -2.3080    3.5970  -26.0440 C   0  0  0  0  0  0
   -1.5470    2.8150  -21.6780 C   0  0  0  0  0  0
   -0.5150    2.4620  -21.1780 C   0  0  0  0  0  0
   -0.8280    5.6800  -23.3140 F   0  0  0  0  0  0
   -3.7260    3.1020  -20.1390 F   0  0  0  0  0  0
    1.8200    5.9780  -22.8860 N   0  0  0  0  0  0
    4.0350    5.0470  -22.9720 N   0  0  0  0  0  0
    0.2950    2.5160  -24.6930 N   0  0  0  0  0  0
    4.4710    2.8500  -23.6070 N   0  0  0  0  0  0
    6.5000    1.1010  -22.4910 N   0  0  1  0  0  0
   -3.8410    3.8060  -27.7920 O   0  0  0  0  0  0
   -5.9796    3.6712  -21.1226 H   0  0  0  0  0  0
   -6.4675    4.0037  -23.5091 H   0  0  0  0  0  0
    5.6179    3.9906  -21.2849 H   0  0  0  0  0  0
    6.8763    3.0060  -20.4159 H   0  0  0  0  0  0
    6.3275    2.7150  -24.6604 H   0  0  0  0  0  0
    6.0833    4.2460  -23.7593 H   0  0  0  0  0  0
   -5.6765    4.0776  -25.8762 H   0  0  0  0  0  0
    2.2385    1.7718  -24.6821 H   0  0  0  0  0  0
    3.1157    1.3435  -22.7939 H   0  0  0  0  0  0
    4.3144    0.7047  -23.9826 H   0  0  0  0  0  0
    4.8700    0.0218  -21.6387 H   0  0  0  0  0  0
    7.7578    2.8293  -22.5885 H   0  0  0  0  0  0
    4.1018    2.5236  -20.7805 H   0  0  0  0  0  0
    5.3877    1.5123  -19.9097 H   0  0  0  0  0  0
   -1.5411    3.5789  -26.8099 H   0  0  0  0  0  0
    0.3934    2.1519  -20.7378 H   0  0  0  0  0  0
    7.1492    0.5983  -21.7894 H   0  0  0  0  0  0
   -2.9984    3.7179  -28.2217 H   0  0  0  0  0  0
    4.7080   10.4850  -21.9590 N   0  3  0  0  0  0
    5.0810   11.7390  -22.6440 C   0  0  0  0  0  0
    4.4290   10.5080  -23.4090 C   0  0  0  0  0  0
    5.3470    8.4590  -20.6090 C   0  0  0  0  0  0
    5.8490    9.6460  -21.4550 C   0  0  0  0  0  0
    3.7060    7.3460  -22.2710 C   0  0  0  0  0  0
    4.9980    7.2100  -21.4410 C   0  0  0  0  0  0
    3.9025   10.5380  -21.3554 H   0  0  0  0  0  0
    6.1371   11.5010  -22.8390 H   0  0  0  0  0  0
    4.1586   12.3043  -22.4449 H   0  0  0  0  0  0
    3.3796   10.8338  -23.3590 H   0  0  0  0  0  0
    5.3581   10.0300  -23.7530 H   0  0  0  0  0  0
    4.4644    8.7709  -20.0313 H   0  0  0  0  0  0
    6.1084    8.1969  -19.8596 H   0  0  0  0  0  0
    6.5225   10.2694  -20.8486 H   0  0  0  0  0  0
    6.4286    9.2663  -22.3094 H   0  0  0  0  0  0
    3.8980    7.9899  -23.1419 H   0  0  0  0  0  0
    2.9448    7.8751  -21.6789 H   0  0  0  0  0  0
    4.9120    6.3402  -20.7731 H   0  0  0  0  0  0
    5.8384    6.9709  -22.1093 H   0  0  0  0  0  0
  1  2  2  0  0  0
  1  3  1  0  0  0
  1 34  1  0  0  0
  2  6  1  0  0  0
  2 35  1  0  0  0
  3  5  2  0  0  0
  3 27  1  0  0  0
  4  5  1  0  0  0
  4  6  2  0  0  0
  4 18  1  0  0  0
  5 24  1  0  0  0
  6 10  1  0  0  0
  7 10  2  0  0  0
  7 23  1  0  0  0
  7 33  1  0  0  0
  8 21  1  0  0  0
  8 22  1  0  0  0
  8 36  1  0  0  0
  8 37  1  0  0  0
  9 21  1  0  0  0
  9 31  1  0  0  0
  9 38  1  0  0  0
  9 39  1  0  0  0
 10 40  1  0  0  0
 11 12  1  0  0  0
 11 14  2  0  0  0
 11 15  1  0  0  0
 12 17  1  0  0  0
 12 28  2  0  0  0
 13 28  1  0  0  0
 13 29  2  0  0  0
 13 57  1  0  0  0
 14 29  1  0  0  0
 14 31  1  0  0  0
 15 30  2  0  0  0
 15 41  1  0  0  0
 16 17  2  0  0  0
 16 18  1  0  0  0
 16 30  1  0  0  0
 17 26  1  0  0  0
 18 23  2  0  0  0
 19 20  1  0  0  0
 19 31  1  0  0  0
 19 42  1  0  0  0
 19 43  1  0  0  0
 20 22  1  0  0  0
 20 32  1  0  0  0
 20 44  1  0  0  0
 21 32  1  0  0  0
 21 45  1  0  0  0
 22 46  1  0  0  0
 22 47  1  0  0  0
 23 48  1  0  0  0
 24 25  3  0  0  0
 25 49  1  0  0  0
 32 50  1  0  0  0
 33 51  1  0  0  0
 52 53  1  0  0  0
 52 54  1  0  0  0
 52 56  1  0  0  0
 52 59  1  0  0  0
 53 54  1  0  0  0
 53 60  1  0  0  0
 53 61  1  0  0  0
 54 62  1  0  0  0
 54 63  1  0  0  0
 55 56  1  0  0  0
 55 58  1  0  0  0
 55 64  1  0  0  0
 55 65  1  0  0  0
 56 66  1  0  0  0
 56 67  1  0  0  0
 57 58  1  0  0  0
 57 68  1  0  0  0
 57 69  1  0  0  0
 58 70  1  0  0  0
 58 71  1  0  0  0
M  CHG  1  52   1
M  END
> <s_m_entry_id>
193

> <s_m_entry_name>
000000035.1

> <s_m_Source_Path>
/Users/zaksoul/Documents/3r_UNI/2nd_SEMESTER/BSC/FRAG_RECON/RESULTS/2

> <s_m_Source_File>
000000035.mol2

> <i_m_Source_File_Index>
1

$$$$
No_0_36
                    3D
 Schrodinger Suite 2022-4.
 71 77  0  0  1  0            999 V2000
   -5.1810    3.6090  -21.8530 C   0  0  0  0  0  0
   -5.4520    3.8050  -23.1860 C   0  0  0  0  0  0
   -3.9420    3.3510  -21.5190 C   0  0  0  0  0  0
   -3.0590    3.4860  -23.6870 C   0  0  0  0  0  0
   -2.8930    3.2340  -22.2690 C   0  0  0  0  0  0
   -4.4090    3.7540  -24.2010 C   0  0  0  0  0  0
   -3.6630    3.7850  -26.4030 C   0  0  0  0  0  0
    6.0870    3.0010  -21.1820 C   0  0  0  0  0  0
    5.9380    3.1560  -23.7310 C   0  0  0  0  0  0
   -4.6650    3.8890  -25.5350 C   0  0  0  0  0  0
    2.1540    3.7130  -23.7290 C   0  0  0  0  0  0
    1.3370    4.8230  -23.4210 C   0  0  0  0  0  0
    3.1410    6.0110  -22.7430 C   0  0  0  0  0  0
    3.5570    3.8990  -23.4210 C   0  0  0  0  0  0
    1.6030    2.6010  -24.3930 C   0  0  0  0  0  0
   -0.5220    3.4190  -24.2700 C   0  0  0  0  0  0
    0.0100    4.6350  -23.6670 C   0  0  0  0  0  0
   -1.9770    3.4300  -24.6180 C   0  0  0  0  0  0
    4.1570    1.3990  -23.1440 C   0  0  0  0  0  0
    5.0950    1.0350  -22.0030 C   0  0  2  0  0  0
    6.6890    2.5740  -22.5390 C   0  0  2  0  0  0
    5.0840    2.0310  -20.8310 C   0  0  0  0  0  0
   -2.3080    3.5970  -26.0440 C   0  0  0  0  0  0
   -1.5470    2.8150  -21.6780 C   0  0  0  0  0  0
   -0.5150    2.4620  -21.1780 C   0  0  0  0  0  0
   -0.8280    5.6800  -23.3140 F   0  0  0  0  0  0
   -3.7260    3.1020  -20.1390 F   0  0  0  0  0  0
    1.8200    5.9780  -22.8860 N   0  0  0  0  0  0
    4.0350    5.0470  -22.9720 N   0  0  0  0  0  0
    0.2950    2.5160  -24.6930 N   0  0  0  0  0  0
    4.4710    2.8500  -23.6070 N   0  0  0  0  0  0
    6.5000    1.1010  -22.4910 N   0  0  1  0  0  0
   -3.8410    3.8060  -27.7920 O   0  0  0  0  0  0
   -5.9796    3.6712  -21.1226 H   0  0  0  0  0  0
   -6.4675    4.0037  -23.5091 H   0  0  0  0  0  0
    5.6179    3.9906  -21.2849 H   0  0  0  0  0  0
    6.8763    3.0060  -20.4159 H   0  0  0  0  0  0
    6.3275    2.7150  -24.6604 H   0  0  0  0  0  0
    6.0833    4.2460  -23.7593 H   0  0  0  0  0  0
   -5.6765    4.0776  -25.8762 H   0  0  0  0  0  0
    2.2385    1.7718  -24.6821 H   0  0  0  0  0  0
    3.1157    1.3435  -22.7939 H   0  0  0  0  0  0
    4.3144    0.7047  -23.9826 H   0  0  0  0  0  0
    4.8700    0.0218  -21.6387 H   0  0  0  0  0  0
    7.7578    2.8293  -22.5885 H   0  0  0  0  0  0
    4.1018    2.5236  -20.7805 H   0  0  0  0  0  0
    5.3877    1.5123  -19.9097 H   0  0  0  0  0  0
   -1.5411    3.5789  -26.8099 H   0  0  0  0  0  0
    0.3934    2.1519  -20.7378 H   0  0  0  0  0  0
    7.1492    0.5983  -21.7894 H   0  0  0  0  0  0
   -2.9984    3.7179  -28.2217 H   0  0  0  0  0  0
    4.5340   10.5250  -21.8620 N   0  3  0  0  0  0
    4.6510   11.8620  -22.4770 C   0  0  0  0  0  0
    3.9260   10.6480  -23.2030 C   0  0  0  0  0  0
    5.6050    8.4560  -20.9090 C   0  0  0  0  0  0
    5.8150    9.7520  -21.7160 C   0  0  0  0  0  0
    3.7060    7.3460  -22.2710 C   0  0  0  0  0  0
    5.1610    7.2570  -21.7680 C   0  0  0  0  0  0
    3.8873   10.4510  -21.0923 H   0  0  0  0  0  0
    5.6470   11.7380  -22.9270 H   0  0  0  0  0  0
    3.7623   12.3214  -22.0196 H   0  0  0  0  0  0
    2.8966   10.8711  -22.8859 H   0  0  0  0  0  0
    4.7818   10.2881  -23.7929 H   0  0  0  0  0  0
    4.8602    8.6339  -20.1193 H   0  0  0  0  0  0
    6.5347    8.2011  -20.3792 H   0  0  0  0  0  0
    6.5660   10.3790  -21.2130 H   0  0  0  0  0  0
    6.2071    9.5030  -22.7131 H   0  0  0  0  0  0
    3.6470    8.0775  -23.0904 H   0  0  0  0  0  0
    3.0676    7.7502  -21.4716 H   0  0  0  0  0  0
    5.2920    6.3279  -21.1939 H   0  0  0  0  0  0
    5.8385    7.1549  -22.6286 H   0  0  0  0  0  0
  1  2  2  0  0  0
  1  3  1  0  0  0
  1 34  1  0  0  0
  2  6  1  0  0  0
  2 35  1  0  0  0
  3  5  2  0  0  0
  3 27  1  0  0  0
  4  5  1  0  0  0
  4  6  2  0  0  0
  4 18  1  0  0  0
  5 24  1  0  0  0
  6 10  1  0  0  0
  7 10  2  0  0  0
  7 23  1  0  0  0
  7 33  1  0  0  0
  8 21  1  0  0  0
  8 22  1  0  0  0
  8 36  1  0  0  0
  8 37  1  0  0  0
  9 21  1  0  0  0
  9 31  1  0  0  0
  9 38  1  0  0  0
  9 39  1  0  0  0
 10 40  1  0  0  0
 11 12  1  0  0  0
 11 14  2  0  0  0
 11 15  1  0  0  0
 12 17  1  0  0  0
 12 28  2  0  0  0
 13 28  1  0  0  0
 13 29  2  0  0  0
 13 57  1  0  0  0
 14 29  1  0  0  0
 14 31  1  0  0  0
 15 30  2  0  0  0
 15 41  1  0  0  0
 16 17  2  0  0  0
 16 18  1  0  0  0
 16 30  1  0  0  0
 17 26  1  0  0  0
 18 23  2  0  0  0
 19 20  1  0  0  0
 19 31  1  0  0  0
 19 42  1  0  0  0
 19 43  1  0  0  0
 20 22  1  0  0  0
 20 32  1  0  0  0
 20 44  1  0  0  0
 21 32  1  0  0  0
 21 45  1  0  0  0
 22 46  1  0  0  0
 22 47  1  0  0  0
 23 48  1  0  0  0
 24 25  3  0  0  0
 25 49  1  0  0  0
 32 50  1  0  0  0
 33 51  1  0  0  0
 52 53  1  0  0  0
 52 54  1  0  0  0
 52 56  1  0  0  0
 52 59  1  0  0  0
 53 54  1  0  0  0
 53 60  1  0  0  0
 53 61  1  0  0  0
 54 62  1  0  0  0
 54 63  1  0  0  0
 55 56  1  0  0  0
 55 58  1  0  0  0
 55 64  1  0  0  0
 55 65  1  0  0  0
 56 66  1  0  0  0
 56 67  1  0  0  0
 57 58  1  0  0  0
 57 68  1  0  0  0
 57 69  1  0  0  0
 58 70  1  0  0  0
 58 71  1  0  0  0
M  CHG  1  52   1
M  END
> <s_m_entry_id>
194

> <s_m_entry_name>
000000036.1

> <s_m_Source_Path>
/Users/zaksoul/Documents/3r_UNI/2nd_SEMESTER/BSC/FRAG_RECON/RESULTS/2

> <s_m_Source_File>
000000036.mol2

> <i_m_Source_File_Index>
1

$$$$
No_0_37
                    3D
 Schrodinger Suite 2022-4.
 71 77  0  0  1  0            999 V2000
   -5.3710    3.4060  -21.8160 C   0  0  0  0  0  0
   -5.6420    3.6020  -23.1490 C   0  0  0  0  0  0
   -4.1320    3.1470  -21.4820 C   0  0  0  0  0  0
   -3.2500    3.2820  -23.6500 C   0  0  0  0  0  0
   -3.0830    3.0300  -22.2320 C   0  0  0  0  0  0
   -4.5990    3.5510  -24.1640 C   0  0  0  0  0  0
   -3.8530    3.5810  -26.3660 C   0  0  0  0  0  0
    5.8970    2.7920  -21.1470 C   0  0  0  0  0  0
    5.7470    2.9470  -23.6950 C   0  0  0  0  0  0
   -4.8550    3.6860  -25.4980 C   0  0  0  0  0  0
    1.9640    3.5070  -23.6930 C   0  0  0  0  0  0
    1.1480    4.6160  -23.3850 C   0  0  0  0  0  0
    2.9530    5.8030  -22.7070 C   0  0  0  0  0  0
    3.3670    3.6920  -23.3850 C   0  0  0  0  0  0
    1.4120    2.3940  -24.3570 C   0  0  0  0  0  0
   -0.7130    3.2140  -24.2330 C   0  0  0  0  0  0
   -0.1800    4.4290  -23.6310 C   0  0  0  0  0  0
   -2.1670    3.2260  -24.5810 C   0  0  0  0  0  0
    3.9660    1.1910  -23.1080 C   0  0  0  0  0  0
    4.9040    0.8260  -21.9670 C   0  0  2  0  0  0
    6.4990    2.3650  -22.5030 C   0  0  2  0  0  0
    4.8940    1.8220  -20.7950 C   0  0  0  0  0  0
   -2.4980    3.3930  -26.0070 C   0  0  0  0  0  0
   -1.7380    2.6100  -21.6410 C   0  0  0  0  0  0
   -0.7060    2.2560  -21.1420 C   0  0  0  0  0  0
   -1.0170    5.4750  -23.2770 F   0  0  0  0  0  0
   -3.9160    2.8970  -20.1020 F   0  0  0  0  0  0
    1.6310    5.7710  -22.8490 N   0  0  0  0  0  0
    3.8450    4.8390  -22.9360 N   0  0  0  0  0  0
    0.1040    2.3100  -24.6570 N   0  0  0  0  0  0
    4.2810    2.6420  -23.5710 N   0  0  0  0  0  0
    6.3080    0.8920  -22.4560 N   0  0  1  0  0  0
   -4.0320    3.6030  -27.7540 O   0  0  0  0  0  0
   -6.1691    3.4682  -21.0851 H   0  0  0  0  0  0
   -6.6573    3.8016  -23.4721 H   0  0  0  0  0  0
    5.4287    3.7820  -21.2499 H   0  0  0  0  0  0
    6.6863    2.7960  -20.3809 H   0  0  0  0  0  0
    6.1365    2.5060  -24.6244 H   0  0  0  0  0  0
    5.8933    4.0369  -23.7233 H   0  0  0  0  0  0
   -5.8666    3.8757  -25.8382 H   0  0  0  0  0  0
    2.0475    1.5648  -24.6461 H   0  0  0  0  0  0
    2.9247    1.1355  -22.7579 H   0  0  0  0  0  0
    4.1224    0.4966  -23.9467 H   0  0  0  0  0  0
    4.6779   -0.1873  -21.6037 H   0  0  0  0  0  0
    7.5680    2.6194  -22.5535 H   0  0  0  0  0  0
    3.9122    2.3154  -20.7445 H   0  0  0  0  0  0
    5.1967    1.3024  -19.8739 H   0  0  0  0  0  0
   -1.7321    3.3749  -26.7739 H   0  0  0  0  0  0
    0.2021    1.9450  -20.7019 H   0  0  0  0  0  0
    6.9576    0.3888  -21.7551 H   0  0  0  0  0  0
   -3.1897    3.5149  -28.1845 H   0  0  0  0  0  0
    4.1980   10.3310  -21.6870 N   0  3  0  0  0  0
    4.0780   11.7220  -22.1690 C   0  0  0  0  0  0
    3.2910   10.5150  -22.8390 C   0  0  0  0  0  0
    5.5990    8.2930  -21.2210 C   0  0  0  0  0  0
    5.5280    9.6680  -21.9130 C   0  0  0  0  0  0
    3.5180    7.1380  -22.2350 C   0  0  0  0  0  0
    5.0520    7.1380  -22.0810 C   0  0  0  0  0  0
    3.7528   10.1329  -20.8046 H   0  0  0  0  0  0
    4.9498   11.7290  -22.8398 H   0  0  0  0  0  0
    3.2893   12.0573  -21.4794 H   0  0  0  0  0  0
    2.3494   10.6150  -22.2792 H   0  0  0  0  0  0
    4.0098   10.2871  -23.6398 H   0  0  0  0  0  0
    5.0464    8.3340  -20.2707 H   0  0  0  0  0  0
    6.6411    8.0780  -20.9420 H   0  0  0  0  0  0
    6.3297   10.3148  -21.5271 H   0  0  0  0  0  0
    5.6960    9.5430  -22.9929 H   0  0  0  0  0  0
    3.2221    7.9298  -22.9389 H   0  0  0  0  0  0
    3.0552    7.4119  -21.2754 H   0  0  0  0  0  0
    5.3751    6.1786  -21.6508 H   0  0  0  0  0  0
    5.5183    7.1730  -23.0767 H   0  0  0  0  0  0
  1  2  2  0  0  0
  1  3  1  0  0  0
  1 34  1  0  0  0
  2  6  1  0  0  0
  2 35  1  0  0  0
  3  5  2  0  0  0
  3 27  1  0  0  0
  4  5  1  0  0  0
  4  6  2  0  0  0
  4 18  1  0  0  0
  5 24  1  0  0  0
  6 10  1  0  0  0
  7 10  2  0  0  0
  7 23  1  0  0  0
  7 33  1  0  0  0
  8 21  1  0  0  0
  8 22  1  0  0  0
  8 36  1  0  0  0
  8 37  1  0  0  0
  9 21  1  0  0  0
  9 31  1  0  0  0
  9 38  1  0  0  0
  9 39  1  0  0  0
 10 40  1  0  0  0
 11 12  1  0  0  0
 11 14  2  0  0  0
 11 15  1  0  0  0
 12 17  1  0  0  0
 12 28  2  0  0  0
 13 28  1  0  0  0
 13 29  2  0  0  0
 13 57  1  0  0  0
 14 29  1  0  0  0
 14 31  1  0  0  0
 15 30  2  0  0  0
 15 41  1  0  0  0
 16 17  2  0  0  0
 16 18  1  0  0  0
 16 30  1  0  0  0
 17 26  1  0  0  0
 18 23  2  0  0  0
 19 20  1  0  0  0
 19 31  1  0  0  0
 19 42  1  0  0  0
 19 43  1  0  0  0
 20 22  1  0  0  0
 20 32  1  0  0  0
 20 44  1  0  0  0
 21 32  1  0  0  0
 21 45  1  0  0  0
 22 46  1  0  0  0
 22 47  1  0  0  0
 23 48  1  0  0  0
 24 25  3  0  0  0
 25 49  1  0  0  0
 32 50  1  0  0  0
 33 51  1  0  0  0
 52 53  1  0  0  0
 52 54  1  0  0  0
 52 56  1  0  0  0
 52 59  1  0  0  0
 53 54  1  0  0  0
 53 60  1  0  0  0
 53 61  1  0  0  0
 54 62  1  0  0  0
 54 63  1  0  0  0
 55 56  1  0  0  0
 55 58  1  0  0  0
 55 64  1  0  0  0
 55 65  1  0  0  0
 56 66  1  0  0  0
 56 67  1  0  0  0
 57 58  1  0  0  0
 57 68  1  0  0  0
 57 69  1  0  0  0
 58 70  1  0  0  0
 58 71  1  0  0  0
M  CHG  1  52   1
M  END
> <s_m_entry_id>
195

> <s_m_entry_name>
000000037.1

> <s_m_Source_Path>
/Users/zaksoul/Documents/3r_UNI/2nd_SEMESTER/BSC/FRAG_RECON/RESULTS/2

> <s_m_Source_File>
000000037.mol2

> <i_m_Source_File_Index>
1

$$$$
No_0_38
                    3D
 Schrodinger Suite 2022-4.
 69 74  0  0  1  0            999 V2000
   -5.2280    3.8300  -22.0120 C   0  0  0  0  0  0
   -5.5130    4.0240  -23.3430 C   0  0  0  0  0  0
   -3.9860    3.5720  -21.6900 C   0  0  0  0  0  0
   -3.1250    3.7020  -23.8670 C   0  0  0  0  0  0
   -2.9450    3.4530  -22.4500 C   0  0  0  0  0  0
   -4.4790    3.9710  -24.3680 C   0  0  0  0  0  0
   -3.7550    3.9980  -26.5770 C   0  0  0  0  0  0
    6.0450    3.2150  -21.4530 C   0  0  0  0  0  0
    5.8710    3.3660  -24.0000 C   0  0  0  0  0  0
   -4.7490    4.1040  -25.7000 C   0  0  0  0  0  0
    2.0880    3.9260  -23.9610 C   0  0  0  0  0  0
    1.2750    5.0360  -23.6470 C   0  0  0  0  0  0
    3.0870    6.2240  -22.9890 C   0  0  0  0  0  0
    3.4930    4.1110  -23.6670 C   0  0  0  0  0  0
    1.5290    2.8130  -24.6180 C   0  0  0  0  0  0
   -0.5940    3.6330  -24.4750 C   0  0  0  0  0  0
   -0.0550    4.8490  -23.8790 C   0  0  0  0  0  0
   -2.0520    3.6450  -24.8090 C   0  0  0  0  0  0
    4.0950    1.6110  -23.3920 C   0  0  0  0  0  0
    5.0440    1.2480  -22.2600 C   0  0  2  0  0  0
    6.6340    2.7850  -22.8140 C   0  0  2  0  0  0
    5.0460    2.2450  -21.0900 C   0  0  0  0  0  0
   -2.3970    3.8100  -26.2310 C   0  0  0  0  0  0
   -1.5940    3.0330  -21.8720 C   0  0  0  0  0  0
   -0.5570    2.6800  -21.3820 C   0  0  0  0  0  0
   -0.8880    5.8960  -23.5200 F   0  0  0  0  0  0
   -3.7570    3.3240  -20.3120 F   0  0  0  0  0  0
    1.7630    6.1920  -23.1180 N   0  0  0  0  0  0
    3.9770    5.2590  -23.2250 N   0  0  0  0  0  0
    0.2180    2.7290  -24.9050 N   0  0  0  0  0  0
    4.4060    3.0610  -23.8610 N   0  0  0  0  0  0
    6.4440    1.3120  -22.7630 N   0  0  1  0  0  0
   -3.9480    4.0180  -27.9640 O   0  0  0  0  0  0
   -6.0198    3.8932  -21.2744 H   0  0  0  0  0  0
   -6.5313    4.2238  -23.6563 H   0  0  0  0  0  0
    5.5758    4.2049  -21.5529 H   0  0  0  0  0  0
    6.8422    3.2200  -20.6951 H   0  0  0  0  0  0
    6.2505    2.9229  -24.9326 H   0  0  0  0  0  0
    6.0173    4.4558  -24.0313 H   0  0  0  0  0  0
   -5.7638    4.2927  -26.0312 H   0  0  0  0  0  0
    2.1613    1.9830  -24.9121 H   0  0  0  0  0  0
    3.0570    1.5565  -23.0319 H   0  0  0  0  0  0
    4.2432    0.9152  -24.2310 H   0  0  0  0  0  0
    4.8209    0.2355  -21.8925 H   0  0  0  0  0  0
    7.7024    3.0392  -22.8755 H   0  0  0  0  0  0
    4.0650    2.7390  -21.0305 H   0  0  0  0  0  0
    5.3578    1.7274  -20.1708 H   0  0  0  0  0  0
   -1.6382    3.7899  -27.0049 H   0  0  0  0  0  0
    0.3556    2.3698  -20.9507 H   0  0  0  0  0  0
    7.0997    0.8104  -22.0667 H   0  0  0  0  0  0
   -3.1100    3.9280  -28.4023 H   0  0  0  0  0  0
    6.4660    7.9340  -21.2490 O   0  0  0  0  0  0
    6.4030   11.2990  -21.3500 N   0  3  0  0  0  0
    3.6570    7.5600  -22.5240 C   0  0  0  0  0  0
    3.6950    7.7060  -20.9920 C   0  0  0  0  0  0
    4.4230    9.0010  -20.5980 C   0  0  0  0  0  0
    5.9170    8.9240  -20.8210 C   0  0  0  0  0  0
    6.7280   10.1410  -20.4500 C   0  0  0  0  0  0
    6.9557   12.0986  -21.0831 H   0  0  0  0  0  0
    6.6110   11.0520  -22.3049 H   0  0  0  0  0  0
    5.4244   11.5261  -21.2670 H   0  0  0  0  0  0
    4.6727    7.6830  -22.9279 H   0  0  0  0  0  0
    3.0637    8.3804  -22.9542 H   0  0  0  0  0  0
    4.2189    6.8431  -20.5551 H   0  0  0  0  0  0
    2.6671    7.7300  -20.6010 H   0  0  0  0  0  0
    4.2220    9.2260  -19.5402 H   0  0  0  0  0  0
    4.0101    9.8417  -21.1748 H   0  0  0  0  0  0
    6.5169   10.4181  -19.4066 H   0  0  0  0  0  0
    7.7997    9.9061  -20.5290 H   0  0  0  0  0  0
  1  2  2  0  0  0
  1  3  1  0  0  0
  1 34  1  0  0  0
  2  6  1  0  0  0
  2 35  1  0  0  0
  3  5  2  0  0  0
  3 27  1  0  0  0
  4  5  1  0  0  0
  4  6  2  0  0  0
  4 18  1  0  0  0
  5 24  1  0  0  0
  6 10  1  0  0  0
  7 10  2  0  0  0
  7 23  1  0  0  0
  7 33  1  0  0  0
  8 21  1  0  0  0
  8 22  1  0  0  0
  8 36  1  0  0  0
  8 37  1  0  0  0
  9 21  1  0  0  0
  9 31  1  0  0  0
  9 38  1  0  0  0
  9 39  1  0  0  0
 10 40  1  0  0  0
 11 12  1  0  0  0
 11 14  2  0  0  0
 11 15  1  0  0  0
 12 17  1  0  0  0
 12 28  2  0  0  0
 13 28  1  0  0  0
 13 29  2  0  0  0
 13 54  1  0  0  0
 14 29  1  0  0  0
 14 31  1  0  0  0
 15 30  2  0  0  0
 15 41  1  0  0  0
 16 17  2  0  0  0
 16 18  1  0  0  0
 16 30  1  0  0  0
 17 26  1  0  0  0
 18 23  2  0  0  0
 19 20  1  0  0  0
 19 31  1  0  0  0
 19 42  1  0  0  0
 19 43  1  0  0  0
 20 22  1  0  0  0
 20 32  1  0  0  0
 20 44  1  0  0  0
 21 32  1  0  0  0
 21 45  1  0  0  0
 22 46  1  0  0  0
 22 47  1  0  0  0
 23 48  1  0  0  0
 24 25  3  0  0  0
 25 49  1  0  0  0
 32 50  1  0  0  0
 33 51  1  0  0  0
 52 57  2  0  0  0
 53 58  1  0  0  0
 53 59  1  0  0  0
 53 60  1  0  0  0
 53 61  1  0  0  0
 54 55  1  0  0  0
 54 62  1  0  0  0
 54 63  1  0  0  0
 55 56  1  0  0  0
 55 64  1  0  0  0
 55 65  1  0  0  0
 56 57  1  0  0  0
 56 66  1  0  0  0
 56 67  1  0  0  0
 57 58  1  0  0  0
 58 68  1  0  0  0
 58 69  1  0  0  0
M  CHG  1  53   1
M  END
> <s_m_entry_id>
196

> <s_m_entry_name>
000000038.1

> <s_m_Source_Path>
/Users/zaksoul/Documents/3r_UNI/2nd_SEMESTER/BSC/FRAG_RECON/RESULTS/2

> <s_m_Source_File>
000000038.mol2

> <i_m_Source_File_Index>
1

$$$$
No_0_39
                    3D
 Schrodinger Suite 2022-4.
 69 74  0  0  1  0            999 V2000
   -5.0160    3.6740  -22.0960 C   0  0  0  0  0  0
   -5.2700    3.8370  -23.4370 C   0  0  0  0  0  0
   -3.7780    3.4420  -21.7380 C   0  0  0  0  0  0
   -2.8660    3.5440  -23.8970 C   0  0  0  0  0  0
   -2.7170    3.3250  -22.4710 C   0  0  0  0  0  0
   -4.2110    3.7810  -24.4360 C   0  0  0  0  0  0
   -3.4340    3.7760  -26.6260 C   0  0  0  0  0  0
    6.2490    3.2530  -21.2500 C   0  0  0  0  0  0
    6.1350    3.3520  -23.8030 C   0  0  0  0  0  0
   -4.4500    3.8830  -25.7760 C   0  0  0  0  0  0
    2.3440    3.8510  -23.8680 C   0  0  0  0  0  0
    1.5060    4.9540  -23.5960 C   0  0  0  0  0  0
    3.2820    6.1830  -22.9170 C   0  0  0  0  0  0
    3.7380    4.0650  -23.5440 C   0  0  0  0  0  0
    1.8190    2.7160  -24.5160 C   0  0  0  0  0  0
   -0.3200    3.5040  -24.4410 C   0  0  0  0  0  0
    0.1850    4.7410  -23.8570 C   0  0  0  0  0  0
   -1.7690    3.4860  -24.8100 C   0  0  0  0  0  0
    4.3730    1.5800  -23.2040 C   0  0  0  0  0  0
    5.2990    1.2550  -22.0430 C   0  0  2  0  0  0
    6.8780    2.8070  -22.5880 C   0  0  2  0  0  0
    5.2560    2.2750  -20.8920 C   0  0  0  0  0  0
   -2.0810    3.6170  -26.2440 C   0  0  0  0  0  0
   -1.3740    2.9390  -21.8520 C   0  0  0  0  0  0
   -0.3440    2.6130  -21.3300 C   0  0  0  0  0  0
   -0.6730    5.7800  -23.5380 F   0  0  0  0  0  0
   -3.5790    3.2250  -20.3500 F   0  0  0  0  0  0
    1.9630    6.1270  -23.0780 N   0  0  0  0  0  0
    4.1920    5.2290  -23.1120 N   0  0  0  0  0  0
    0.5170    2.6050  -24.8330 N   0  0  0  0  0  0
    4.6720    3.0260  -23.6940 N   0  0  0  0  0  0
    6.7090    1.3320  -22.5120 N   0  0  1  0  0  0
   -3.5920    3.7660  -28.0180 O   0  0  0  0  0  0
   -5.8264    3.7383  -21.3790 H   0  0  0  0  0  0
   -6.2833    4.0136  -23.7791 H   0  0  0  0  0  0
    5.7666    4.2329  -21.3812 H   0  0  0  0  0  0
    7.0270    3.2863  -20.4730 H   0  0  0  0  0  0
    6.5447    2.8979  -24.7173 H   0  0  0  0  0  0
    6.2642    4.4433  -23.8525 H   0  0  0  0  0  0
   -5.4590    4.0497  -26.1354 H   0  0  0  0  0  0
    2.4714    1.8909  -24.7780 H   0  0  0  0  0  0
    3.3272    1.5164  -22.8689 H   0  0  0  0  0  0
    4.5526    0.8707  -24.0253 H   0  0  0  0  0  0
    5.0840    0.2467  -21.6595 H   0  0  0  0  0  0
    7.9434    3.0776  -22.6284 H   0  0  0  0  0  0
    4.2662    2.7543  -20.8668 H   0  0  0  0  0  0
    5.5527    1.7804  -19.9553 H   0  0  0  0  0  0
   -1.3037    3.5949  -26.9992 H   0  0  0  0  0  0
    0.5621    2.3260  -20.8699 H   0  0  0  0  0  0
    7.3558    0.8552  -21.7904 H   0  0  0  0  0  0
   -2.7415    3.6818  -28.4328 H   0  0  0  0  0  0
    6.7890    8.1110  -21.7540 O   0  0  0  0  0  0
    6.4180   11.4520  -21.5560 N   0  3  0  0  0  0
    3.8190    7.5370  -22.4660 C   0  0  0  0  0  0
    4.1620    7.5860  -20.9660 C   0  0  0  0  0  0
    4.8420    8.9200  -20.6180 C   0  0  0  0  0  0
    6.2580    9.0100  -21.1430 C   0  0  0  0  0  0
    7.0210   10.2770  -20.8410 C   0  0  0  0  0  0
    6.9433   12.2845  -21.3389 H   0  0  0  0  0  0
    6.4420   11.2901  -22.5506 H   0  0  0  0  0  0
    5.4622   11.5720  -21.2591 H   0  0  0  0  0  0
    4.7143    7.7891  -23.0532 H   0  0  0  0  0  0
    3.0809    8.3192  -22.6970 H   0  0  0  0  0  0
    4.8381    6.7548  -20.7170 H   0  0  0  0  0  0
    3.2402    7.4800  -20.3751 H   0  0  0  0  0  0
    4.8470    9.0550  -19.5263 H   0  0  0  0  0  0
    4.2482    9.7508  -21.0269 H   0  0  0  0  0  0
    7.0080   10.4620  -19.7568 H   0  0  0  0  0  0
    8.0690   10.1570  -21.1530 H   0  0  0  0  0  0
  1  2  2  0  0  0
  1  3  1  0  0  0
  1 34  1  0  0  0
  2  6  1  0  0  0
  2 35  1  0  0  0
  3  5  2  0  0  0
  3 27  1  0  0  0
  4  5  1  0  0  0
  4  6  2  0  0  0
  4 18  1  0  0  0
  5 24  1  0  0  0
  6 10  1  0  0  0
  7 10  2  0  0  0
  7 23  1  0  0  0
  7 33  1  0  0  0
  8 21  1  0  0  0
  8 22  1  0  0  0
  8 36  1  0  0  0
  8 37  1  0  0  0
  9 21  1  0  0  0
  9 31  1  0  0  0
  9 38  1  0  0  0
  9 39  1  0  0  0
 10 40  1  0  0  0
 11 12  1  0  0  0
 11 14  2  0  0  0
 11 15  1  0  0  0
 12 17  1  0  0  0
 12 28  2  0  0  0
 13 28  1  0  0  0
 13 29  2  0  0  0
 13 54  1  0  0  0
 14 29  1  0  0  0
 14 31  1  0  0  0
 15 30  2  0  0  0
 15 41  1  0  0  0
 16 17  2  0  0  0
 16 18  1  0  0  0
 16 30  1  0  0  0
 17 26  1  0  0  0
 18 23  2  0  0  0
 19 20  1  0  0  0
 19 31  1  0  0  0
 19 42  1  0  0  0
 19 43  1  0  0  0
 20 22  1  0  0  0
 20 32  1  0  0  0
 20 44  1  0  0  0
 21 32  1  0  0  0
 21 45  1  0  0  0
 22 46  1  0  0  0
 22 47  1  0  0  0
 23 48  1  0  0  0
 24 25  3  0  0  0
 25 49  1  0  0  0
 32 50  1  0  0  0
 33 51  1  0  0  0
 52 57  2  0  0  0
 53 58  1  0  0  0
 53 59  1  0  0  0
 53 60  1  0  0  0
 53 61  1  0  0  0
 54 55  1  0  0  0
 54 62  1  0  0  0
 54 63  1  0  0  0
 55 56  1  0  0  0
 55 64  1  0  0  0
 55 65  1  0  0  0
 56 57  1  0  0  0
 56 66  1  0  0  0
 56 67  1  0  0  0
 57 58  1  0  0  0
 58 68  1  0  0  0
 58 69  1  0  0  0
M  CHG  1  53   1
M  END
> <s_m_entry_id>
197

> <s_m_entry_name>
000000039.1

> <s_m_Source_Path>
/Users/zaksoul/Documents/3r_UNI/2nd_SEMESTER/BSC/FRAG_RECON/RESULTS/2

> <s_m_Source_File>
000000039.mol2

> <i_m_Source_File_Index>
1

$$$$
No_0_40
                    3D
 Schrodinger Suite 2022-4.
 69 74  0  0  1  0            999 V2000
   -5.1810    3.6090  -21.8530 C   0  0  0  0  0  0
   -5.4520    3.8050  -23.1860 C   0  0  0  0  0  0
   -3.9420    3.3510  -21.5190 C   0  0  0  0  0  0
   -3.0590    3.4860  -23.6870 C   0  0  0  0  0  0
   -2.8930    3.2340  -22.2690 C   0  0  0  0  0  0
   -4.4090    3.7540  -24.2010 C   0  0  0  0  0  0
   -3.6630    3.7850  -26.4030 C   0  0  0  0  0  0
    6.0870    3.0010  -21.1820 C   0  0  0  0  0  0
    5.9380    3.1560  -23.7310 C   0  0  0  0  0  0
   -4.6650    3.8890  -25.5350 C   0  0  0  0  0  0
    2.1540    3.7130  -23.7290 C   0  0  0  0  0  0
    1.3370    4.8230  -23.4210 C   0  0  0  0  0  0
    3.1410    6.0110  -22.7430 C   0  0  0  0  0  0
    3.5570    3.8990  -23.4210 C   0  0  0  0  0  0
    1.6030    2.6010  -24.3930 C   0  0  0  0  0  0
   -0.5220    3.4190  -24.2700 C   0  0  0  0  0  0
    0.0100    4.6350  -23.6670 C   0  0  0  0  0  0
   -1.9770    3.4300  -24.6180 C   0  0  0  0  0  0
    4.1570    1.3990  -23.1440 C   0  0  0  0  0  0
    5.0950    1.0350  -22.0030 C   0  0  2  0  0  0
    6.6890    2.5740  -22.5390 C   0  0  2  0  0  0
    5.0840    2.0310  -20.8310 C   0  0  0  0  0  0
   -2.3080    3.5970  -26.0440 C   0  0  0  0  0  0
   -1.5470    2.8150  -21.6780 C   0  0  0  0  0  0
   -0.5150    2.4620  -21.1780 C   0  0  0  0  0  0
   -0.8280    5.6800  -23.3140 F   0  0  0  0  0  0
   -3.7260    3.1020  -20.1390 F   0  0  0  0  0  0
    1.8200    5.9780  -22.8860 N   0  0  0  0  0  0
    4.0350    5.0470  -22.9720 N   0  0  0  0  0  0
    0.2950    2.5160  -24.6930 N   0  0  0  0  0  0
    4.4710    2.8500  -23.6070 N   0  0  0  0  0  0
    6.5000    1.1010  -22.4910 N   0  0  1  0  0  0
   -3.8410    3.8060  -27.7920 O   0  0  0  0  0  0
   -5.9796    3.6712  -21.1226 H   0  0  0  0  0  0
   -6.4675    4.0037  -23.5091 H   0  0  0  0  0  0
    5.6179    3.9906  -21.2849 H   0  0  0  0  0  0
    6.8763    3.0060  -20.4159 H   0  0  0  0  0  0
    6.3275    2.7150  -24.6604 H   0  0  0  0  0  0
    6.0833    4.2460  -23.7593 H   0  0  0  0  0  0
   -5.6765    4.0776  -25.8762 H   0  0  0  0  0  0
    2.2385    1.7718  -24.6821 H   0  0  0  0  0  0
    3.1157    1.3435  -22.7939 H   0  0  0  0  0  0
    4.3144    0.7047  -23.9826 H   0  0  0  0  0  0
    4.8700    0.0218  -21.6387 H   0  0  0  0  0  0
    7.7578    2.8293  -22.5885 H   0  0  0  0  0  0
    4.1018    2.5236  -20.7805 H   0  0  0  0  0  0
    5.3877    1.5123  -19.9097 H   0  0  0  0  0  0
   -1.5411    3.5789  -26.8099 H   0  0  0  0  0  0
    0.3934    2.1519  -20.7378 H   0  0  0  0  0  0
    7.1492    0.5983  -21.7894 H   0  0  0  0  0  0
   -2.9984    3.7179  -28.2217 H   0  0  0  0  0  0
    6.5560    8.3940  -22.9340 O   0  0  0  0  0  0
    6.0300   11.4960  -21.7350 N   0  3  0  0  0  0
    3.7060    7.3460  -22.2710 C   0  0  0  0  0  0
    4.7600    7.2020  -21.1580 C   0  0  0  0  0  0
    5.3950    8.5670  -20.8460 C   0  0  0  0  0  0
    6.3300    9.0400  -21.9370 C   0  0  0  0  0  0
    7.0190   10.3660  -21.7200 C   0  0  0  0  0  0
    6.5133   12.3685  -21.5889 H   0  0  0  0  0  0
    5.5583   11.5190  -22.6255 H   0  0  0  0  0  0
    5.3528   11.3600  -21.0008 H   0  0  0  0  0  0
    4.1479    7.8789  -23.1258 H   0  0  0  0  0  0
    2.8843    7.9848  -21.9151 H   0  0  0  0  0  0
    5.5420    6.5000  -21.4830 H   0  0  0  0  0  0
    4.2827    6.8038  -20.2505 H   0  0  0  0  0  0
    5.9441    8.5060  -19.8948 H   0  0  0  0  0  0
    4.6013    9.3137  -20.6959 H   0  0  0  0  0  0
    7.5450   10.3510  -20.7540 H   0  0  0  0  0  0
    7.7671   10.5230  -22.5111 H   0  0  0  0  0  0
  1  2  2  0  0  0
  1  3  1  0  0  0
  1 34  1  0  0  0
  2  6  1  0  0  0
  2 35  1  0  0  0
  3  5  2  0  0  0
  3 27  1  0  0  0
  4  5  1  0  0  0
  4  6  2  0  0  0
  4 18  1  0  0  0
  5 24  1  0  0  0
  6 10  1  0  0  0
  7 10  2  0  0  0
  7 23  1  0  0  0
  7 33  1  0  0  0
  8 21  1  0  0  0
  8 22  1  0  0  0
  8 36  1  0  0  0
  8 37  1  0  0  0
  9 21  1  0  0  0
  9 31  1  0  0  0
  9 38  1  0  0  0
  9 39  1  0  0  0
 10 40  1  0  0  0
 11 12  1  0  0  0
 11 14  2  0  0  0
 11 15  1  0  0  0
 12 17  1  0  0  0
 12 28  2  0  0  0
 13 28  1  0  0  0
 13 29  2  0  0  0
 13 54  1  0  0  0
 14 29  1  0  0  0
 14 31  1  0  0  0
 15 30  2  0  0  0
 15 41  1  0  0  0
 16 17  2  0  0  0
 16 18  1  0  0  0
 16 30  1  0  0  0
 17 26  1  0  0  0
 18 23  2  0  0  0
 19 20  1  0  0  0
 19 31  1  0  0  0
 19 42  1  0  0  0
 19 43  1  0  0  0
 20 22  1  0  0  0
 20 32  1  0  0  0
 20 44  1  0  0  0
 21 32  1  0  0  0
 21 45  1  0  0  0
 22 46  1  0  0  0
 22 47  1  0  0  0
 23 48  1  0  0  0
 24 25  3  0  0  0
 25 49  1  0  0  0
 32 50  1  0  0  0
 33 51  1  0  0  0
 52 57  2  0  0  0
 53 58  1  0  0  0
 53 59  1  0  0  0
 53 60  1  0  0  0
 53 61  1  0  0  0
 54 55  1  0  0  0
 54 62  1  0  0  0
 54 63  1  0  0  0
 55 56  1  0  0  0
 55 64  1  0  0  0
 55 65  1  0  0  0
 56 57  1  0  0  0
 56 66  1  0  0  0
 56 67  1  0  0  0
 57 58  1  0  0  0
 58 68  1  0  0  0
 58 69  1  0  0  0
M  CHG  1  53   1
M  END
> <s_m_entry_id>
198

> <s_m_entry_name>
000000040.1

> <s_m_Source_Path>
/Users/zaksoul/Documents/3r_UNI/2nd_SEMESTER/BSC/FRAG_RECON/RESULTS/2

> <s_m_Source_File>
000000040.mol2

> <i_m_Source_File_Index>
1

$$$$
No_0_41
                    3D
 Schrodinger Suite 2022-4.
 69 74  0  0  1  0            999 V2000
   -5.3200    3.2720  -21.7750 C   0  0  0  0  0  0
   -5.5860    3.4950  -23.1050 C   0  0  0  0  0  0
   -4.0760    3.0460  -21.4360 C   0  0  0  0  0  0
   -3.1800    3.2680  -23.5920 C   0  0  0  0  0  0
   -3.0180    2.9830  -22.1790 C   0  0  0  0  0  0
   -4.5330    3.5060  -24.1110 C   0  0  0  0  0  0
   -3.7700    3.6210  -26.3040 C   0  0  0  0  0  0
    5.9560    3.0130  -21.0150 C   0  0  0  0  0  0
    5.8230    3.2320  -23.5590 C   0  0  0  0  0  0
   -4.7820    3.6680  -25.4430 C   0  0  0  0  0  0
    2.0240    3.6660  -23.5780 C   0  0  0  0  0  0
    1.1680    4.7390  -23.2480 C   0  0  0  0  0  0
    2.9270    5.9660  -22.5220 C   0  0  0  0  0  0
    3.4160    3.8890  -23.2520 C   0  0  0  0  0  0
    1.5140    2.5550  -24.2770 C   0  0  0  0  0  0
   -0.6370    3.2990  -24.1520 C   0  0  0  0  0  0
   -0.1500    4.5150  -23.5120 C   0  0  0  0  0  0
   -2.0880    3.2730  -24.5130 C   0  0  0  0  0  0
    4.0960    1.4020  -23.0360 C   0  0  0  0  0  0
    5.0360    1.0390  -21.8970 C   0  0  2  0  0  0
    6.5830    2.6430  -22.3760 C   0  0  2  0  0  0
    4.9820    2.0010  -20.6990 C   0  0  0  0  0  0
   -2.4120    3.4680  -25.9370 C   0  0  0  0  0  0
   -1.6640    2.5920  -21.5870 C   0  0  0  0  0  0
   -0.6250    2.2600  -21.0870 C   0  0  0  0  0  0
   -1.0250    5.5230  -23.1390 F   0  0  0  0  0  0
   -3.8640    2.7660  -20.0610 F   0  0  0  0  0  0
    1.6080    5.8950  -22.6780 N   0  0  0  0  0  0
    3.8530    5.0390  -22.7680 N   0  0  0  0  0  0
    0.2130    2.4350  -24.5920 N   0  0  0  0  0  0
    4.3670    2.8750  -23.4580 N   0  0  0  0  0  0
    6.4420    1.1630  -22.3700 N   0  0  1  0  0  0
   -3.9370    3.6740  -27.6930 O   0  0  0  0  0  0
   -6.1260    3.2881  -21.0503 H   0  0  0  0  0  0
   -6.6046    3.6696  -23.4322 H   0  0  0  0  0  0
    5.4557    3.9893  -21.0957 H   0  0  0  0  0  0
    6.7383    3.0231  -20.2418 H   0  0  0  0  0  0
    6.2346    2.8294  -24.4963 H   0  0  0  0  0  0
    5.9330    4.3265  -23.5570 H   0  0  0  0  0  0
   -5.7962    3.8335  -25.7881 H   0  0  0  0  0  0
    2.1792    1.7553  -24.5820 H   0  0  0  0  0  0
    3.0540    1.3030  -22.6978 H   0  0  0  0  0  0
    4.2827    0.7368  -23.8920 H   0  0  0  0  0  0
    4.8404    0.0096  -21.5623 H   0  0  0  0  0  0
    7.6434    2.9336  -22.4093 H   0  0  0  0  0  0
    3.9839    2.4602  -20.6445 H   0  0  0  0  0  0
    5.2947    1.4675  -19.7893 H   0  0  0  0  0  0
   -1.6393    3.4961  -26.6967 H   0  0  0  0  0  0
    0.2891    1.9670  -20.6469 H   0  0  0  0  0  0
    7.1011    0.6633  -21.6756 H   0  0  0  0  0  0
   -3.0880    3.6255  -28.1165 H   0  0  0  0  0  0
    5.9480    8.7760  -23.1150 O   0  0  0  0  0  0
    5.3900   11.6410  -21.4360 N   0  3  0  0  0  0
    3.4430    7.3060  -22.0080 C   0  0  0  0  0  0
    4.7300    7.1830  -21.1720 C   0  0  0  0  0  0
    5.2750    8.5770  -20.8250 C   0  0  0  0  0  0
    5.8870    9.2790  -22.0170 C   0  0  0  0  0  0
    6.4680   10.6520  -21.7780 C   0  0  0  0  0  0
    5.8019   12.5478  -21.2810 H   0  0  0  0  0  0
    4.7307   11.6970  -22.1964 H   0  0  0  0  0  0
    4.9133   11.3422  -20.5996 H   0  0  0  0  0  0
    3.6250    7.9778  -22.8598 H   0  0  0  0  0  0
    2.6615    7.7933  -21.4066 H   0  0  0  0  0  0
    5.4863    6.6248  -21.7432 H   0  0  0  0  0  0
    4.5121    6.6333  -20.2445 H   0  0  0  0  0  0
    6.0279    8.4870  -20.0281 H   0  0  0  0  0  0
    4.4635    9.1954  -20.4138 H   0  0  0  0  0  0
    7.1961   10.6040  -20.9549 H   0  0  0  0  0  0
    6.9979   10.9870  -22.6819 H   0  0  0  0  0  0
  1  2  2  0  0  0
  1  3  1  0  0  0
  1 34  1  0  0  0
  2  6  1  0  0  0
  2 35  1  0  0  0
  3  5  2  0  0  0
  3 27  1  0  0  0
  4  5  1  0  0  0
  4  6  2  0  0  0
  4 18  1  0  0  0
  5 24  1  0  0  0
  6 10  1  0  0  0
  7 10  2  0  0  0
  7 23  1  0  0  0
  7 33  1  0  0  0
  8 21  1  0  0  0
  8 22  1  0  0  0
  8 36  1  0  0  0
  8 37  1  0  0  0
  9 21  1  0  0  0
  9 31  1  0  0  0
  9 38  1  0  0  0
  9 39  1  0  0  0
 10 40  1  0  0  0
 11 12  1  0  0  0
 11 14  2  0  0  0
 11 15  1  0  0  0
 12 17  1  0  0  0
 12 28  2  0  0  0
 13 28  1  0  0  0
 13 29  2  0  0  0
 13 54  1  0  0  0
 14 29  1  0  0  0
 14 31  1  0  0  0
 15 30  2  0  0  0
 15 41  1  0  0  0
 16 17  2  0  0  0
 16 18  1  0  0  0
 16 30  1  0  0  0
 17 26  1  0  0  0
 18 23  2  0  0  0
 19 20  1  0  0  0
 19 31  1  0  0  0
 19 42  1  0  0  0
 19 43  1  0  0  0
 20 22  1  0  0  0
 20 32  1  0  0  0
 20 44  1  0  0  0
 21 32  1  0  0  0
 21 45  1  0  0  0
 22 46  1  0  0  0
 22 47  1  0  0  0
 23 48  1  0  0  0
 24 25  3  0  0  0
 25 49  1  0  0  0
 32 50  1  0  0  0
 33 51  1  0  0  0
 52 57  2  0  0  0
 53 58  1  0  0  0
 53 59  1  0  0  0
 53 60  1  0  0  0
 53 61  1  0  0  0
 54 55  1  0  0  0
 54 62  1  0  0  0
 54 63  1  0  0  0
 55 56  1  0  0  0
 55 64  1  0  0  0
 55 65  1  0  0  0
 56 57  1  0  0  0
 56 66  1  0  0  0
 56 67  1  0  0  0
 57 58  1  0  0  0
 58 68  1  0  0  0
 58 69  1  0  0  0
M  CHG  1  53   1
M  END
> <s_m_entry_id>
199

> <s_m_entry_name>
000000041.1

> <s_m_Source_Path>
/Users/zaksoul/Documents/3r_UNI/2nd_SEMESTER/BSC/FRAG_RECON/RESULTS/2

> <s_m_Source_File>
000000041.mol2

> <i_m_Source_File_Index>
1

$$$$
No_0_42
                    3D
 Schrodinger Suite 2022-4.
 69 74  0  0  1  0            999 V2000
   -5.2790    3.3380  -21.7680 C   0  0  0  0  0  0
   -5.5450    3.5680  -23.0970 C   0  0  0  0  0  0
   -4.0350    3.1140  -21.4290 C   0  0  0  0  0  0
   -3.1380    3.3510  -23.5840 C   0  0  0  0  0  0
   -2.9760    3.0580  -22.1720 C   0  0  0  0  0  0
   -4.4920    3.5880  -24.1020 C   0  0  0  0  0  0
   -3.7280    3.7170  -26.2940 C   0  0  0  0  0  0
    5.9970    3.1080  -21.0040 C   0  0  0  0  0  0
    5.8650    3.3410  -23.5470 C   0  0  0  0  0  0
   -4.7410    3.7570  -25.4330 C   0  0  0  0  0  0
    2.0640    3.7640  -23.5650 C   0  0  0  0  0  0
    1.2050    4.8330  -23.2300 C   0  0  0  0  0  0
    2.9600    6.0610  -22.4950 C   0  0  0  0  0  0
    3.4560    3.9890  -23.2370 C   0  0  0  0  0  0
    1.5580    2.6550  -24.2710 C   0  0  0  0  0  0
   -0.5950    3.3930  -24.1420 C   0  0  0  0  0  0
   -0.1120    4.6060  -23.4950 C   0  0  0  0  0  0
   -2.0460    3.3640  -24.5040 C   0  0  0  0  0  0
    4.1430    1.5030  -23.0360 C   0  0  0  0  0  0
    5.0830    1.1360  -21.8980 C   0  0  2  0  0  0
    6.6260    2.7470  -22.3670 C   0  0  2  0  0  0
    5.0270    2.0910  -20.6940 C   0  0  0  0  0  0
   -2.3700    3.5660  -25.9270 C   0  0  0  0  0  0
   -1.6210    2.6680  -21.5820 C   0  0  0  0  0  0
   -0.5820    2.3350  -21.0840 C   0  0  0  0  0  0
   -0.9900    5.6090  -23.1160 F   0  0  0  0  0  0
   -3.8220    2.8260  -20.0560 F   0  0  0  0  0  0
    1.6410    5.9860  -22.6520 N   0  0  0  0  0  0
    3.8890    5.1370  -22.7460 N   0  0  0  0  0  0
    0.2570    2.5340  -24.5870 N   0  0  0  0  0  0
    4.4090    2.9790  -23.4480 N   0  0  0  0  0  0
    6.4890    1.2670  -22.3690 N   0  0  1  0  0  0
   -3.8950    3.7780  -27.6830 O   0  0  0  0  0  0
   -6.0855    3.3470  -21.0438 H   0  0  0  0  0  0
   -6.5641    3.7415  -23.4230 H   0  0  0  0  0  0
    5.4942    4.0834  -21.0797 H   0  0  0  0  0  0
    6.7788    3.1151  -20.2302 H   0  0  0  0  0  0
    6.2777    2.9445  -24.4864 H   0  0  0  0  0  0
    5.9720    4.4358  -23.5389 H   0  0  0  0  0  0
   -5.7553    3.9215  -25.7781 H   0  0  0  0  0  0
    2.2256    1.8589  -24.5802 H   0  0  0  0  0  0
    3.1014    1.3990  -22.6979 H   0  0  0  0  0  0
    4.3318    0.8427  -23.8952 H   0  0  0  0  0  0
    4.8913    0.1040  -21.5691 H   0  0  0  0  0  0
    7.6854    3.0416  -22.3983 H   0  0  0  0  0  0
    4.0275    2.5469  -20.6375 H   0  0  0  0  0  0
    5.3400    1.5528  -19.7872 H   0  0  0  0  0  0
   -1.5969    3.6001  -26.6861 H   0  0  0  0  0  0
    0.3330    2.0430  -20.6450 H   0  0  0  0  0  0
    7.1501    0.7653  -21.6779 H   0  0  0  0  0  0
   -3.0458    3.7345  -28.1066 H   0  0  0  0  0  0
    5.5280    9.2010  -23.4520 O   0  0  0  0  0  0
    5.1460   11.8460  -21.4040 N   0  3  0  0  0  0
    3.4720    7.3990  -21.9740 C   0  0  0  0  0  0
    4.9230    7.3380  -21.4620 C   0  0  0  0  0  0
    5.4210    8.7470  -21.1030 C   0  0  0  0  0  0
    5.6830    9.6040  -22.3220 C   0  0  0  0  0  0
    6.1910   11.0040  -22.0780 C   0  0  0  0  0  0
    5.5087   12.7742  -21.2521 H   0  0  0  0  0  0
    4.3268   11.8980  -21.9891 H   0  0  0  0  0  0
    4.9009   11.4329  -20.5178 H   0  0  0  0  0  0
    3.3980    8.1538  -22.7708 H   0  0  0  0  0  0
    2.8145    7.7533  -21.1664 H   0  0  0  0  0  0
    5.5691    6.9090  -22.2421 H   0  0  0  0  0  0
    4.9700    6.6949  -20.5708 H   0  0  0  0  0  0
    6.3421    8.6680  -20.5069 H   0  0  0  0  0  0
    4.6793    9.2438  -20.4603 H   0  0  0  0  0  0
    7.0910   10.9620  -21.4470 H   0  0  0  0  0  0
    6.4699   11.4638  -23.0376 H   0  0  0  0  0  0
  1  2  2  0  0  0
  1  3  1  0  0  0
  1 34  1  0  0  0
  2  6  1  0  0  0
  2 35  1  0  0  0
  3  5  2  0  0  0
  3 27  1  0  0  0
  4  5  1  0  0  0
  4  6  2  0  0  0
  4 18  1  0  0  0
  5 24  1  0  0  0
  6 10  1  0  0  0
  7 10  2  0  0  0
  7 23  1  0  0  0
  7 33  1  0  0  0
  8 21  1  0  0  0
  8 22  1  0  0  0
  8 36  1  0  0  0
  8 37  1  0  0  0
  9 21  1  0  0  0
  9 31  1  0  0  0
  9 38  1  0  0  0
  9 39  1  0  0  0
 10 40  1  0  0  0
 11 12  1  0  0  0
 11 14  2  0  0  0
 11 15  1  0  0  0
 12 17  1  0  0  0
 12 28  2  0  0  0
 13 28  1  0  0  0
 13 29  2  0  0  0
 13 54  1  0  0  0
 14 29  1  0  0  0
 14 31  1  0  0  0
 15 30  2  0  0  0
 15 41  1  0  0  0
 16 17  2  0  0  0
 16 18  1  0  0  0
 16 30  1  0  0  0
 17 26  1  0  0  0
 18 23  2  0  0  0
 19 20  1  0  0  0
 19 31  1  0  0  0
 19 42  1  0  0  0
 19 43  1  0  0  0
 20 22  1  0  0  0
 20 32  1  0  0  0
 20 44  1  0  0  0
 21 32  1  0  0  0
 21 45  1  0  0  0
 22 46  1  0  0  0
 22 47  1  0  0  0
 23 48  1  0  0  0
 24 25  3  0  0  0
 25 49  1  0  0  0
 32 50  1  0  0  0
 33 51  1  0  0  0
 52 57  2  0  0  0
 53 58  1  0  0  0
 53 59  1  0  0  0
 53 60  1  0  0  0
 53 61  1  0  0  0
 54 55  1  0  0  0
 54 62  1  0  0  0
 54 63  1  0  0  0
 55 56  1  0  0  0
 55 64  1  0  0  0
 55 65  1  0  0  0
 56 57  1  0  0  0
 56 66  1  0  0  0
 56 67  1  0  0  0
 57 58  1  0  0  0
 58 68  1  0  0  0
 58 69  1  0  0  0
M  CHG  1  53   1
M  END
> <s_m_entry_id>
200

> <s_m_entry_name>
000000042.1

> <s_m_Source_Path>
/Users/zaksoul/Documents/3r_UNI/2nd_SEMESTER/BSC/FRAG_RECON/RESULTS/2

> <s_m_Source_File>
000000042.mol2

> <i_m_Source_File_Index>
1

$$$$
No_0_43
                    3D
 Schrodinger Suite 2022-4.
 69 74  0  0  1  0            999 V2000
   -5.0610    3.6470  -21.9640 C   0  0  0  0  0  0
   -5.3230    3.8350  -23.3010 C   0  0  0  0  0  0
   -3.8190    3.4250  -21.6160 C   0  0  0  0  0  0
   -2.9160    3.5860  -23.7750 C   0  0  0  0  0  0
   -2.7590    3.3380  -22.3540 C   0  0  0  0  0  0
   -4.2670    3.8160  -24.3040 C   0  0  0  0  0  0
   -3.4970    3.8690  -26.4970 C   0  0  0  0  0  0
    6.2110    3.3650  -21.1670 C   0  0  0  0  0  0
    6.0870    3.5170  -23.7170 C   0  0  0  0  0  0
   -4.5120    3.9430  -25.6400 C   0  0  0  0  0  0
    2.2890    3.9650  -23.7580 C   0  0  0  0  0  0
    1.4370    5.0490  -23.4590 C   0  0  0  0  0  0
    3.1980    6.2890  -22.7600 C   0  0  0  0  0  0
    3.6810    4.1910  -23.4340 C   0  0  0  0  0  0
    1.7770    2.8370  -24.4280 C   0  0  0  0  0  0
   -0.3720    3.5930  -24.3290 C   0  0  0  0  0  0
    0.1180    4.8240  -23.7200 C   0  0  0  0  0  0
   -1.8220    3.5620  -24.6930 C   0  0  0  0  0  0
    4.3510    1.7080  -23.1500 C   0  0  0  0  0  0
    5.2860    1.3710  -21.9990 C   0  0  2  0  0  0
    6.8410    2.9570  -22.5170 C   0  0  2  0  0  0
    5.2340    2.3660  -20.8270 C   0  0  0  0  0  0
   -2.1420    3.7210  -26.1220 C   0  0  0  0  0  0
   -1.4080    2.9580  -21.7490 C   0  0  0  0  0  0
   -0.3720    2.6350  -21.2370 C   0  0  0  0  0  0
   -0.7530    5.8440  -23.3760 F   0  0  0  0  0  0
   -3.6110    3.1800  -20.2340 F   0  0  0  0  0  0
    1.8790    6.2180  -22.9180 N   0  0  0  0  0  0
    4.1210    5.3510  -22.9790 N   0  0  0  0  0  0
    0.4760    2.7140  -24.7430 N   0  0  0  0  0  0
    4.6280    3.1690  -23.6100 N   0  0  0  0  0  0
    6.6940    1.4780  -22.4710 N   0  0  1  0  0  0
   -3.6610    3.8860  -27.8870 O   0  0  0  0  0  0
   -5.8695    3.6842  -21.2429 H   0  0  0  0  0  0
   -6.3401    4.0047  -23.6353 H   0  0  0  0  0  0
    5.7154    4.3411  -21.2750 H   0  0  0  0  0  0
    6.9916    3.3922  -20.3925 H   0  0  0  0  0  0
    6.4991    3.0877  -24.6422 H   0  0  0  0  0  0
    6.2010    4.6108  -23.7432 H   0  0  0  0  0  0
   -5.5245    4.1036  -25.9922 H   0  0  0  0  0  0
    2.4396    2.0268  -24.7101 H   0  0  0  0  0  0
    3.3077    1.6222  -22.8120 H   0  0  0  0  0  0
    4.5377    1.0198  -23.9876 H   0  0  0  0  0  0
    5.0861    0.3515  -21.6376 H   0  0  0  0  0  0
    7.9026    3.2426  -22.5543 H   0  0  0  0  0  0
    4.2374    2.8300  -20.7877 H   0  0  0  0  0  0
    5.5409    1.8552  -19.9024 H   0  0  0  0  0  0
   -1.3670    3.7260  -26.8799 H   0  0  0  0  0  0
    0.5399    2.3500  -20.7871 H   0  0  0  0  0  0
    7.3501    0.9943  -21.7625 H   0  0  0  0  0  0
   -2.8114    3.8227  -28.3073 H   0  0  0  0  0  0
    5.2460    9.6770  -24.0620 O   0  0  0  0  0  0
    5.1540   12.1810  -21.8120 N   0  3  0  0  0  0
    3.7180    7.6400  -22.2810 C   0  0  0  0  0  0
    5.2480    7.6780  -22.1120 C   0  0  0  0  0  0
    5.7120    9.1060  -21.7830 C   0  0  0  0  0  0
    5.6260   10.0380  -22.9710 C   0  0  0  0  0  0
    6.0750   11.4630  -22.7570 C   0  0  0  0  0  0
    5.4739   13.1286  -21.6861 H   0  0  0  0  0  0
    4.2212   12.1900  -22.1939 H   0  0  0  0  0  0
    5.1480   11.7068  -20.9225 H   0  0  0  0  0  0
    3.4099    8.4223  -22.9903 H   0  0  0  0  0  0
    3.2390    7.8980  -21.3250 H   0  0  0  0  0  0
    5.7280    7.3420  -23.0430 H   0  0  0  0  0  0
    5.5440    7.0000  -21.2980 H   0  0  0  0  0  0
    6.7479    9.0770  -21.4140 H   0  0  0  0  0  0
    5.1039    9.5071  -20.9588 H   0  0  0  0  0  0
    7.0961   11.4680  -22.3480 H   0  0  0  0  0  0
    6.0930   11.9902  -23.7223 H   0  0  0  0  0  0
  1  2  2  0  0  0
  1  3  1  0  0  0
  1 34  1  0  0  0
  2  6  1  0  0  0
  2 35  1  0  0  0
  3  5  2  0  0  0
  3 27  1  0  0  0
  4  5  1  0  0  0
  4  6  2  0  0  0
  4 18  1  0  0  0
  5 24  1  0  0  0
  6 10  1  0  0  0
  7 10  2  0  0  0
  7 23  1  0  0  0
  7 33  1  0  0  0
  8 21  1  0  0  0
  8 22  1  0  0  0
  8 36  1  0  0  0
  8 37  1  0  0  0
  9 21  1  0  0  0
  9 31  1  0  0  0
  9 38  1  0  0  0
  9 39  1  0  0  0
 10 40  1  0  0  0
 11 12  1  0  0  0
 11 14  2  0  0  0
 11 15  1  0  0  0
 12 17  1  0  0  0
 12 28  2  0  0  0
 13 28  1  0  0  0
 13 29  2  0  0  0
 13 54  1  0  0  0
 14 29  1  0  0  0
 14 31  1  0  0  0
 15 30  2  0  0  0
 15 41  1  0  0  0
 16 17  2  0  0  0
 16 18  1  0  0  0
 16 30  1  0  0  0
 17 26  1  0  0  0
 18 23  2  0  0  0
 19 20  1  0  0  0
 19 31  1  0  0  0
 19 42  1  0  0  0
 19 43  1  0  0  0
 20 22  1  0  0  0
 20 32  1  0  0  0
 20 44  1  0  0  0
 21 32  1  0  0  0
 21 45  1  0  0  0
 22 46  1  0  0  0
 22 47  1  0  0  0
 23 48  1  0  0  0
 24 25  3  0  0  0
 25 49  1  0  0  0
 32 50  1  0  0  0
 33 51  1  0  0  0
 52 57  2  0  0  0
 53 58  1  0  0  0
 53 59  1  0  0  0
 53 60  1  0  0  0
 53 61  1  0  0  0
 54 55  1  0  0  0
 54 62  1  0  0  0
 54 63  1  0  0  0
 55 56  1  0  0  0
 55 64  1  0  0  0
 55 65  1  0  0  0
 56 57  1  0  0  0
 56 66  1  0  0  0
 56 67  1  0  0  0
 57 58  1  0  0  0
 58 68  1  0  0  0
 58 69  1  0  0  0
M  CHG  1  53   1
M  END
> <s_m_entry_id>
201

> <s_m_entry_name>
000000043.1

> <s_m_Source_Path>
/Users/zaksoul/Documents/3r_UNI/2nd_SEMESTER/BSC/FRAG_RECON/RESULTS/2

> <s_m_Source_File>
000000043.mol2

> <i_m_Source_File_Index>
1

$$$$
No_0_44
                    3D
 Schrodinger Suite 2022-4.
 69 74  0  0  1  0            999 V2000
   -5.2580    3.4180  -21.9560 C   0  0  0  0  0  0
   -5.4940    3.6330  -23.2940 C   0  0  0  0  0  0
   -4.0230    3.1880  -21.5880 C   0  0  0  0  0  0
   -3.0790    3.3910  -23.7250 C   0  0  0  0  0  0
   -2.9490    3.1160  -22.3070 C   0  0  0  0  0  0
   -4.4180    3.6320  -24.2760 C   0  0  0  0  0  0
   -3.6060    3.7280  -26.4520 C   0  0  0  0  0  0
    5.9960    3.1130  -20.9440 C   0  0  0  0  0  0
    5.9210    3.3150  -23.4920 C   0  0  0  0  0  0
   -4.6370    3.7860  -25.6140 C   0  0  0  0  0  0
    2.1250    3.7660  -23.5990 C   0  0  0  0  0  0
    1.2680    4.8450  -23.2950 C   0  0  0  0  0  0
    3.0150    6.0690  -22.5380 C   0  0  0  0  0  0
    3.5120    3.9840  -23.2430 C   0  0  0  0  0  0
    1.6260    2.6520  -24.3010 C   0  0  0  0  0  0
   -0.5240    3.4070  -24.2290 C   0  0  0  0  0  0
   -0.0450    4.6250  -23.5870 C   0  0  0  0  0  0
   -1.9670    3.3850  -24.6220 C   0  0  0  0  0  0
    4.1750    1.4960  -22.9960 C   0  0  0  0  0  0
    5.0870    1.1360  -21.8330 C   0  0  2  0  0  0
    6.6520    2.7300  -22.2890 C   0  0  2  0  0  0
    5.0120    2.1070  -20.6430 C   0  0  0  0  0  0
   -2.2580    3.5710  -26.0540 C   0  0  0  0  0  0
   -1.6110    2.7220  -21.6830 C   0  0  0  0  0  0
   -0.5850    2.3890  -21.1580 C   0  0  0  0  0  0
   -0.9230    5.6400  -23.2400 F   0  0  0  0  0  0
   -3.8430    2.9170  -20.2070 F   0  0  0  0  0  0
    1.7000    6.0020  -22.7230 N   0  0  0  0  0  0
    3.9420    5.1360  -22.7570 N   0  0  0  0  0  0
    0.3310    2.5360  -24.6440 N   0  0  0  0  0  0
    4.4610    2.9650  -23.4210 N   0  0  0  0  0  0
    6.5030    1.2510  -22.2760 N   0  0  1  0  0  0
   -3.7430    3.7730  -27.8450 O   0  0  0  0  0  0
   -6.0803    3.4421  -21.2501 H   0  0  0  0  0  0
   -6.5044    3.8098  -23.6445 H   0  0  0  0  0  0
    5.5024    4.0911  -21.0429 H   0  0  0  0  0  0
    6.7611    3.1241  -20.1537 H   0  0  0  0  0  0
    6.3516    2.9035  -24.4168 H   0  0  0  0  0  0
    6.0360    4.4090  -23.4950 H   0  0  0  0  0  0
   -5.6423    3.9536  -25.9832 H   0  0  0  0  0  0
    2.2942    1.8474  -24.5859 H   0  0  0  0  0  0
    3.1252    1.4052  -22.6803 H   0  0  0  0  0  0
    4.3770    0.8232  -23.8425 H   0  0  0  0  0  0
    4.8791    0.1097  -21.4960 H   0  0  0  0  0  0
    7.7142    3.0155  -22.3001 H   0  0  0  0  0  0
    4.0151    2.5711  -20.6147 H   0  0  0  0  0  0
    5.3007    1.5790  -19.7222 H   0  0  0  0  0  0
   -1.4684    3.5901  -26.7964 H   0  0  0  0  0  0
    0.3179    2.0950  -20.6960 H   0  0  0  0  0  0
    7.1444    0.7529  -21.5641 H   0  0  0  0  0  0
   -2.8853    3.7166  -28.2496 H   0  0  0  0  0  0
    4.4870    9.7480  -23.8310 O   0  0  0  0  0  0
    4.6960   12.0000  -21.3350 N   0  3  0  0  0  0
    3.5270    7.4100  -22.0230 C   0  0  0  0  0  0
    5.0510    7.5770  -22.1680 C   0  0  0  0  0  0
    5.4700    9.0030  -21.7770 C   0  0  0  0  0  0
    5.0640   10.0350  -22.8070 C   0  0  0  0  0  0
    5.4440   11.4680  -22.5250 C   0  0  0  0  0  0
    4.9662   12.9566  -21.1679 H   0  0  0  0  0  0
    3.7050   11.9570  -21.5140 H   0  0  0  0  0  0
    4.9150   11.4430  -20.5239 H   0  0  0  0  0  0
    3.0179    8.2252  -22.5581 H   0  0  0  0  0  0
    3.2460    7.5270  -20.9660 H   0  0  0  0  0  0
    5.3431    7.3810  -23.2102 H   0  0  0  0  0  0
    5.5619    6.8541  -21.5151 H   0  0  0  0  0  0
    6.5602    9.0380  -21.6350 H   0  0  0  0  0  0
    5.0241    9.2619  -20.8053 H   0  0  0  0  0  0
    6.5258   11.5300  -22.3359 H   0  0  0  0  0  0
    5.2171   12.0868  -23.4057 H   0  0  0  0  0  0
  1  2  2  0  0  0
  1  3  1  0  0  0
  1 34  1  0  0  0
  2  6  1  0  0  0
  2 35  1  0  0  0
  3  5  2  0  0  0
  3 27  1  0  0  0
  4  5  1  0  0  0
  4  6  2  0  0  0
  4 18  1  0  0  0
  5 24  1  0  0  0
  6 10  1  0  0  0
  7 10  2  0  0  0
  7 23  1  0  0  0
  7 33  1  0  0  0
  8 21  1  0  0  0
  8 22  1  0  0  0
  8 36  1  0  0  0
  8 37  1  0  0  0
  9 21  1  0  0  0
  9 31  1  0  0  0
  9 38  1  0  0  0
  9 39  1  0  0  0
 10 40  1  0  0  0
 11 12  1  0  0  0
 11 14  2  0  0  0
 11 15  1  0  0  0
 12 17  1  0  0  0
 12 28  2  0  0  0
 13 28  1  0  0  0
 13 29  2  0  0  0
 13 54  1  0  0  0
 14 29  1  0  0  0
 14 31  1  0  0  0
 15 30  2  0  0  0
 15 41  1  0  0  0
 16 17  2  0  0  0
 16 18  1  0  0  0
 16 30  1  0  0  0
 17 26  1  0  0  0
 18 23  2  0  0  0
 19 20  1  0  0  0
 19 31  1  0  0  0
 19 42  1  0  0  0
 19 43  1  0  0  0
 20 22  1  0  0  0
 20 32  1  0  0  0
 20 44  1  0  0  0
 21 32  1  0  0  0
 21 45  1  0  0  0
 22 46  1  0  0  0
 22 47  1  0  0  0
 23 48  1  0  0  0
 24 25  3  0  0  0
 25 49  1  0  0  0
 32 50  1  0  0  0
 33 51  1  0  0  0
 52 57  2  0  0  0
 53 58  1  0  0  0
 53 59  1  0  0  0
 53 60  1  0  0  0
 53 61  1  0  0  0
 54 55  1  0  0  0
 54 62  1  0  0  0
 54 63  1  0  0  0
 55 56  1  0  0  0
 55 64  1  0  0  0
 55 65  1  0  0  0
 56 57  1  0  0  0
 56 66  1  0  0  0
 56 67  1  0  0  0
 57 58  1  0  0  0
 58 68  1  0  0  0
 58 69  1  0  0  0
M  CHG  1  53   1
M  END
> <s_m_entry_id>
202

> <s_m_entry_name>
000000044.1

> <s_m_Source_Path>
/Users/zaksoul/Documents/3r_UNI/2nd_SEMESTER/BSC/FRAG_RECON/RESULTS/2

> <s_m_Source_File>
000000044.mol2

> <i_m_Source_File_Index>
1

$$$$
No_0_45
                    3D
 Schrodinger Suite 2022-4.
 69 74  0  0  1  0            999 V2000
   -5.4130    3.3960  -21.6550 C   0  0  0  0  0  0
   -5.6850    3.6140  -22.9850 C   0  0  0  0  0  0
   -4.1700    3.1530  -21.3230 C   0  0  0  0  0  0
   -3.2860    3.3460  -23.4870 C   0  0  0  0  0  0
   -3.1180    3.0690  -22.0730 C   0  0  0  0  0  0
   -4.6390    3.6020  -23.9980 C   0  0  0  0  0  0
   -3.8900    3.6890  -26.1970 C   0  0  0  0  0  0
    5.8630    2.9680  -20.9730 C   0  0  0  0  0  0
    5.7150    3.1720  -23.5180 C   0  0  0  0  0  0
   -4.8950    3.7580  -25.3300 C   0  0  0  0  0  0
    1.9230    3.6640  -23.5130 C   0  0  0  0  0  0
    1.0870    4.7520  -23.1850 C   0  0  0  0  0  0
    2.8690    5.9570  -22.4790 C   0  0  0  0  0  0
    3.3210    3.8680  -23.1990 C   0  0  0  0  0  0
    1.3920    2.5560  -24.2010 C   0  0  0  0  0  0
   -0.7470    3.3340  -24.0650 C   0  0  0  0  0  0
   -0.2370    4.5470  -23.4370 C   0  0  0  0  0  0
   -2.2010    3.3280  -24.4160 C   0  0  0  0  0  0
    3.9640    1.3730  -22.9700 C   0  0  0  0  0  0
    4.9060    1.0020  -21.8350 C   0  0  2  0  0  0
    6.4750    2.5790  -22.3370 C   0  0  2  0  0  0
    4.8770    1.9740  -20.6430 C   0  0  0  0  0  0
   -2.5330    3.5180  -25.8390 C   0  0  0  0  0  0
   -1.7660    2.6610  -21.4880 C   0  0  0  0  0  0
   -0.7290    2.3160  -20.9940 C   0  0  0  0  0  0
   -1.0930    5.5710  -23.0650 F   0  0  0  0  0  0
   -3.9520    2.8790  -19.9480 F   0  0  0  0  0  0
    1.5480    5.9050  -22.6260 N   0  0  0  0  0  0
    3.7790    5.0140  -22.7260 N   0  0  0  0  0  0
    0.0860    2.4540  -24.5050 N   0  0  0  0  0  0
    4.2540    2.8380  -23.4040 N   0  0  0  0  0  0
    6.3110    1.1020  -22.3190 N   0  0  1  0  0  0
   -4.0670    3.7360  -27.5860 O   0  0  0  0  0  0
   -6.2135    3.4291  -20.9248 H   0  0  0  0  0  0
   -6.7031    3.8018  -23.3063 H   0  0  0  0  0  0
    5.3778    3.9516  -21.0577 H   0  0  0  0  0  0
    6.6513    2.9710  -20.2059 H   0  0  0  0  0  0
    6.1135    2.7563  -24.4552 H   0  0  0  0  0  0
    5.8421    4.2646  -23.5241 H   0  0  0  0  0  0
   -5.9090    3.9365  -25.6690 H   0  0  0  0  0  0
    2.0425    1.7439  -24.5051 H   0  0  0  0  0  0
    2.9231    1.2922  -22.6237 H   0  0  0  0  0  0
    4.1344    0.6984  -23.8220 H   0  0  0  0  0  0
    4.6981   -0.0222  -21.4919 H   0  0  0  0  0  0
    7.5394    2.8534  -22.3794 H   0  0  0  0  0  0
    3.8861    2.4482  -20.5855 H   0  0  0  0  0  0
    5.1868    1.4412  -19.7318 H   0  0  0  0  0  0
   -1.7650    3.5290  -26.6040 H   0  0  0  0  0  0
    0.1836    2.0121  -20.5582 H   0  0  0  0  0  0
    6.9674    0.5963  -21.6263 H   0  0  0  0  0  0
   -3.2221    3.6707  -28.0154 H   0  0  0  0  0  0
    3.5940    9.8780  -23.6930 O   0  0  0  0  0  0
    4.3810   11.8990  -21.1170 N   0  3  0  0  0  0
    3.4100    7.2930  -21.9790 C   0  0  0  0  0  0
    4.8000    7.6360  -22.5440 C   0  0  0  0  0  0
    5.2080    9.0580  -22.1250 C   0  0  0  0  0  0
    4.4320   10.1300  -22.8580 C   0  0  0  0  0  0
    4.7690   11.5640  -22.5290 C   0  0  0  0  0  0
    4.6159   12.8597  -20.9221 H   0  0  0  0  0  0
    3.3887   11.7660  -21.0000 H   0  0  0  0  0  0
    4.8779   11.2961  -20.4801 H   0  0  0  0  0  0
    2.7020    8.0940  -22.2380 H   0  0  0  0  0  0
    3.4550    7.2800  -20.8800 H   0  0  0  0  0  0
    4.7750    7.5710  -23.6418 H   0  0  0  0  0  0
    5.5393    6.9157  -22.1638 H   0  0  0  0  0  0
    6.2839    9.1970  -22.3070 H   0  0  0  0  0  0
    5.0610    9.1760  -21.0413 H   0  0  0  0  0  0
    5.8492   11.7250  -22.6600 H   0  0  0  0  0  0
    4.2390   12.2330  -23.2230 H   0  0  0  0  0  0
  1  2  2  0  0  0
  1  3  1  0  0  0
  1 34  1  0  0  0
  2  6  1  0  0  0
  2 35  1  0  0  0
  3  5  2  0  0  0
  3 27  1  0  0  0
  4  5  1  0  0  0
  4  6  2  0  0  0
  4 18  1  0  0  0
  5 24  1  0  0  0
  6 10  1  0  0  0
  7 10  2  0  0  0
  7 23  1  0  0  0
  7 33  1  0  0  0
  8 21  1  0  0  0
  8 22  1  0  0  0
  8 36  1  0  0  0
  8 37  1  0  0  0
  9 21  1  0  0  0
  9 31  1  0  0  0
  9 38  1  0  0  0
  9 39  1  0  0  0
 10 40  1  0  0  0
 11 12  1  0  0  0
 11 14  2  0  0  0
 11 15  1  0  0  0
 12 17  1  0  0  0
 12 28  2  0  0  0
 13 28  1  0  0  0
 13 29  2  0  0  0
 13 54  1  0  0  0
 14 29  1  0  0  0
 14 31  1  0  0  0
 15 30  2  0  0  0
 15 41  1  0  0  0
 16 17  2  0  0  0
 16 18  1  0  0  0
 16 30  1  0  0  0
 17 26  1  0  0  0
 18 23  2  0  0  0
 19 20  1  0  0  0
 19 31  1  0  0  0
 19 42  1  0  0  0
 19 43  1  0  0  0
 20 22  1  0  0  0
 20 32  1  0  0  0
 20 44  1  0  0  0
 21 32  1  0  0  0
 21 45  1  0  0  0
 22 46  1  0  0  0
 22 47  1  0  0  0
 23 48  1  0  0  0
 24 25  3  0  0  0
 25 49  1  0  0  0
 32 50  1  0  0  0
 33 51  1  0  0  0
 52 57  2  0  0  0
 53 58  1  0  0  0
 53 59  1  0  0  0
 53 60  1  0  0  0
 53 61  1  0  0  0
 54 55  1  0  0  0
 54 62  1  0  0  0
 54 63  1  0  0  0
 55 56  1  0  0  0
 55 64  1  0  0  0
 55 65  1  0  0  0
 56 57  1  0  0  0
 56 66  1  0  0  0
 56 67  1  0  0  0
 57 58  1  0  0  0
 58 68  1  0  0  0
 58 69  1  0  0  0
M  CHG  1  53   1
M  END
> <s_m_entry_id>
203

> <s_m_entry_name>
000000045.1

> <s_m_Source_Path>
/Users/zaksoul/Documents/3r_UNI/2nd_SEMESTER/BSC/FRAG_RECON/RESULTS/2

> <s_m_Source_File>
000000045.mol2

> <i_m_Source_File_Index>
1

$$$$
No_0_46
                    3D
 Schrodinger Suite 2022-4.
 79 85  0  0  1  0            999 V2000
   -5.1640    3.6080  -22.3330 C   0  0  0  0  0  0
   -5.4040    3.7590  -23.6780 C   0  0  0  0  0  0
   -3.9280    3.3910  -21.9590 C   0  0  0  0  0  0
   -2.9920    3.4850  -24.1070 C   0  0  0  0  0  0
   -2.8570    3.2780  -22.6780 C   0  0  0  0  0  0
   -4.3330    3.7050  -24.6640 C   0  0  0  0  0  0
   -3.5290    3.6900  -26.8450 C   0  0  0  0  0  0
    6.0940    3.3000  -21.3530 C   0  0  0  0  0  0
    6.0090    3.3780  -23.9070 C   0  0  0  0  0  0
   -4.5570    3.7940  -26.0070 C   0  0  0  0  0  0
    2.2140    3.8410  -24.0200 C   0  0  0  0  0  0
    1.3630    4.9380  -23.7660 C   0  0  0  0  0  0
    3.1190    6.1890  -23.0770 C   0  0  0  0  0  0
    3.6030    4.0700  -23.6810 C   0  0  0  0  0  0
    1.7070    2.6960  -24.6660 C   0  0  0  0  0  0
   -0.4390    3.4640  -24.6210 C   0  0  0  0  0  0
    0.0480    4.7100  -24.0410 C   0  0  0  0  0  0
   -1.8840    3.4300  -25.0070 C   0  0  0  0  0  0
    4.2560    1.5950  -23.3150 C   0  0  0  0  0  0
    5.1710    1.2870  -22.1400 C   0  0  2  0  0  0
    6.7420    2.8500  -22.6800 C   0  0  2  0  0  0
    5.1060    2.3160  -20.9990 C   0  0  0  0  0  0
   -2.1800    3.5470  -26.4460 C   0  0  0  0  0  0
   -1.5180    2.9100  -22.0410 C   0  0  0  0  0  0
   -0.4920    2.5970  -21.5040 C   0  0  0  0  0  0
   -0.8240    5.7440  -23.7410 F   0  0  0  0  0  0
   -3.7430    3.1870  -20.5670 F   0  0  0  0  0  0
    1.8030    6.1200  -23.2530 N   0  0  0  0  0  0
    4.0410    5.2420  -23.2540 N   0  0  0  0  0  0
    0.4100    2.5700  -24.9970 N   0  0  0  0  0  0
    4.5470    3.0390  -23.8130 N   0  0  0  0  0  0
    6.5870    1.3740  -22.5930 N   0  0  1  0  0  0
   -3.6710    3.6680  -28.2380 O   0  0  0  0  0  0
   -5.9834    3.6713  -21.6261 H   0  0  0  0  0  0
   -6.4149    3.9226  -24.0334 H   0  0  0  0  0  0
    5.6038    4.2743  -21.4962 H   0  0  0  0  0  0
    6.8620    3.3464  -20.5668 H   0  0  0  0  0  0
    6.4332    2.9205  -24.8129 H   0  0  0  0  0  0
    6.1291    4.4700  -23.9635 H   0  0  0  0  0  0
   -5.5628    3.9486  -26.3804 H   0  0  0  0  0  0
    2.3704    1.8750  -24.9129 H   0  0  0  0  0  0
    3.2072    1.5233  -22.9910 H   0  0  0  0  0  0
    4.4517    0.8806  -24.1282 H   0  0  0  0  0  0
    4.9610    0.2793  -21.7523 H   0  0  0  0  0  0
    7.8055    3.1295  -22.7093 H   0  0  0  0  0  0
    4.1111    2.7852  -20.9889 H   0  0  0  0  0  0
    5.3965    1.8319  -20.0549 H   0  0  0  0  0  0
   -1.3933    3.5269  -27.1915 H   0  0  0  0  0  0
    0.4118    2.3221  -21.0321 H   0  0  0  0  0  0
    7.2295    0.9079  -21.8607 H   0  0  0  0  0  0
   -2.8153    3.5888  -28.6431 H   0  0  0  0  0  0
    5.7930    9.3000  -21.0890 N   0  3  0  0  0  0
    5.3880   10.7220  -23.0530 N   0  0  0  0  0  0
    7.4810    9.8470  -22.3550 N   0  0  0  0  0  0
    3.9560    7.5910  -21.1230 C   0  0  0  0  0  0
    8.1240    9.0820  -21.3030 C   0  0  0  0  0  0
    6.9360    8.7750  -20.3540 C   0  0  0  0  0  0
    4.4450    8.9670  -20.6310 C   0  0  0  0  0  0
    3.6390    7.5520  -22.6300 C   0  0  0  0  0  0
    6.1510    9.9850  -22.2000 C   0  0  0  0  0  0
    5.8270   10.9660  -24.4210 C   0  0  0  0  0  0
    4.1480   11.3850  -22.6690 C   0  0  0  0  0  0
    7.9508   10.2689  -23.1687 H   0  0  0  0  0  0
    3.0626    7.2969  -20.5527 H   0  0  0  0  0  0
    4.7150    6.8300  -20.8890 H   0  0  0  0  0  0
    8.8477    9.7238  -20.7792 H   0  0  0  0  0  0
    8.5050    8.1390  -21.7220 H   0  0  0  0  0  0
    6.8290    7.6853  -20.2490 H   0  0  0  0  0  0
    7.0600    9.3441  -19.4209 H   0  0  0  0  0  0
    3.7429    9.7451  -20.9650 H   0  0  0  0  0  0
    4.4160    8.9930  -19.5317 H   0  0  0  0  0  0
    4.5447    7.8032  -23.2015 H   0  0  0  0  0  0
    2.8919    8.3241  -22.8660 H   0  0  0  0  0  0
    5.0771   11.5769  -24.9449 H   0  0  0  0  0  0
    6.7891   11.4991  -24.4080 H   0  0  0  0  0  0
    5.9470   10.0062  -24.9449 H   0  0  0  0  0  0
    3.7280   11.9110  -23.5390 H   0  0  0  0  0  0
    3.4272   10.6352  -22.3111 H   0  0  0  0  0  0
    4.3521   12.1083  -21.8657 H   0  0  0  0  0  0
  1  2  2  0  0  0
  1  3  1  0  0  0
  1 34  1  0  0  0
  2  6  1  0  0  0
  2 35  1  0  0  0
  3  5  2  0  0  0
  3 27  1  0  0  0
  4  5  1  0  0  0
  4  6  2  0  0  0
  4 18  1  0  0  0
  5 24  1  0  0  0
  6 10  1  0  0  0
  7 10  2  0  0  0
  7 23  1  0  0  0
  7 33  1  0  0  0
  8 21  1  0  0  0
  8 22  1  0  0  0
  8 36  1  0  0  0
  8 37  1  0  0  0
  9 21  1  0  0  0
  9 31  1  0  0  0
  9 38  1  0  0  0
  9 39  1  0  0  0
 10 40  1  0  0  0
 11 12  1  0  0  0
 11 14  2  0  0  0
 11 15  1  0  0  0
 12 17  1  0  0  0
 12 28  2  0  0  0
 13 28  1  0  0  0
 13 29  2  0  0  0
 13 59  1  0  0  0
 14 29  1  0  0  0
 14 31  1  0  0  0
 15 30  2  0  0  0
 15 41  1  0  0  0
 16 17  2  0  0  0
 16 18  1  0  0  0
 16 30  1  0  0  0
 17 26  1  0  0  0
 18 23  2  0  0  0
 19 20  1  0  0  0
 19 31  1  0  0  0
 19 42  1  0  0  0
 19 43  1  0  0  0
 20 22  1  0  0  0
 20 32  1  0  0  0
 20 44  1  0  0  0
 21 32  1  0  0  0
 21 45  1  0  0  0
 22 46  1  0  0  0
 22 47  1  0  0  0
 23 48  1  0  0  0
 24 25  3  0  0  0
 25 49  1  0  0  0
 32 50  1  0  0  0
 33 51  1  0  0  0
 52 57  1  0  0  0
 52 58  1  0  0  0
 52 60  2  0  0  0
 53 60  1  0  0  0
 53 61  1  0  0  0
 53 62  1  0  0  0
 54 56  1  0  0  0
 54 60  1  0  0  0
 54 63  1  0  0  0
 55 58  1  0  0  0
 55 59  1  0  0  0
 55 64  1  0  0  0
 55 65  1  0  0  0
 56 57  1  0  0  0
 56 66  1  0  0  0
 56 67  1  0  0  0
 57 68  1  0  0  0
 57 69  1  0  0  0
 58 70  1  0  0  0
 58 71  1  0  0  0
 59 72  1  0  0  0
 59 73  1  0  0  0
 61 74  1  0  0  0
 61 75  1  0  0  0
 61 76  1  0  0  0
 62 77  1  0  0  0
 62 78  1  0  0  0
 62 79  1  0  0  0
M  CHG  1  52   1
M  END
> <s_m_entry_id>
204

> <s_m_entry_name>
000000046.1

> <s_m_Source_Path>
/Users/zaksoul/Documents/3r_UNI/2nd_SEMESTER/BSC/FRAG_RECON/RESULTS/2

> <s_m_Source_File>
000000046.mol2

> <i_m_Source_File_Index>
1

$$$$
No_0_47
                    3D
 Schrodinger Suite 2022-4.
 72 78  0  0  1  0            999 V2000
   -4.9150    3.7820  -22.0020 C   0  0  0  0  0  0
   -5.1800    3.9610  -23.3390 C   0  0  0  0  0  0
   -3.6810    3.5090  -21.6600 C   0  0  0  0  0  0
   -2.7910    3.5940  -23.8280 C   0  0  0  0  0  0
   -2.6330    3.3630  -22.4060 C   0  0  0  0  0  0
   -4.1340    3.8770  -24.3500 C   0  0  0  0  0  0
   -3.3830    3.8590  -26.5500 C   0  0  0  0  0  0
    6.3400    2.9990  -21.2920 C   0  0  0  0  0  0
    6.1990    3.1150  -23.8420 C   0  0  0  0  0  0
   -4.3860    3.9940  -25.6870 C   0  0  0  0  0  0
    2.4260    3.7350  -23.8600 C   0  0  0  0  0  0
    1.6270    4.8620  -23.5720 C   0  0  0  0  0  0
    3.4480    6.0310  -22.9080 C   0  0  0  0  0  0
    3.8300    3.9020  -23.5510 C   0  0  0  0  0  0
    1.8570    2.6210  -24.5080 C   0  0  0  0  0  0
   -0.2540    3.4760  -24.4030 C   0  0  0  0  0  0
    0.2970    4.6930  -23.8190 C   0  0  0  0  0  0
   -1.7070    3.5060  -24.7550 C   0  0  0  0  0  0
    4.3890    1.3970  -23.2320 C   0  0  0  0  0  0
    5.3170    1.0360  -22.0830 C   0  0  2  0  0  0
    6.9380    2.5400  -22.6390 C   0  0  2  0  0  0
    5.3200    2.0510  -20.9270 C   0  0  0  0  0  0
   -2.0320    3.6550  -26.1840 C   0  0  0  0  0  0
   -1.2950    2.9310  -21.8040 C   0  0  0  0  0  0
   -0.2710    2.5690  -21.2960 C   0  0  0  0  0  0
   -0.5240    5.7570  -23.4850 F   0  0  0  0  0  0
   -3.4730    3.2790  -20.2760 F   0  0  0  0  0  0
    2.1270    6.0180  -23.0540 N   0  0  0  0  0  0
    4.3260    5.0490  -23.1190 N   0  0  0  0  0  0
    0.5490    2.5530  -24.8100 N   0  0  0  0  0  0
    4.7280    2.8350  -23.7180 N   0  0  0  0  0  0
    6.7240    1.0710  -22.5680 N   0  0  1  0  0  0
   -3.5580    3.8620  -27.9390 O   0  0  0  0  0  0
   -5.7143    3.8694  -21.2750 H   0  0  0  0  0  0
   -6.1910    4.1718  -23.6683 H   0  0  0  0  0  0
    5.8877    3.9945  -21.4121 H   0  0  0  0  0  0
    7.1273    3.0030  -20.5238 H   0  0  0  0  0  0
    6.5834    2.6529  -24.7632 H   0  0  0  0  0  0
    6.3635    4.2017  -23.8874 H   0  0  0  0  0  0
   -5.3935    4.1939  -26.0335 H   0  0  0  0  0  0
    2.4795    1.7766  -24.7811 H   0  0  0  0  0  0
    3.3460    1.3647  -22.8840 H   0  0  0  0  0  0
    4.5354    0.6863  -24.0588 H   0  0  0  0  0  0
    5.0748    0.0327  -21.7025 H   0  0  0  0  0  0
    8.0112    2.7760  -22.6904 H   0  0  0  0  0  0
    4.3460    2.5607  -20.8876 H   0  0  0  0  0  0
    5.6126    1.5424  -19.9966 H   0  0  0  0  0  0
   -1.2641    3.6118  -26.9479 H   0  0  0  0  0  0
    0.6315    2.2512  -20.8492 H   0  0  0  0  0  0
    7.3635    0.5694  -21.8568 H   0  0  0  0  0  0
   -2.7162    3.7522  -28.3654 H   0  0  0  0  0  0
    7.8320    8.8900  -22.6630 O   0  0  0  0  0  0
    8.8220    6.6710  -20.1440 N   0  3  0  0  0  0
    7.0930    8.0080  -20.6850 N   0  0  0  0  0  0
    4.8450    7.2200  -21.1550 C   0  0  0  0  0  0
    9.3000    7.5850  -21.2370 C   0  0  0  0  0  0
    5.7050    8.4600  -20.8440 C   0  0  0  0  0  0
    4.0340    7.3640  -22.4560 C   0  0  0  0  0  0
    7.5760    7.2430  -19.5310 C   0  0  0  0  0  0
    8.0070    8.2510  -21.6350 C   0  0  0  0  0  0
    9.5374    6.5900  -19.4386 H   0  0  0  0  0  0
    8.6199    5.7625  -20.5312 H   0  0  0  0  0  0
    4.1598    7.0299  -20.3157 H   0  0  0  0  0  0
    5.4937    6.3344  -21.2250 H   0  0  0  0  0  0
    9.6670    6.9799  -22.0791 H   0  0  0  0  0  0
    9.9753    8.3393  -20.8068 H   0  0  0  0  0  0
    5.6440    9.1683  -21.6834 H   0  0  0  0  0  0
    5.3602    8.9187  -19.9056 H   0  0  0  0  0  0
    4.6817    7.7668  -23.2486 H   0  0  0  0  0  0
    3.2202    8.0879  -22.3020 H   0  0  0  0  0  0
    7.8611    7.9442  -18.7328 H   0  0  0  0  0  0
    6.8709    6.4239  -19.3260 H   0  0  0  0  0  0
  1  2  2  0  0  0
  1  3  1  0  0  0
  1 34  1  0  0  0
  2  6  1  0  0  0
  2 35  1  0  0  0
  3  5  2  0  0  0
  3 27  1  0  0  0
  4  5  1  0  0  0
  4  6  2  0  0  0
  4 18  1  0  0  0
  5 24  1  0  0  0
  6 10  1  0  0  0
  7 10  2  0  0  0
  7 23  1  0  0  0
  7 33  1  0  0  0
  8 21  1  0  0  0
  8 22  1  0  0  0
  8 36  1  0  0  0
  8 37  1  0  0  0
  9 21  1  0  0  0
  9 31  1  0  0  0
  9 38  1  0  0  0
  9 39  1  0  0  0
 10 40  1  0  0  0
 11 12  1  0  0  0
 11 14  2  0  0  0
 11 15  1  0  0  0
 12 17  1  0  0  0
 12 28  2  0  0  0
 13 28  1  0  0  0
 13 29  2  0  0  0
 13 58  1  0  0  0
 14 29  1  0  0  0
 14 31  1  0  0  0
 15 30  2  0  0  0
 15 41  1  0  0  0
 16 17  2  0  0  0
 16 18  1  0  0  0
 16 30  1  0  0  0
 17 26  1  0  0  0
 18 23  2  0  0  0
 19 20  1  0  0  0
 19 31  1  0  0  0
 19 42  1  0  0  0
 19 43  1  0  0  0
 20 22  1  0  0  0
 20 32  1  0  0  0
 20 44  1  0  0  0
 21 32  1  0  0  0
 21 45  1  0  0  0
 22 46  1  0  0  0
 22 47  1  0  0  0
 23 48  1  0  0  0
 24 25  3  0  0  0
 25 49  1  0  0  0
 32 50  1  0  0  0
 33 51  1  0  0  0
 52 60  2  0  0  0
 53 56  1  0  0  0
 53 59  1  0  0  0
 53 61  1  0  0  0
 53 62  1  0  0  0
 54 57  1  0  0  0
 54 59  1  0  0  0
 54 60  1  0  0  0
 55 57  1  0  0  0
 55 58  1  0  0  0
 55 63  1  0  0  0
 55 64  1  0  0  0
 56 60  1  0  0  0
 56 65  1  0  0  0
 56 66  1  0  0  0
 57 67  1  0  0  0
 57 68  1  0  0  0
 58 69  1  0  0  0
 58 70  1  0  0  0
 59 71  1  0  0  0
 59 72  1  0  0  0
M  CHG  1  53   1
M  END
> <s_m_entry_id>
205

> <s_m_entry_name>
000000047.1

> <s_m_Source_Path>
/Users/zaksoul/Documents/3r_UNI/2nd_SEMESTER/BSC/FRAG_RECON/RESULTS/2

> <s_m_Source_File>
000000047.mol2

> <i_m_Source_File_Index>
1

$$$$
No_0_48
                    3D
 Schrodinger Suite 2022-4.
 72 78  0  0  1  0            999 V2000
   -5.1810    3.6090  -21.8530 C   0  0  0  0  0  0
   -5.4520    3.8050  -23.1860 C   0  0  0  0  0  0
   -3.9420    3.3510  -21.5190 C   0  0  0  0  0  0
   -3.0590    3.4860  -23.6870 C   0  0  0  0  0  0
   -2.8930    3.2340  -22.2690 C   0  0  0  0  0  0
   -4.4090    3.7540  -24.2010 C   0  0  0  0  0  0
   -3.6630    3.7850  -26.4030 C   0  0  0  0  0  0
    6.0870    3.0010  -21.1820 C   0  0  0  0  0  0
    5.9380    3.1560  -23.7310 C   0  0  0  0  0  0
   -4.6650    3.8890  -25.5350 C   0  0  0  0  0  0
    2.1540    3.7130  -23.7290 C   0  0  0  0  0  0
    1.3370    4.8230  -23.4210 C   0  0  0  0  0  0
    3.1410    6.0110  -22.7430 C   0  0  0  0  0  0
    3.5570    3.8990  -23.4210 C   0  0  0  0  0  0
    1.6030    2.6010  -24.3930 C   0  0  0  0  0  0
   -0.5220    3.4190  -24.2700 C   0  0  0  0  0  0
    0.0100    4.6350  -23.6670 C   0  0  0  0  0  0
   -1.9770    3.4300  -24.6180 C   0  0  0  0  0  0
    4.1570    1.3990  -23.1440 C   0  0  0  0  0  0
    5.0950    1.0350  -22.0030 C   0  0  2  0  0  0
    6.6890    2.5740  -22.5390 C   0  0  2  0  0  0
    5.0840    2.0310  -20.8310 C   0  0  0  0  0  0
   -2.3080    3.5970  -26.0440 C   0  0  0  0  0  0
   -1.5470    2.8150  -21.6780 C   0  0  0  0  0  0
   -0.5150    2.4620  -21.1780 C   0  0  0  0  0  0
   -0.8280    5.6800  -23.3140 F   0  0  0  0  0  0
   -3.7260    3.1020  -20.1390 F   0  0  0  0  0  0
    1.8200    5.9780  -22.8860 N   0  0  0  0  0  0
    4.0350    5.0470  -22.9720 N   0  0  0  0  0  0
    0.2950    2.5160  -24.6930 N   0  0  0  0  0  0
    4.4710    2.8500  -23.6070 N   0  0  0  0  0  0
    6.5000    1.1010  -22.4910 N   0  0  1  0  0  0
   -3.8410    3.8060  -27.7920 O   0  0  0  0  0  0
   -5.9796    3.6712  -21.1226 H   0  0  0  0  0  0
   -6.4675    4.0037  -23.5091 H   0  0  0  0  0  0
    5.6179    3.9906  -21.2849 H   0  0  0  0  0  0
    6.8763    3.0060  -20.4159 H   0  0  0  0  0  0
    6.3275    2.7150  -24.6604 H   0  0  0  0  0  0
    6.0833    4.2460  -23.7593 H   0  0  0  0  0  0
   -5.6765    4.0776  -25.8762 H   0  0  0  0  0  0
    2.2385    1.7718  -24.6821 H   0  0  0  0  0  0
    3.1157    1.3435  -22.7939 H   0  0  0  0  0  0
    4.3144    0.7047  -23.9826 H   0  0  0  0  0  0
    4.8700    0.0218  -21.6387 H   0  0  0  0  0  0
    7.7578    2.8293  -22.5885 H   0  0  0  0  0  0
    4.1018    2.5236  -20.7805 H   0  0  0  0  0  0
    5.3877    1.5123  -19.9097 H   0  0  0  0  0  0
   -1.5411    3.5789  -26.8099 H   0  0  0  0  0  0
    0.3934    2.1519  -20.7378 H   0  0  0  0  0  0
    7.1492    0.5983  -21.7894 H   0  0  0  0  0  0
   -2.9984    3.7179  -28.2217 H   0  0  0  0  0  0
    7.2800    9.2130  -23.0040 O   0  0  0  0  0  0
    8.8800    6.8800  -20.9440 N   0  3  0  0  0  0
    6.9910    8.1010  -21.0260 N   0  0  0  0  0  0
    4.7560    7.1610  -21.1590 C   0  0  0  0  0  0
    9.0780    7.9240  -22.0070 C   0  0  0  0  0  0
    5.5690    8.4410  -20.8840 C   0  0  0  0  0  0
    3.7060    7.3460  -22.2710 C   0  0  0  0  0  0
    7.7350    7.2840  -20.0610 C   0  0  0  0  0  0
    7.6900    8.5050  -22.0950 C   0  0  0  0  0  0
    9.7190    6.8010  -20.3910 H   0  0  0  0  0  0
    8.6730    5.9941  -21.3780 H   0  0  0  0  0  0
    4.2549    6.8400  -20.2339 H   0  0  0  0  0  0
    5.4400    6.3450  -21.4350 H   0  0  0  0  0  0
    9.3220    7.4280  -22.9580 H   0  0  0  0  0  0
    9.7679    8.6939  -21.6311 H   0  0  0  0  0  0
    5.3009    9.2112  -21.6222 H   0  0  0  0  0  0
    5.3750    8.7840  -19.8570 H   0  0  0  0  0  0
    4.1639    7.8719  -23.1218 H   0  0  0  0  0  0
    2.8869    7.9790  -21.8990 H   0  0  0  0  0  0
    8.1148    7.9357  -19.2604 H   0  0  0  0  0  0
    7.1411    6.3911  -19.8160 H   0  0  0  0  0  0
  1  2  2  0  0  0
  1  3  1  0  0  0
  1 34  1  0  0  0
  2  6  1  0  0  0
  2 35  1  0  0  0
  3  5  2  0  0  0
  3 27  1  0  0  0
  4  5  1  0  0  0
  4  6  2  0  0  0
  4 18  1  0  0  0
  5 24  1  0  0  0
  6 10  1  0  0  0
  7 10  2  0  0  0
  7 23  1  0  0  0
  7 33  1  0  0  0
  8 21  1  0  0  0
  8 22  1  0  0  0
  8 36  1  0  0  0
  8 37  1  0  0  0
  9 21  1  0  0  0
  9 31  1  0  0  0
  9 38  1  0  0  0
  9 39  1  0  0  0
 10 40  1  0  0  0
 11 12  1  0  0  0
 11 14  2  0  0  0
 11 15  1  0  0  0
 12 17  1  0  0  0
 12 28  2  0  0  0
 13 28  1  0  0  0
 13 29  2  0  0  0
 13 58  1  0  0  0
 14 29  1  0  0  0
 14 31  1  0  0  0
 15 30  2  0  0  0
 15 41  1  0  0  0
 16 17  2  0  0  0
 16 18  1  0  0  0
 16 30  1  0  0  0
 17 26  1  0  0  0
 18 23  2  0  0  0
 19 20  1  0  0  0
 19 31  1  0  0  0
 19 42  1  0  0  0
 19 43  1  0  0  0
 20 22  1  0  0  0
 20 32  1  0  0  0
 20 44  1  0  0  0
 21 32  1  0  0  0
 21 45  1  0  0  0
 22 46  1  0  0  0
 22 47  1  0  0  0
 23 48  1  0  0  0
 24 25  3  0  0  0
 25 49  1  0  0  0
 32 50  1  0  0  0
 33 51  1  0  0  0
 52 60  2  0  0  0
 53 56  1  0  0  0
 53 59  1  0  0  0
 53 61  1  0  0  0
 53 62  1  0  0  0
 54 57  1  0  0  0
 54 59  1  0  0  0
 54 60  1  0  0  0
 55 57  1  0  0  0
 55 58  1  0  0  0
 55 63  1  0  0  0
 55 64  1  0  0  0
 56 60  1  0  0  0
 56 65  1  0  0  0
 56 66  1  0  0  0
 57 67  1  0  0  0
 57 68  1  0  0  0
 58 69  1  0  0  0
 58 70  1  0  0  0
 59 71  1  0  0  0
 59 72  1  0  0  0
M  CHG  1  53   1
M  END
> <s_m_entry_id>
206

> <s_m_entry_name>
000000048.1

> <s_m_Source_Path>
/Users/zaksoul/Documents/3r_UNI/2nd_SEMESTER/BSC/FRAG_RECON/RESULTS/2

> <s_m_Source_File>
000000048.mol2

> <i_m_Source_File_Index>
1

$$$$
No_0_49
                    3D
 Schrodinger Suite 2022-4.
 72 78  0  0  1  0            999 V2000
   -5.1810    3.6090  -21.8530 C   0  0  0  0  0  0
   -5.4520    3.8050  -23.1860 C   0  0  0  0  0  0
   -3.9420    3.3510  -21.5190 C   0  0  0  0  0  0
   -3.0590    3.4860  -23.6870 C   0  0  0  0  0  0
   -2.8930    3.2340  -22.2690 C   0  0  0  0  0  0
   -4.4090    3.7540  -24.2010 C   0  0  0  0  0  0
   -3.6630    3.7850  -26.4030 C   0  0  0  0  0  0
    6.0870    3.0010  -21.1820 C   0  0  0  0  0  0
    5.9380    3.1560  -23.7310 C   0  0  0  0  0  0
   -4.6650    3.8890  -25.5350 C   0  0  0  0  0  0
    2.1540    3.7130  -23.7290 C   0  0  0  0  0  0
    1.3370    4.8230  -23.4210 C   0  0  0  0  0  0
    3.1410    6.0110  -22.7430 C   0  0  0  0  0  0
    3.5570    3.8990  -23.4210 C   0  0  0  0  0  0
    1.6030    2.6010  -24.3930 C   0  0  0  0  0  0
   -0.5220    3.4190  -24.2700 C   0  0  0  0  0  0
    0.0100    4.6350  -23.6670 C   0  0  0  0  0  0
   -1.9770    3.4300  -24.6180 C   0  0  0  0  0  0
    4.1570    1.3990  -23.1440 C   0  0  0  0  0  0
    5.0950    1.0350  -22.0030 C   0  0  2  0  0  0
    6.6890    2.5740  -22.5390 C   0  0  2  0  0  0
    5.0840    2.0310  -20.8310 C   0  0  0  0  0  0
   -2.3080    3.5970  -26.0440 C   0  0  0  0  0  0
   -1.5470    2.8150  -21.6780 C   0  0  0  0  0  0
   -0.5150    2.4620  -21.1780 C   0  0  0  0  0  0
   -0.8280    5.6800  -23.3140 F   0  0  0  0  0  0
   -3.7260    3.1020  -20.1390 F   0  0  0  0  0  0
    1.8200    5.9780  -22.8860 N   0  0  0  0  0  0
    4.0350    5.0470  -22.9720 N   0  0  0  0  0  0
    0.2950    2.5160  -24.6930 N   0  0  0  0  0  0
    4.4710    2.8500  -23.6070 N   0  0  0  0  0  0
    6.5000    1.1010  -22.4910 N   0  0  1  0  0  0
   -3.8410    3.8060  -27.7920 O   0  0  0  0  0  0
   -5.9796    3.6712  -21.1226 H   0  0  0  0  0  0
   -6.4675    4.0037  -23.5091 H   0  0  0  0  0  0
    5.6179    3.9906  -21.2849 H   0  0  0  0  0  0
    6.8763    3.0060  -20.4159 H   0  0  0  0  0  0
    6.3275    2.7150  -24.6604 H   0  0  0  0  0  0
    6.0833    4.2460  -23.7593 H   0  0  0  0  0  0
   -5.6765    4.0776  -25.8762 H   0  0  0  0  0  0
    2.2385    1.7718  -24.6821 H   0  0  0  0  0  0
    3.1157    1.3435  -22.7939 H   0  0  0  0  0  0
    4.3144    0.7047  -23.9826 H   0  0  0  0  0  0
    4.8700    0.0218  -21.6387 H   0  0  0  0  0  0
    7.7578    2.8293  -22.5885 H   0  0  0  0  0  0
    4.1018    2.5236  -20.7805 H   0  0  0  0  0  0
    5.3877    1.5123  -19.9097 H   0  0  0  0  0  0
   -1.5411    3.5789  -26.8099 H   0  0  0  0  0  0
    0.3934    2.1519  -20.7378 H   0  0  0  0  0  0
    7.1492    0.5983  -21.7894 H   0  0  0  0  0  0
   -2.9984    3.7179  -28.2217 H   0  0  0  0  0  0
    6.8770    9.5870  -23.5810 O   0  0  0  0  0  0
    9.0670    7.2400  -22.1870 N   0  3  0  0  0  0
    7.1290    8.2870  -21.7160 N   0  0  0  0  0  0
    4.9940    7.1620  -21.4470 C   0  0  0  0  0  0
    8.9410    8.3860  -23.1510 C   0  0  0  0  0  0
    5.7590    8.4820  -21.2260 C   0  0  0  0  0  0
    3.7060    7.3460  -22.2710 C   0  0  0  0  0  0
    8.1300    7.4610  -21.0330 C   0  0  0  0  0  0
    7.5330    8.8440  -22.8660 C   0  0  0  0  0  0
   10.0142    7.1900  -21.8459 H   0  0  0  0  0  0
    8.8260    6.3799  -22.6541 H   0  0  0  0  0  0
    4.7440    6.7180  -20.4721 H   0  0  0  0  0  0
    5.6512    6.4388  -21.9521 H   0  0  0  0  0  0
    8.9930    7.9989  -24.1793 H   0  0  0  0  0  0
    9.6440    9.1800  -22.8590 H   0  0  0  0  0  0
    5.2752    9.2847  -21.8018 H   0  0  0  0  0  0
    5.7840    8.7161  -20.1515 H   0  0  0  0  0  0
    3.9179    7.9827  -23.1426 H   0  0  0  0  0  0
    2.9528    7.8671  -21.6618 H   0  0  0  0  0  0
    8.6390    8.0720  -20.2730 H   0  0  0  0  0  0
    7.6723    6.4995  -20.7572 H   0  0  0  0  0  0
  1  2  2  0  0  0
  1  3  1  0  0  0
  1 34  1  0  0  0
  2  6  1  0  0  0
  2 35  1  0  0  0
  3  5  2  0  0  0
  3 27  1  0  0  0
  4  5  1  0  0  0
  4  6  2  0  0  0
  4 18  1  0  0  0
  5 24  1  0  0  0
  6 10  1  0  0  0
  7 10  2  0  0  0
  7 23  1  0  0  0
  7 33  1  0  0  0
  8 21  1  0  0  0
  8 22  1  0  0  0
  8 36  1  0  0  0
  8 37  1  0  0  0
  9 21  1  0  0  0
  9 31  1  0  0  0
  9 38  1  0  0  0
  9 39  1  0  0  0
 10 40  1  0  0  0
 11 12  1  0  0  0
 11 14  2  0  0  0
 11 15  1  0  0  0
 12 17  1  0  0  0
 12 28  2  0  0  0
 13 28  1  0  0  0
 13 29  2  0  0  0
 13 58  1  0  0  0
 14 29  1  0  0  0
 14 31  1  0  0  0
 15 30  2  0  0  0
 15 41  1  0  0  0
 16 17  2  0  0  0
 16 18  1  0  0  0
 16 30  1  0  0  0
 17 26  1  0  0  0
 18 23  2  0  0  0
 19 20  1  0  0  0
 19 31  1  0  0  0
 19 42  1  0  0  0
 19 43  1  0  0  0
 20 22  1  0  0  0
 20 32  1  0  0  0
 20 44  1  0  0  0
 21 32  1  0  0  0
 21 45  1  0  0  0
 22 46  1  0  0  0
 22 47  1  0  0  0
 23 48  1  0  0  0
 24 25  3  0  0  0
 25 49  1  0  0  0
 32 50  1  0  0  0
 33 51  1  0  0  0
 52 60  2  0  0  0
 53 56  1  0  0  0
 53 59  1  0  0  0
 53 61  1  0  0  0
 53 62  1  0  0  0
 54 57  1  0  0  0
 54 59  1  0  0  0
 54 60  1  0  0  0
 55 57  1  0  0  0
 55 58  1  0  0  0
 55 63  1  0  0  0
 55 64  1  0  0  0
 56 60  1  0  0  0
 56 65  1  0  0  0
 56 66  1  0  0  0
 57 67  1  0  0  0
 57 68  1  0  0  0
 58 69  1  0  0  0
 58 70  1  0  0  0
 59 71  1  0  0  0
 59 72  1  0  0  0
M  CHG  1  53   1
M  END
> <s_m_entry_id>
207

> <s_m_entry_name>
000000049.1

> <s_m_Source_Path>
/Users/zaksoul/Documents/3r_UNI/2nd_SEMESTER/BSC/FRAG_RECON/RESULTS/2

> <s_m_Source_File>
000000049.mol2

> <i_m_Source_File_Index>
1

$$$$
No_0_50
                    3D
 Schrodinger Suite 2022-4.
 75 80  0  0  1  0            999 V2000
   -5.1210    3.7200  -21.8380 C   0  0  0  0  0  0
   -5.4150    3.8740  -23.1720 C   0  0  0  0  0  0
   -3.8790    3.4600  -21.5170 C   0  0  0  0  0  0
   -3.0350    3.5110  -23.7050 C   0  0  0  0  0  0
   -2.8450    3.3060  -22.2810 C   0  0  0  0  0  0
   -4.3900    3.7770  -24.2030 C   0  0  0  0  0  0
   -3.6840    3.7250  -26.4170 C   0  0  0  0  0  0
    6.1500    3.0110  -21.3490 C   0  0  0  0  0  0
    5.9560    3.0810  -23.8980 C   0  0  0  0  0  0
   -4.6700    3.8690  -25.5360 C   0  0  0  0  0  0
    2.1800    3.6800  -23.8470 C   0  0  0  0  0  0
    1.3800    4.8080  -23.5630 C   0  0  0  0  0  0
    3.2080    5.9980  -22.9580 C   0  0  0  0  0  0
    3.5890    3.8610  -23.5710 C   0  0  0  0  0  0
    1.6040    2.5520  -24.4630 C   0  0  0  0  0  0
   -0.5100    3.3970  -24.3300 C   0  0  0  0  0  0
    0.0460    4.6270  -23.7780 C   0  0  0  0  0  0
   -1.9700    3.4120  -24.6520 C   0  0  0  0  0  0
    4.1680    1.3640  -23.2200 C   0  0  0  0  0  0
    5.1230    1.0290  -22.0840 C   0  0  2  0  0  0
    6.7230    2.5320  -22.7000 C   0  0  2  0  0  0
    5.1440    2.0640  -20.9470 C   0  0  0  0  0  0
   -2.3250    3.5350  -26.0760 C   0  0  0  0  0  0
   -1.4930    2.8920  -21.7010 C   0  0  0  0  0  0
   -0.4560    2.5450  -21.2080 C   0  0  0  0  0  0
   -0.7740    5.6930  -23.4460 F   0  0  0  0  0  0
   -3.6400    3.2550  -20.1330 F   0  0  0  0  0  0
    1.8840    5.9750  -23.0760 N   0  0  0  0  0  0
    4.0870    5.0170  -23.1700 N   0  0  0  0  0  0
    0.2900    2.4710  -24.7370 N   0  0  0  0  0  0
    4.4890    2.7950  -23.7380 N   0  0  0  0  0  0
    6.5190    1.0630  -22.5990 N   0  0  1  0  0  0
   -3.8880    3.7020  -27.8030 O   0  0  0  0  0  0
   -5.9053    3.8153  -21.0958 H   0  0  0  0  0  0
   -6.4341    4.0728  -23.4833 H   0  0  0  0  0  0
    5.6895    4.0017  -21.4773 H   0  0  0  0  0  0
    6.9535    3.0322  -20.5980 H   0  0  0  0  0  0
    6.3244    2.6046  -24.8185 H   0  0  0  0  0  0
    6.1124    4.1677  -23.9656 H   0  0  0  0  0  0
   -5.6853    4.0578  -25.8654 H   0  0  0  0  0  0
    2.2251    1.7062  -24.7349 H   0  0  0  0  0  0
    3.1327    1.3317  -22.8497 H   0  0  0  0  0  0
    4.3023    0.6399  -24.0371 H   0  0  0  0  0  0
    4.8940    0.0312  -21.6815 H   0  0  0  0  0  0
    7.7936    2.7721  -22.7787 H   0  0  0  0  0  0
    4.1680    2.5687  -20.8955 H   0  0  0  0  0  0
    5.4586    1.5730  -20.0143 H   0  0  0  0  0  0
   -1.5736    3.4828  -26.8555 H   0  0  0  0  0  0
    0.4568    2.2391  -20.7741 H   0  0  0  0  0  0
    7.1757    0.5764  -21.8931 H   0  0  0  0  0  0
   -3.0543    3.5901  -28.2446 H   0  0  0  0  0  0
    8.4090    8.5020  -21.5970 N   0  3  0  0  0  0
    6.1090    8.9320  -21.3070 N   0  0  0  0  0  0
    7.2530    7.5210  -19.7920 N   0  0  0  0  0  0
    4.1860    7.3930  -21.0510 C   0  0  0  0  0  0
    3.7960    7.3420  -22.5410 C   0  0  0  0  0  0
    4.8110    8.7460  -20.6680 C   0  0  0  0  0  0
    7.2530    8.3160  -20.8950 C   0  0  0  0  0  0
    9.6980    8.0040  -21.1190 C   0  0  0  0  0  0
    8.4330    9.2100  -22.8770 C   0  0  0  0  0  0
    6.1310    9.5719  -22.1138 H   0  0  0  0  0  0
    6.3827    7.3789  -19.2598 H   0  0  0  0  0  0
    8.1232    7.0609  -19.4889 H   0  0  0  0  0  0
    4.8998    6.5852  -20.8321 H   0  0  0  0  0  0
    3.2939    7.2140  -20.4329 H   0  0  0  0  0  0
    4.6798    7.5620  -23.1579 H   0  0  0  0  0  0
    3.0700    8.1400  -22.7560 H   0  0  0  0  0  0
    4.1349    9.5601  -20.9681 H   0  0  0  0  0  0
    4.9300    8.7980  -19.5757 H   0  0  0  0  0  0
   10.4841    8.2670  -21.8421 H   0  0  0  0  0  0
    9.9281    8.4593  -20.1444 H   0  0  0  0  0  0
    9.6510    6.9103  -21.0110 H   0  0  0  0  0  0
    9.4634    9.2400  -23.2608 H   0  0  0  0  0  0
    7.7892    8.6861  -23.5988 H   0  0  0  0  0  0
    8.0641   10.2368  -22.7370 H   0  0  0  0  0  0
  1  2  2  0  0  0
  1  3  1  0  0  0
  1 34  1  0  0  0
  2  6  1  0  0  0
  2 35  1  0  0  0
  3  5  2  0  0  0
  3 27  1  0  0  0
  4  5  1  0  0  0
  4  6  2  0  0  0
  4 18  1  0  0  0
  5 24  1  0  0  0
  6 10  1  0  0  0
  7 10  2  0  0  0
  7 23  1  0  0  0
  7 33  1  0  0  0
  8 21  1  0  0  0
  8 22  1  0  0  0
  8 36  1  0  0  0
  8 37  1  0  0  0
  9 21  1  0  0  0
  9 31  1  0  0  0
  9 38  1  0  0  0
  9 39  1  0  0  0
 10 40  1  0  0  0
 11 12  1  0  0  0
 11 14  2  0  0  0
 11 15  1  0  0  0
 12 17  1  0  0  0
 12 28  2  0  0  0
 13 28  1  0  0  0
 13 29  2  0  0  0
 13 56  1  0  0  0
 14 29  1  0  0  0
 14 31  1  0  0  0
 15 30  2  0  0  0
 15 41  1  0  0  0
 16 17  2  0  0  0
 16 18  1  0  0  0
 16 30  1  0  0  0
 17 26  1  0  0  0
 18 23  2  0  0  0
 19 20  1  0  0  0
 19 31  1  0  0  0
 19 42  1  0  0  0
 19 43  1  0  0  0
 20 22  1  0  0  0
 20 32  1  0  0  0
 20 44  1  0  0  0
 21 32  1  0  0  0
 21 45  1  0  0  0
 22 46  1  0  0  0
 22 47  1  0  0  0
 23 48  1  0  0  0
 24 25  3  0  0  0
 25 49  1  0  0  0
 32 50  1  0  0  0
 33 51  1  0  0  0
 52 58  2  0  0  0
 52 59  1  0  0  0
 52 60  1  0  0  0
 53 57  1  0  0  0
 53 58  1  0  0  0
 53 61  1  0  0  0
 54 58  1  0  0  0
 54 62  1  0  0  0
 54 63  1  0  0  0
 55 56  1  0  0  0
 55 57  1  0  0  0
 55 64  1  0  0  0
 55 65  1  0  0  0
 56 66  1  0  0  0
 56 67  1  0  0  0
 57 68  1  0  0  0
 57 69  1  0  0  0
 59 70  1  0  0  0
 59 71  1  0  0  0
 59 72  1  0  0  0
 60 73  1  0  0  0
 60 74  1  0  0  0
 60 75  1  0  0  0
M  CHG  1  52   1
M  END
> <s_m_entry_id>
208

> <s_m_entry_name>
000000050.1

> <s_m_Source_Path>
/Users/zaksoul/Documents/3r_UNI/2nd_SEMESTER/BSC/FRAG_RECON/RESULTS/2

> <s_m_Source_File>
000000050.mol2

> <i_m_Source_File_Index>
1

$$$$
No_0_51
                    3D
 Schrodinger Suite 2022-4.
 75 80  0  0  1  0            999 V2000
   -5.3390    3.8460  -22.2120 C   0  0  0  0  0  0
   -5.5840    3.9820  -23.5580 C   0  0  0  0  0  0
   -4.1070    3.6060  -21.8420 C   0  0  0  0  0  0
   -3.1810    3.6470  -23.9960 C   0  0  0  0  0  0
   -3.0430    3.4580  -22.5650 C   0  0  0  0  0  0
   -4.5200    3.8900  -24.5490 C   0  0  0  0  0  0
   -3.7300    3.8260  -26.7340 C   0  0  0  0  0  0
    5.9140    3.2950  -21.2900 C   0  0  0  0  0  0
    5.8160    3.3380  -23.8450 C   0  0  0  0  0  0
   -4.7500    3.9650  -25.8920 C   0  0  0  0  0  0
    2.0320    3.8860  -23.9440 C   0  0  0  0  0  0
    1.2080    5.0050  -23.7010 C   0  0  0  0  0  0
    2.9960    6.2260  -23.0400 C   0  0  0  0  0  0
    3.4280    4.0880  -23.6160 C   0  0  0  0  0  0
    1.4960    2.7440  -24.5690 C   0  0  0  0  0  0
   -0.6330    3.5610  -24.5240 C   0  0  0  0  0  0
   -0.1140    4.8040  -23.9650 C   0  0  0  0  0  0
   -2.0800    3.5540  -24.9020 C   0  0  0  0  0  0
    4.0260    1.6030  -23.2170 C   0  0  0  0  0  0
    4.9420    1.2920  -22.0430 C   0  0  2  0  0  0
    6.5440    2.8110  -22.6140 C   0  0  2  0  0  0
    4.9060    2.3380  -20.9160 C   0  0  0  0  0  0
   -2.3820    3.6580  -26.3400 C   0  0  0  0  0  0
   -1.7090    3.0680  -21.9300 C   0  0  0  0  0  0
   -0.6860    2.7400  -21.3940 C   0  0  0  0  0  0
   -0.9610    5.8620  -23.6750 F   0  0  0  0  0  0
   -3.9180    3.4170  -20.4480 F   0  0  0  0  0  0
    1.6770    6.1840  -23.2070 N   0  0  0  0  0  0
    3.8950    5.2550  -23.2080 N   0  0  0  0  0  0
    0.1940    2.6430  -24.8920 N   0  0  0  0  0  0
    4.3480    3.0340  -23.7380 N   0  0  0  0  0  0
    6.3560    1.3400  -22.5060 N   0  0  1  0  0  0
   -3.8810    3.7860  -28.1260 O   0  0  0  0  0  0
   -6.1523    3.9374  -21.5011 H   0  0  0  0  0  0
   -6.5930    4.1647  -23.9094 H   0  0  0  0  0  0
    5.4457    4.2781  -21.4454 H   0  0  0  0  0  0
    6.6883    3.3354  -20.5097 H   0  0  0  0  0  0
    6.2247    2.8576  -24.7462 H   0  0  0  0  0  0
    5.9603    4.4261  -23.9177 H   0  0  0  0  0  0
   -5.7546    4.1366  -26.2613 H   0  0  0  0  0  0
    2.1381    1.9042  -24.8088 H   0  0  0  0  0  0
    2.9776    1.5606  -22.8867 H   0  0  0  0  0  0
    4.2016    0.8734  -24.0213 H   0  0  0  0  0  0
    4.7109    0.2951  -21.6394 H   0  0  0  0  0  0
    7.6135    3.0653  -22.6533 H   0  0  0  0  0  0
    3.9224    2.8303  -20.9079 H   0  0  0  0  0  0
    5.1917    1.8605  -19.9671 H   0  0  0  0  0  0
   -1.6009    3.6078  -27.0900 H   0  0  0  0  0  0
    0.2139    2.4517  -20.9225 H   0  0  0  0  0  0
    6.9915    0.8703  -21.7699 H   0  0  0  0  0  0
   -3.0293    3.6811  -28.5336 H   0  0  0  0  0  0
    8.1650    9.0270  -22.2650 N   0  3  0  0  0  0
    5.9110    9.2630  -21.6150 N   0  0  0  0  0  0
    7.3580    7.8500  -20.3880 N   0  0  0  0  0  0
    4.1530    7.5680  -21.1970 C   0  0  0  0  0  0
    3.5490    7.5820  -22.6150 C   0  0  0  0  0  0
    4.7380    8.9380  -20.8100 C   0  0  0  0  0  0
    7.1410    8.7100  -21.4180 C   0  0  0  0  0  0
    9.5410    8.5990  -22.0150 C   0  0  0  0  0  0
    7.9510    9.8130  -23.4800 C   0  0  0  0  0  0
    5.7700    9.9518  -22.3677 H   0  0  0  0  0  0
    6.5883    7.6088  -19.7474 H   0  0  0  0  0  0
    8.2920    7.4390  -20.2480 H   0  0  0  0  0  0
    4.9437    6.8052  -21.1430 H   0  0  0  0  0  0
    3.3770    7.2840  -20.4710 H   0  0  0  0  0  0
    4.3150    7.9060  -23.3350 H   0  0  0  0  0  0
    2.7483    8.3347  -22.6640 H   0  0  0  0  0  0
    3.9725    9.7155  -20.9499 H   0  0  0  0  0  0
    5.0151    8.9310  -19.7455 H   0  0  0  0  0  0
   10.1916    8.9658  -22.8225 H   0  0  0  0  0  0
    9.8842    9.0083  -21.0534 H   0  0  0  0  0  0
    9.5830    7.5003  -21.9820 H   0  0  0  0  0  0
    8.9090    9.9460  -24.0040 H   0  0  0  0  0  0
    7.2426    9.2877  -24.1374 H   0  0  0  0  0  0
    7.5410   10.7979  -23.2120 H   0  0  0  0  0  0
  1  2  2  0  0  0
  1  3  1  0  0  0
  1 34  1  0  0  0
  2  6  1  0  0  0
  2 35  1  0  0  0
  3  5  2  0  0  0
  3 27  1  0  0  0
  4  5  1  0  0  0
  4  6  2  0  0  0
  4 18  1  0  0  0
  5 24  1  0  0  0
  6 10  1  0  0  0
  7 10  2  0  0  0
  7 23  1  0  0  0
  7 33  1  0  0  0
  8 21  1  0  0  0
  8 22  1  0  0  0
  8 36  1  0  0  0
  8 37  1  0  0  0
  9 21  1  0  0  0
  9 31  1  0  0  0
  9 38  1  0  0  0
  9 39  1  0  0  0
 10 40  1  0  0  0
 11 12  1  0  0  0
 11 14  2  0  0  0
 11 15  1  0  0  0
 12 17  1  0  0  0
 12 28  2  0  0  0
 13 28  1  0  0  0
 13 29  2  0  0  0
 13 56  1  0  0  0
 14 29  1  0  0  0
 14 31  1  0  0  0
 15 30  2  0  0  0
 15 41  1  0  0  0
 16 17  2  0  0  0
 16 18  1  0  0  0
 16 30  1  0  0  0
 17 26  1  0  0  0
 18 23  2  0  0  0
 19 20  1  0  0  0
 19 31  1  0  0  0
 19 42  1  0  0  0
 19 43  1  0  0  0
 20 22  1  0  0  0
 20 32  1  0  0  0
 20 44  1  0  0  0
 21 32  1  0  0  0
 21 45  1  0  0  0
 22 46  1  0  0  0
 22 47  1  0  0  0
 23 48  1  0  0  0
 24 25  3  0  0  0
 25 49  1  0  0  0
 32 50  1  0  0  0
 33 51  1  0  0  0
 52 58  2  0  0  0
 52 59  1  0  0  0
 52 60  1  0  0  0
 53 57  1  0  0  0
 53 58  1  0  0  0
 53 61  1  0  0  0
 54 58  1  0  0  0
 54 62  1  0  0  0
 54 63  1  0  0  0
 55 56  1  0  0  0
 55 57  1  0  0  0
 55 64  1  0  0  0
 55 65  1  0  0  0
 56 66  1  0  0  0
 56 67  1  0  0  0
 57 68  1  0  0  0
 57 69  1  0  0  0
 59 70  1  0  0  0
 59 71  1  0  0  0
 59 72  1  0  0  0
 60 73  1  0  0  0
 60 74  1  0  0  0
 60 75  1  0  0  0
M  CHG  1  52   1
M  END
> <s_m_entry_id>
209

> <s_m_entry_name>
000000051.1

> <s_m_Source_Path>
/Users/zaksoul/Documents/3r_UNI/2nd_SEMESTER/BSC/FRAG_RECON/RESULTS/2

> <s_m_Source_File>
000000051.mol2

> <i_m_Source_File_Index>
1

$$$$
No_0_52
                    3D
 Schrodinger Suite 2022-4.
 75 80  0  0  1  0            999 V2000
   -5.3000    3.4960  -21.8930 C   0  0  0  0  0  0
   -5.5680    3.6570  -23.2320 C   0  0  0  0  0  0
   -4.0580    3.2690  -21.5480 C   0  0  0  0  0  0
   -3.1670    3.3730  -23.7150 C   0  0  0  0  0  0
   -3.0030    3.1560  -22.2900 C   0  0  0  0  0  0
   -4.5190    3.6050  -24.2410 C   0  0  0  0  0  0
   -3.7630    3.6020  -26.4390 C   0  0  0  0  0  0
    5.9740    3.1180  -21.1590 C   0  0  0  0  0  0
    5.8350    3.2140  -23.7100 C   0  0  0  0  0  0
   -4.7710    3.7050  -25.5780 C   0  0  0  0  0  0
    2.0410    3.6990  -23.7380 C   0  0  0  0  0  0
    1.2020    4.7990  -23.4580 C   0  0  0  0  0  0
    2.9800    6.0360  -22.7980 C   0  0  0  0  0  0
    3.4380    3.9190  -23.4280 C   0  0  0  0  0  0
    1.5140    2.5620  -24.3800 C   0  0  0  0  0  0
   -0.6270    3.3420  -24.2840 C   0  0  0  0  0  0
   -0.1200    4.5810  -23.7060 C   0  0  0  0  0  0
   -2.0790    3.3180  -24.6390 C   0  0  0  0  0  0
    4.0850    1.4360  -23.0930 C   0  0  0  0  0  0
    5.0240    1.1160  -21.9410 C   0  0  2  0  0  0
    6.5910    2.6730  -22.5030 C   0  0  2  0  0  0
    4.9890    2.1360  -20.7910 C   0  0  0  0  0  0
   -2.4070    3.4480  -26.0690 C   0  0  0  0  0  0
   -1.6530    2.7750  -21.6840 C   0  0  0  0  0  0
   -0.6170    2.4530  -21.1730 C   0  0  0  0  0  0
   -0.9790    5.6180  -23.3790 F   0  0  0  0  0  0
   -3.8440    3.0530  -20.1610 F   0  0  0  0  0  0
    1.6600    5.9750  -22.9460 N   0  0  0  0  0  0
    3.8920    5.0840  -23.0020 N   0  0  0  0  0  0
    0.2090    2.4460  -24.6840 N   0  0  0  0  0  0
    4.3740    2.8830  -23.5870 N   0  0  0  0  0  0
    6.4290    1.1980  -22.4240 N   0  0  1  0  0  0
   -3.9350    3.5900  -27.8280 O   0  0  0  0  0  0
   -6.1029    3.5582  -21.1674 H   0  0  0  0  0  0
   -6.5856    3.8296  -23.5632 H   0  0  0  0  0  0
    5.4873    4.0964  -21.2852 H   0  0  0  0  0  0
    6.7599    3.1543  -20.3902 H   0  0  0  0  0  0
    6.2366    2.7609  -24.6283 H   0  0  0  0  0  0
    5.9591    4.3058  -23.7615 H   0  0  0  0  0  0
   -5.7843    3.8675  -25.9271 H   0  0  0  0  0  0
    2.1665    1.7389  -24.6480 H   0  0  0  0  0  0
    3.0430    1.3684  -22.7470 H   0  0  0  0  0  0
    4.2587    0.7271  -23.9160 H   0  0  0  0  0  0
    4.8163    0.1068  -21.5559 H   0  0  0  0  0  0
    7.6550    2.9473  -22.5534 H   0  0  0  0  0  0
    3.9975    2.6111  -20.7557 H   0  0  0  0  0  0
    5.2967    1.6436  -19.8567 H   0  0  0  0  0  0
   -1.6366    3.4279  -26.8314 H   0  0  0  0  0  0
    0.2947    2.1691  -20.7221 H   0  0  0  0  0  0
    7.0841    0.7225  -21.7091 H   0  0  0  0  0  0
   -3.0890    3.5089  -28.2525 H   0  0  0  0  0  0
    8.0430    9.1150  -22.5910 N   0  3  0  0  0  0
    5.9100    9.1500  -21.5880 N   0  0  0  0  0  0
    7.6080    7.7530  -20.7170 N   0  0  0  0  0  0
    4.3360    7.3150  -21.0490 C   0  0  0  0  0  0
    3.5170    7.3920  -22.3520 C   0  0  0  0  0  0
    4.8980    8.6900  -20.6440 C   0  0  0  0  0  0
    7.1850    8.6690  -21.6270 C   0  0  0  0  0  0
    9.4630    8.7640  -22.5900 C   0  0  0  0  0  0
    7.5990    9.9710  -23.6900 C   0  0  0  0  0  0
    5.6152    9.8805  -22.2516 H   0  0  0  0  0  0
    6.9628    7.4149  -19.9888 H   0  0  0  0  0  0
    8.5738    7.3971  -20.7550 H   0  0  0  0  0  0
    5.1660    6.6050  -21.1790 H   0  0  0  0  0  0
    3.7010    6.9270  -20.2390 H   0  0  0  0  0  0
    4.1408    7.8178  -23.1517 H   0  0  0  0  0  0
    2.6779    8.0901  -22.2160 H   0  0  0  0  0  0
    4.0780    9.4220  -20.6010 H   0  0  0  0  0  0
    5.3380    8.6240  -19.6380 H   0  0  0  0  0  0
    9.9581    9.2311  -23.4541 H   0  0  0  0  0  0
    9.9299    9.1239  -21.6613 H   0  0  0  0  0  0
    9.5710    7.6712  -22.6540 H   0  0  0  0  0  0
    8.4531   10.2060  -24.3421 H   0  0  0  0  0  0
    6.8260    9.4490  -24.2730 H   0  0  0  0  0  0
    7.1823   10.9043  -23.2833 H   0  0  0  0  0  0
  1  2  2  0  0  0
  1  3  1  0  0  0
  1 34  1  0  0  0
  2  6  1  0  0  0
  2 35  1  0  0  0
  3  5  2  0  0  0
  3 27  1  0  0  0
  4  5  1  0  0  0
  4  6  2  0  0  0
  4 18  1  0  0  0
  5 24  1  0  0  0
  6 10  1  0  0  0
  7 10  2  0  0  0
  7 23  1  0  0  0
  7 33  1  0  0  0
  8 21  1  0  0  0
  8 22  1  0  0  0
  8 36  1  0  0  0
  8 37  1  0  0  0
  9 21  1  0  0  0
  9 31  1  0  0  0
  9 38  1  0  0  0
  9 39  1  0  0  0
 10 40  1  0  0  0
 11 12  1  0  0  0
 11 14  2  0  0  0
 11 15  1  0  0  0
 12 17  1  0  0  0
 12 28  2  0  0  0
 13 28  1  0  0  0
 13 29  2  0  0  0
 13 56  1  0  0  0
 14 29  1  0  0  0
 14 31  1  0  0  0
 15 30  2  0  0  0
 15 41  1  0  0  0
 16 17  2  0  0  0
 16 18  1  0  0  0
 16 30  1  0  0  0
 17 26  1  0  0  0
 18 23  2  0  0  0
 19 20  1  0  0  0
 19 31  1  0  0  0
 19 42  1  0  0  0
 19 43  1  0  0  0
 20 22  1  0  0  0
 20 32  1  0  0  0
 20 44  1  0  0  0
 21 32  1  0  0  0
 21 45  1  0  0  0
 22 46  1  0  0  0
 22 47  1  0  0  0
 23 48  1  0  0  0
 24 25  3  0  0  0
 25 49  1  0  0  0
 32 50  1  0  0  0
 33 51  1  0  0  0
 52 58  2  0  0  0
 52 59  1  0  0  0
 52 60  1  0  0  0
 53 57  1  0  0  0
 53 58  1  0  0  0
 53 61  1  0  0  0
 54 58  1  0  0  0
 54 62  1  0  0  0
 54 63  1  0  0  0
 55 56  1  0  0  0
 55 57  1  0  0  0
 55 64  1  0  0  0
 55 65  1  0  0  0
 56 66  1  0  0  0
 56 67  1  0  0  0
 57 68  1  0  0  0
 57 69  1  0  0  0
 59 70  1  0  0  0
 59 71  1  0  0  0
 59 72  1  0  0  0
 60 73  1  0  0  0
 60 74  1  0  0  0
 60 75  1  0  0  0
M  CHG  1  52   1
M  END
> <s_m_entry_id>
210

> <s_m_entry_name>
000000052.1

> <s_m_Source_Path>
/Users/zaksoul/Documents/3r_UNI/2nd_SEMESTER/BSC/FRAG_RECON/RESULTS/2

> <s_m_Source_File>
000000052.mol2

> <i_m_Source_File_Index>
1

$$$$
No_0_53
                    3D
 Schrodinger Suite 2022-4.
 72 77  0  0  1  0            999 V2000
   -5.1130    3.6110  -21.9640 C   0  0  0  0  0  0
   -5.3830    3.7600  -23.3040 C   0  0  0  0  0  0
   -3.8750    3.3660  -21.6200 C   0  0  0  0  0  0
   -2.9890    3.4250  -23.7900 C   0  0  0  0  0  0
   -2.8250    3.2230  -22.3640 C   0  0  0  0  0  0
   -4.3380    3.6740  -24.3150 C   0  0  0  0  0  0
   -3.5890    3.6270  -26.5150 C   0  0  0  0  0  0
    6.1540    3.0350  -21.2570 C   0  0  0  0  0  0
    6.0080    3.0990  -23.8100 C   0  0  0  0  0  0
   -4.5930    3.7610  -25.6530 C   0  0  0  0  0  0
    2.2240    3.6540  -23.8330 C   0  0  0  0  0  0
    1.4060    4.7730  -23.5650 C   0  0  0  0  0  0
    3.2090    5.9850  -22.9270 C   0  0  0  0  0  0
    3.6260    3.8520  -23.5300 C   0  0  0  0  0  0
    1.6740    2.5180  -24.4580 C   0  0  0  0  0  0
   -0.4510    3.3390  -24.3670 C   0  0  0  0  0  0
    0.0790    4.5760  -23.8070 C   0  0  0  0  0  0
   -1.9050    3.3370  -24.7170 C   0  0  0  0  0  0
    4.2280    1.3630  -23.1640 C   0  0  0  0  0  0
    5.1640    1.0400  -22.0090 C   0  0  2  0  0  0
    6.7580    2.5610  -22.5970 C   0  0  2  0  0  0
    5.1510    2.0760  -20.8730 C   0  0  0  0  0  0
   -2.2350    3.4530  -26.1480 C   0  0  0  0  0  0
   -1.4800    2.8260  -21.7570 C   0  0  0  0  0  0
   -0.4480    2.4920  -21.2430 C   0  0  0  0  0  0
   -0.7590    5.6330  -23.4920 F   0  0  0  0  0  0
   -3.6610    3.1650  -20.2310 F   0  0  0  0  0  0
    1.8870    5.9460  -23.0710 N   0  0  0  0  0  0
    4.1030    5.0140  -23.1210 N   0  0  0  0  0  0
    0.3670    2.4220  -24.7570 N   0  0  0  0  0  0
    4.5420    2.7970  -23.6770 N   0  0  0  0  0  0
    6.5700    1.0900  -22.4970 N   0  0  1  0  0  0
   -3.7660    3.6000  -27.9040 O   0  0  0  0  0  0
   -5.9133    3.6984  -21.2380 H   0  0  0  0  0  0
   -6.3981    3.9468  -23.6353 H   0  0  0  0  0  0
    5.6847    4.0201  -21.3963 H   0  0  0  0  0  0
    6.9425    3.0673  -20.4907 H   0  0  0  0  0  0
    6.3989    2.6263  -24.7231 H   0  0  0  0  0  0
    6.1532    4.1873  -23.8766 H   0  0  0  0  0  0
   -5.6038    3.9377  -26.0023 H   0  0  0  0  0  0
    2.3112    1.6801  -24.7169 H   0  0  0  0  0  0
    3.1861    1.3186  -22.8140 H   0  0  0  0  0  0
    4.3865    0.6390  -23.9768 H   0  0  0  0  0  0
    4.9390    0.0401  -21.6095 H   0  0  0  0  0  0
    7.8269    2.8143  -22.6545 H   0  0  0  0  0  0
    4.1689    2.5706  -20.8417 H   0  0  0  0  0  0
    5.4537    1.5906  -19.9335 H   0  0  0  0  0  0
   -1.4676    3.4089  -26.9124 H   0  0  0  0  0  0
    0.4597    2.1971  -20.7911 H   0  0  0  0  0  0
    7.2185    0.6117  -21.7779 H   0  0  0  0  0  0
   -2.9229    3.4971  -28.3295 H   0  0  0  0  0  0
    6.2790    8.5960  -20.9870 N   0  3  0  0  0  0
    8.4720    7.8680  -20.8080 N   0  0  0  0  0  0
    6.8670    7.0550  -19.2750 N   0  0  0  0  0  0
    4.1240    7.3660  -21.0020 C   0  0  0  0  0  0
    3.7720    7.3370  -22.5020 C   0  0  0  0  0  0
    4.8700    8.6520  -20.6070 C   0  0  0  0  0  0
    7.1970    7.8290  -20.3420 C   0  0  0  0  0  0
    9.5570    7.1040  -20.2040 C   0  0  0  0  0  0
    6.5642    9.1765  -21.7886 H   0  0  0  0  0  0
    8.7050    8.4560  -21.6210 H   0  0  0  0  0  0
    7.5872    6.4849  -18.8089 H   0  0  0  0  0  0
    5.8955    7.0370  -18.9332 H   0  0  0  0  0  0
    4.7449    6.4922  -20.7551 H   0  0  0  0  0  0
    3.2021    7.2810  -20.4080 H   0  0  0  0  0  0
    4.6722    7.5611  -23.0931 H   0  0  0  0  0  0
    3.0366    8.1254  -22.7201 H   0  0  0  0  0  0
    4.3940    9.5159  -21.0940 H   0  0  0  0  0  0
    4.7900    8.8031  -19.5204 H   0  0  0  0  0  0
   10.4910    7.2970  -20.7520 H   0  0  0  0  0  0
    9.6790    7.4071  -19.1537 H   0  0  0  0  0  0
    9.3200    6.0309  -20.2510 H   0  0  0  0  0  0
  1  2  2  0  0  0
  1  3  1  0  0  0
  1 34  1  0  0  0
  2  6  1  0  0  0
  2 35  1  0  0  0
  3  5  2  0  0  0
  3 27  1  0  0  0
  4  5  1  0  0  0
  4  6  2  0  0  0
  4 18  1  0  0  0
  5 24  1  0  0  0
  6 10  1  0  0  0
  7 10  2  0  0  0
  7 23  1  0  0  0
  7 33  1  0  0  0
  8 21  1  0  0  0
  8 22  1  0  0  0
  8 36  1  0  0  0
  8 37  1  0  0  0
  9 21  1  0  0  0
  9 31  1  0  0  0
  9 38  1  0  0  0
  9 39  1  0  0  0
 10 40  1  0  0  0
 11 12  1  0  0  0
 11 14  2  0  0  0
 11 15  1  0  0  0
 12 17  1  0  0  0
 12 28  2  0  0  0
 13 28  1  0  0  0
 13 29  2  0  0  0
 13 56  1  0  0  0
 14 29  1  0  0  0
 14 31  1  0  0  0
 15 30  2  0  0  0
 15 41  1  0  0  0
 16 17  2  0  0  0
 16 18  1  0  0  0
 16 30  1  0  0  0
 17 26  1  0  0  0
 18 23  2  0  0  0
 19 20  1  0  0  0
 19 31  1  0  0  0
 19 42  1  0  0  0
 19 43  1  0  0  0
 20 22  1  0  0  0
 20 32  1  0  0  0
 20 44  1  0  0  0
 21 32  1  0  0  0
 21 45  1  0  0  0
 22 46  1  0  0  0
 22 47  1  0  0  0
 23 48  1  0  0  0
 24 25  3  0  0  0
 25 49  1  0  0  0
 32 50  1  0  0  0
 33 51  1  0  0  0
 52 57  1  0  0  0
 52 58  2  0  0  0
 52 60  1  0  0  0
 53 58  1  0  0  0
 53 59  1  0  0  0
 53 61  1  0  0  0
 54 58  1  0  0  0
 54 62  1  0  0  0
 54 63  1  0  0  0
 55 56  1  0  0  0
 55 57  1  0  0  0
 55 64  1  0  0  0
 55 65  1  0  0  0
 56 66  1  0  0  0
 56 67  1  0  0  0
 57 68  1  0  0  0
 57 69  1  0  0  0
 59 70  1  0  0  0
 59 71  1  0  0  0
 59 72  1  0  0  0
M  CHG  1  52   1
M  END
> <s_m_entry_id>
211

> <s_m_entry_name>
000000053.1

> <s_m_Source_Path>
/Users/zaksoul/Documents/3r_UNI/2nd_SEMESTER/BSC/FRAG_RECON/RESULTS/2

> <s_m_Source_File>
000000053.mol2

> <i_m_Source_File_Index>
1

$$$$
No_0_54
                    3D
 Schrodinger Suite 2022-4.
 72 77  0  0  1  0            999 V2000
   -5.1220    3.6190  -21.8190 C   0  0  0  0  0  0
   -5.4060    3.7960  -23.1520 C   0  0  0  0  0  0
   -3.8750    3.3970  -21.4890 C   0  0  0  0  0  0
   -3.0080    3.5370  -23.6640 C   0  0  0  0  0  0
   -2.8280    3.3020  -22.2440 C   0  0  0  0  0  0
   -4.3660    3.7650  -24.1730 C   0  0  0  0  0  0
   -3.6330    3.7980  -26.3780 C   0  0  0  0  0  0
    6.1610    3.3170  -21.2050 C   0  0  0  0  0  0
    5.9940    3.4470  -23.7540 C   0  0  0  0  0  0
   -4.6340    3.8820  -25.5060 C   0  0  0  0  0  0
    2.1980    3.9040  -23.7360 C   0  0  0  0  0  0
    1.3530    4.9930  -23.4320 C   0  0  0  0  0  0
    3.1280    6.2340  -22.7730 C   0  0  0  0  0  0
    3.5960    4.1290  -23.4370 C   0  0  0  0  0  0
    1.6720    2.7710  -24.3880 C   0  0  0  0  0  0
   -0.4730    3.5330  -24.2600 C   0  0  0  0  0  0
    0.0300    4.7680  -23.6690 C   0  0  0  0  0  0
   -1.9290    3.5030  -24.6000 C   0  0  0  0  0  0
    4.2650    1.6480  -23.1430 C   0  0  0  0  0  0
    5.2180    1.3190  -22.0040 C   0  0  2  0  0  0
    6.7670    2.8960  -22.5610 C   0  0  2  0  0  0
    5.1870    2.3230  -20.8400 C   0  0  0  0  0  0
   -2.2720    3.6500  -26.0250 C   0  0  0  0  0  0
   -1.4680    2.9230  -21.6580 C   0  0  0  0  0  0
   -0.4240    2.6020  -21.1610 C   0  0  0  0  0  0
   -0.8340    5.7940  -23.3200 F   0  0  0  0  0  0
   -3.6460    3.1640  -20.1090 F   0  0  0  0  0  0
    1.8070    6.1650  -22.9090 N   0  0  0  0  0  0
    4.0450    5.2930  -22.9990 N   0  0  0  0  0  0
    0.3650    2.6490  -24.6800 N   0  0  0  0  0  0
    4.5370    3.1030  -23.6200 N   0  0  0  0  0  0
    6.6180    1.4180  -22.5010 N   0  0  1  0  0  0
   -3.8200    3.8040  -27.7660 O   0  0  0  0  0  0
   -5.9183    3.6651  -21.0849 H   0  0  0  0  0  0
   -6.4279    3.9657  -23.4712 H   0  0  0  0  0  0
    5.6654    4.2931  -21.3130 H   0  0  0  0  0  0
    6.9545    3.3493  -20.4438 H   0  0  0  0  0  0
    6.3909    3.0097  -24.6821 H   0  0  0  0  0  0
    6.1110    4.5401  -23.7913 H   0  0  0  0  0  0
   -5.6518    4.0416  -25.8432 H   0  0  0  0  0  0
    2.3283    1.9571  -24.6740 H   0  0  0  0  0  0
    3.2273    1.5673  -22.7870 H   0  0  0  0  0  0
    4.4356    0.9513  -23.9770 H   0  0  0  0  0  0
    5.0213    0.3031  -21.6307 H   0  0  0  0  0  0
    7.8285    3.1785  -22.6195 H   0  0  0  0  0  0
    4.1924    2.7900  -20.7886 H   0  0  0  0  0  0
    5.5080    1.8193  -19.9163 H   0  0  0  0  0  0
   -1.5095    3.6460  -26.7955 H   0  0  0  0  0  0
    0.4942    2.3189  -20.7229 H   0  0  0  0  0  0
    7.2842    0.9379  -21.7995 H   0  0  0  0  0  0
   -2.9774    3.7348  -28.1992 H   0  0  0  0  0  0
    6.3110    8.9340  -21.1660 N   0  3  0  0  0  0
    8.5460    8.4060  -21.4810 N   0  0  0  0  0  0
    7.3380    7.3040  -19.7750 N   0  0  0  0  0  0
    4.2950    7.5110  -20.9140 C   0  0  0  0  0  0
    3.6590    7.5880  -22.3150 C   0  0  0  0  0  0
    5.0040    8.8200  -20.5260 C   0  0  0  0  0  0
    7.3930    8.2020  -20.7920 C   0  0  0  0  0  0
    9.7820    7.6970  -21.1790 C   0  0  0  0  0  0
    6.3890    9.6117  -21.9377 H   0  0  0  0  0  0
    8.5700    9.0867  -22.2536 H   0  0  0  0  0  0
    8.1770    6.7650  -19.5170 H   0  0  0  0  0  0
    6.4568    7.1620  -19.2609 H   0  0  0  0  0  0
    5.0161    6.6809  -20.8840 H   0  0  0  0  0  0
    3.5163    7.2831  -20.1713 H   0  0  0  0  0  0
    4.4067    7.9508  -23.0357 H   0  0  0  0  0  0
    2.8375    8.3194  -22.3040 H   0  0  0  0  0  0
    4.3780    9.6760  -20.8180 H   0  0  0  0  0  0
    5.1270    8.8610  -19.4337 H   0  0  0  0  0  0
   10.5737    8.0289  -21.8668 H   0  0  0  0  0  0
   10.0840    7.9100  -20.1429 H   0  0  0  0  0  0
    9.6230    6.6151  -21.2980 H   0  0  0  0  0  0
  1  2  2  0  0  0
  1  3  1  0  0  0
  1 34  1  0  0  0
  2  6  1  0  0  0
  2 35  1  0  0  0
  3  5  2  0  0  0
  3 27  1  0  0  0
  4  5  1  0  0  0
  4  6  2  0  0  0
  4 18  1  0  0  0
  5 24  1  0  0  0
  6 10  1  0  0  0
  7 10  2  0  0  0
  7 23  1  0  0  0
  7 33  1  0  0  0
  8 21  1  0  0  0
  8 22  1  0  0  0
  8 36  1  0  0  0
  8 37  1  0  0  0
  9 21  1  0  0  0
  9 31  1  0  0  0
  9 38  1  0  0  0
  9 39  1  0  0  0
 10 40  1  0  0  0
 11 12  1  0  0  0
 11 14  2  0  0  0
 11 15  1  0  0  0
 12 17  1  0  0  0
 12 28  2  0  0  0
 13 28  1  0  0  0
 13 29  2  0  0  0
 13 56  1  0  0  0
 14 29  1  0  0  0
 14 31  1  0  0  0
 15 30  2  0  0  0
 15 41  1  0  0  0
 16 17  2  0  0  0
 16 18  1  0  0  0
 16 30  1  0  0  0
 17 26  1  0  0  0
 18 23  2  0  0  0
 19 20  1  0  0  0
 19 31  1  0  0  0
 19 42  1  0  0  0
 19 43  1  0  0  0
 20 22  1  0  0  0
 20 32  1  0  0  0
 20 44  1  0  0  0
 21 32  1  0  0  0
 21 45  1  0  0  0
 22 46  1  0  0  0
 22 47  1  0  0  0
 23 48  1  0  0  0
 24 25  3  0  0  0
 25 49  1  0  0  0
 32 50  1  0  0  0
 33 51  1  0  0  0
 52 57  1  0  0  0
 52 58  2  0  0  0
 52 60  1  0  0  0
 53 58  1  0  0  0
 53 59  1  0  0  0
 53 61  1  0  0  0
 54 58  1  0  0  0
 54 62  1  0  0  0
 54 63  1  0  0  0
 55 56  1  0  0  0
 55 57  1  0  0  0
 55 64  1  0  0  0
 55 65  1  0  0  0
 56 66  1  0  0  0
 56 67  1  0  0  0
 57 68  1  0  0  0
 57 69  1  0  0  0
 59 70  1  0  0  0
 59 71  1  0  0  0
 59 72  1  0  0  0
M  CHG  1  52   1
M  END
> <s_m_entry_id>
212

> <s_m_entry_name>
000000054.1

> <s_m_Source_Path>
/Users/zaksoul/Documents/3r_UNI/2nd_SEMESTER/BSC/FRAG_RECON/RESULTS/2

> <s_m_Source_File>
000000054.mol2

> <i_m_Source_File_Index>
1

$$$$
No_0_55
                    3D
 Schrodinger Suite 2022-4.
 72 77  0  0  1  0            999 V2000
   -5.2560    3.5490  -21.8660 C   0  0  0  0  0  0
   -5.5450    3.7070  -23.2010 C   0  0  0  0  0  0
   -4.0090    3.3200  -21.5390 C   0  0  0  0  0  0
   -3.1520    3.4170  -23.7200 C   0  0  0  0  0  0
   -2.9670    3.2030  -22.2980 C   0  0  0  0  0  0
   -4.5110    3.6490  -24.2260 C   0  0  0  0  0  0
   -3.7890    3.6380  -26.4350 C   0  0  0  0  0  0
    6.0270    3.1480  -21.3040 C   0  0  0  0  0  0
    5.8480    3.2380  -23.8540 C   0  0  0  0  0  0
   -4.7840    3.7470  -25.5600 C   0  0  0  0  0  0
    2.0560    3.7310  -23.8240 C   0  0  0  0  0  0
    1.2240    4.8340  -23.5350 C   0  0  0  0  0  0
    3.0140    6.0680  -22.9060 C   0  0  0  0  0  0
    3.4580    3.9480  -23.5360 C   0  0  0  0  0  0
    1.5170    2.5940  -24.4550 C   0  0  0  0  0  0
   -0.6210    3.3780  -24.3280 C   0  0  0  0  0  0
   -0.1030    4.6180  -23.7620 C   0  0  0  0  0  0
   -2.0790    3.3560  -24.6610 C   0  0  0  0  0  0
    4.1050    1.4660  -23.2050 C   0  0  0  0  0  0
    5.0600    1.1460  -22.0650 C   0  0  2  0  0  0
    6.6220    2.6990  -22.6560 C   0  0  2  0  0  0
    5.0450    2.1700  -20.9180 C   0  0  0  0  0  0
   -2.4270    3.4830  -26.0870 C   0  0  0  0  0  0
   -1.6080    2.8210  -21.7120 C   0  0  0  0  0  0
   -0.5650    2.4980  -21.2150 C   0  0  0  0  0  0
   -0.9550    5.6570  -23.4250 F   0  0  0  0  0  0
   -3.7750    3.1080  -20.1560 F   0  0  0  0  0  0
    1.6920    6.0100  -23.0330 N   0  0  0  0  0  0
    3.9210    5.1140  -23.1200 N   0  0  0  0  0  0
    0.2070    2.4790  -24.7390 N   0  0  0  0  0  0
    4.3890    2.9100  -23.7070 N   0  0  0  0  0  0
    6.4590    1.2240  -22.5700 N   0  0  1  0  0  0
   -3.9830    3.6230  -27.8220 O   0  0  0  0  0  0
   -6.0482    3.6153  -21.1290 H   0  0  0  0  0  0
   -6.5667    3.8816  -23.5182 H   0  0  0  0  0  0
    5.5405    4.1270  -21.4261 H   0  0  0  0  0  0
    6.8243    3.1853  -20.5471 H   0  0  0  0  0  0
    6.2355    2.7808  -24.7764 H   0  0  0  0  0  0
    5.9751    4.3292  -23.9105 H   0  0  0  0  0  0
   -5.8021    3.9107  -25.8943 H   0  0  0  0  0  0
    2.1630    1.7684  -24.7309 H   0  0  0  0  0  0
    3.0683    1.4015  -22.8430 H   0  0  0  0  0  0
    4.2645    0.7534  -24.0276 H   0  0  0  0  0  0
    4.8560    0.1382  -21.6742 H   0  0  0  0  0  0
    7.6858    2.9705  -22.7246 H   0  0  0  0  0  0
    4.0551    2.6473  -20.8696 H   0  0  0  0  0  0
    5.3669    1.6795  -19.9875 H   0  0  0  0  0  0
   -1.6688    3.4589  -26.8613 H   0  0  0  0  0  0
    0.3530    2.2140  -20.7770 H   0  0  0  0  0  0
    7.1243    0.7491  -21.8641 H   0  0  0  0  0  0
   -3.1433    3.5389  -28.2582 H   0  0  0  0  0  0
    6.3040    8.8300  -21.6610 N   0  3  0  0  0  0
    8.4860    8.4020  -22.3150 N   0  0  0  0  0  0
    7.5760    7.1920  -20.5000 N   0  0  0  0  0  0
    4.3940    7.3220  -21.1810 C   0  0  0  0  0  0
    3.5610    7.4240  -22.4720 C   0  0  0  0  0  0
    5.1080    8.6420  -20.8460 C   0  0  0  0  0  0
    7.4530    8.1280  -21.4770 C   0  0  0  0  0  0
    9.7770    7.7310  -22.2220 C   0  0  0  0  0  0
    6.2470    9.5380  -22.4070 H   0  0  0  0  0  0
    8.3760    9.1110  -23.0540 H   0  0  0  0  0  0
    8.4613    6.6778  -20.3870 H   0  0  0  0  0  0
    6.7836    6.9971  -19.8715 H   0  0  0  0  0  0
    5.1395    6.5205  -21.2899 H   0  0  0  0  0  0
    3.7392    7.0371  -20.3443 H   0  0  0  0  0  0
    4.1831    7.8421  -23.2771 H   0  0  0  0  0  0
    2.7254    8.1217  -22.3141 H   0  0  0  0  0  0
    4.4180    9.4830  -21.0090 H   0  0  0  0  0  0
    5.3858    8.6480  -19.7817 H   0  0  0  0  0  0
   10.4491    8.1180  -23.0021 H   0  0  0  0  0  0
   10.2181    7.9180  -21.2318 H   0  0  0  0  0  0
    9.6380    6.6488  -22.3620 H   0  0  0  0  0  0
  1  2  2  0  0  0
  1  3  1  0  0  0
  1 34  1  0  0  0
  2  6  1  0  0  0
  2 35  1  0  0  0
  3  5  2  0  0  0
  3 27  1  0  0  0
  4  5  1  0  0  0
  4  6  2  0  0  0
  4 18  1  0  0  0
  5 24  1  0  0  0
  6 10  1  0  0  0
  7 10  2  0  0  0
  7 23  1  0  0  0
  7 33  1  0  0  0
  8 21  1  0  0  0
  8 22  1  0  0  0
  8 36  1  0  0  0
  8 37  1  0  0  0
  9 21  1  0  0  0
  9 31  1  0  0  0
  9 38  1  0  0  0
  9 39  1  0  0  0
 10 40  1  0  0  0
 11 12  1  0  0  0
 11 14  2  0  0  0
 11 15  1  0  0  0
 12 17  1  0  0  0
 12 28  2  0  0  0
 13 28  1  0  0  0
 13 29  2  0  0  0
 13 56  1  0  0  0
 14 29  1  0  0  0
 14 31  1  0  0  0
 15 30  2  0  0  0
 15 41  1  0  0  0
 16 17  2  0  0  0
 16 18  1  0  0  0
 16 30  1  0  0  0
 17 26  1  0  0  0
 18 23  2  0  0  0
 19 20  1  0  0  0
 19 31  1  0  0  0
 19 42  1  0  0  0
 19 43  1  0  0  0
 20 22  1  0  0  0
 20 32  1  0  0  0
 20 44  1  0  0  0
 21 32  1  0  0  0
 21 45  1  0  0  0
 22 46  1  0  0  0
 22 47  1  0  0  0
 23 48  1  0  0  0
 24 25  3  0  0  0
 25 49  1  0  0  0
 32 50  1  0  0  0
 33 51  1  0  0  0
 52 57  1  0  0  0
 52 58  2  0  0  0
 52 60  1  0  0  0
 53 58  1  0  0  0
 53 59  1  0  0  0
 53 61  1  0  0  0
 54 58  1  0  0  0
 54 62  1  0  0  0
 54 63  1  0  0  0
 55 56  1  0  0  0
 55 57  1  0  0  0
 55 64  1  0  0  0
 55 65  1  0  0  0
 56 66  1  0  0  0
 56 67  1  0  0  0
 57 68  1  0  0  0
 57 69  1  0  0  0
 59 70  1  0  0  0
 59 71  1  0  0  0
 59 72  1  0  0  0
M  CHG  1  52   1
M  END
> <s_m_entry_id>
213

> <s_m_entry_name>
000000055.1

> <s_m_Source_Path>
/Users/zaksoul/Documents/3r_UNI/2nd_SEMESTER/BSC/FRAG_RECON/RESULTS/2

> <s_m_Source_File>
000000055.mol2

> <i_m_Source_File_Index>
1

$$$$
No_0_56
                    3D
 Schrodinger Suite 2022-4.
 72 77  0  0  1  0            999 V2000
   -5.2450    3.7770  -21.9940 C   0  0  0  0  0  0
   -5.5000    3.9600  -23.3330 C   0  0  0  0  0  0
   -4.0140    3.5060  -21.6440 C   0  0  0  0  0  0
   -3.1070    3.6010  -23.8040 C   0  0  0  0  0  0
   -2.9590    3.3650  -22.3810 C   0  0  0  0  0  0
   -4.4460    3.8820  -24.3360 C   0  0  0  0  0  0
   -3.6770    3.8740  -26.5290 C   0  0  0  0  0  0
    6.0050    3.0200  -21.1950 C   0  0  0  0  0  0
    5.8850    3.1450  -23.7470 C   0  0  0  0  0  0
   -4.6870    4.0030  -25.6740 C   0  0  0  0  0  0
    2.1100    3.7550  -23.7930 C   0  0  0  0  0  0
    1.3060    4.8800  -23.5070 C   0  0  0  0  0  0
    3.1190    6.0510  -22.8250 C   0  0  0  0  0  0
    3.5110    3.9260  -23.4720 C   0  0  0  0  0  0
    1.5500    2.6420  -24.4490 C   0  0  0  0  0  0
   -0.5650    3.4920  -24.3580 C   0  0  0  0  0  0
   -0.0220    4.7080  -23.7650 C   0  0  0  0  0  0
   -2.0150    3.5190  -24.7220 C   0  0  0  0  0  0
    4.0740    1.4200  -23.1570 C   0  0  0  0  0  0
    4.9940    1.0580  -22.0020 C   0  0  2  0  0  0
    6.6160    2.5680  -22.5400 C   0  0  2  0  0  0
    4.9850    2.0690  -20.8420 C   0  0  0  0  0  0
   -2.3290    3.6730  -26.1540 C   0  0  0  0  0  0
   -1.6260    2.9340  -21.7710 C   0  0  0  0  0  0
   -0.6040    2.5740  -21.2550 C   0  0  0  0  0  0
   -0.8480    5.7690  -23.4340 F   0  0  0  0  0  0
   -3.8160    3.2710  -20.2580 F   0  0  0  0  0  0
    1.7980    6.0350  -22.9820 N   0  0  0  0  0  0
    4.0010    5.0720  -23.0320 N   0  0  0  0  0  0
    0.2440    2.5720  -24.7620 N   0  0  0  0  0  0
    4.4130    2.8610  -23.6350 N   0  0  0  0  0  0
    6.4050    1.0980  -22.4760 N   0  0  1  0  0  0
   -3.8410    3.8810  -27.9200 O   0  0  0  0  0  0
   -6.0507    3.8593  -21.2735 H   0  0  0  0  0  0
   -6.5089    4.1698  -23.6693 H   0  0  0  0  0  0
    5.5511    4.0146  -21.3161 H   0  0  0  0  0  0
    6.7863    3.0240  -20.4207 H   0  0  0  0  0  0
    6.2777    2.6867  -24.6666 H   0  0  0  0  0  0
    6.0464    4.2323  -23.7873 H   0  0  0  0  0  0
   -5.6918    4.2028  -26.0283 H   0  0  0  0  0  0
    2.1768    1.8002  -24.7202 H   0  0  0  0  0  0
    3.0281    1.3837  -22.8181 H   0  0  0  0  0  0
    4.2294    0.7135  -23.9857 H   0  0  0  0  0  0
    4.7508    0.0527  -21.6275 H   0  0  0  0  0  0
    7.6889    2.8072  -22.5814 H   0  0  0  0  0  0
    4.0094    2.5760  -20.8087 H   0  0  0  0  0  0
    5.2716    1.5573  -19.9114 H   0  0  0  0  0  0
   -1.5545    3.6349  -26.9115 H   0  0  0  0  0  0
    0.2952    2.2559  -20.8019 H   0  0  0  0  0  0
    7.0391    0.5954  -21.7606 H   0  0  0  0  0  0
   -2.9951    3.7761  -28.3395 H   0  0  0  0  0  0
    6.5030    8.8170  -21.8790 N   0  3  0  0  0  0
    8.5590    8.5300  -22.9110 N   0  0  0  0  0  0
    7.9850    7.1340  -21.0910 N   0  0  0  0  0  0
    4.7330    7.2020  -21.2380 C   0  0  0  0  0  0
    3.6980    7.3840  -22.3630 C   0  0  0  0  0  0
    5.4620    8.5150  -20.9020 C   0  0  0  0  0  0
    7.6830    8.1460  -21.9470 C   0  0  0  0  0  0
    9.8620    7.9020  -23.0890 C   0  0  0  0  0  0
    6.3089    9.5843  -22.5382 H   0  0  0  0  0  0
    8.3118    9.2945  -23.5554 H   0  0  0  0  0  0
    8.8885    6.6457  -21.1700 H   0  0  0  0  0  0
    7.3107    6.8559  -20.3637 H   0  0  0  0  0  0
    5.4688    6.4413  -21.5379 H   0  0  0  0  0  0
    4.2310    6.8220  -20.3360 H   0  0  0  0  0  0
    4.1698    7.8928  -23.2166 H   0  0  0  0  0  0
    2.8834    8.0336  -22.0102 H   0  0  0  0  0  0
    4.7350    9.3400  -20.8750 H   0  0  0  0  0  0
    5.9103    8.4390  -19.9004 H   0  0  0  0  0  0
   10.3882    8.3802  -23.9283 H   0  0  0  0  0  0
   10.4550    8.0200  -22.1701 H   0  0  0  0  0  0
    9.7280    6.8314  -23.3029 H   0  0  0  0  0  0
  1  2  2  0  0  0
  1  3  1  0  0  0
  1 34  1  0  0  0
  2  6  1  0  0  0
  2 35  1  0  0  0
  3  5  2  0  0  0
  3 27  1  0  0  0
  4  5  1  0  0  0
  4  6  2  0  0  0
  4 18  1  0  0  0
  5 24  1  0  0  0
  6 10  1  0  0  0
  7 10  2  0  0  0
  7 23  1  0  0  0
  7 33  1  0  0  0
  8 21  1  0  0  0
  8 22  1  0  0  0
  8 36  1  0  0  0
  8 37  1  0  0  0
  9 21  1  0  0  0
  9 31  1  0  0  0
  9 38  1  0  0  0
  9 39  1  0  0  0
 10 40  1  0  0  0
 11 12  1  0  0  0
 11 14  2  0  0  0
 11 15  1  0  0  0
 12 17  1  0  0  0
 12 28  2  0  0  0
 13 28  1  0  0  0
 13 29  2  0  0  0
 13 56  1  0  0  0
 14 29  1  0  0  0
 14 31  1  0  0  0
 15 30  2  0  0  0
 15 41  1  0  0  0
 16 17  2  0  0  0
 16 18  1  0  0  0
 16 30  1  0  0  0
 17 26  1  0  0  0
 18 23  2  0  0  0
 19 20  1  0  0  0
 19 31  1  0  0  0
 19 42  1  0  0  0
 19 43  1  0  0  0
 20 22  1  0  0  0
 20 32  1  0  0  0
 20 44  1  0  0  0
 21 32  1  0  0  0
 21 45  1  0  0  0
 22 46  1  0  0  0
 22 47  1  0  0  0
 23 48  1  0  0  0
 24 25  3  0  0  0
 25 49  1  0  0  0
 32 50  1  0  0  0
 33 51  1  0  0  0
 52 57  1  0  0  0
 52 58  2  0  0  0
 52 60  1  0  0  0
 53 58  1  0  0  0
 53 59  1  0  0  0
 53 61  1  0  0  0
 54 58  1  0  0  0
 54 62  1  0  0  0
 54 63  1  0  0  0
 55 56  1  0  0  0
 55 57  1  0  0  0
 55 64  1  0  0  0
 55 65  1  0  0  0
 56 66  1  0  0  0
 56 67  1  0  0  0
 57 68  1  0  0  0
 57 69  1  0  0  0
 59 70  1  0  0  0
 59 71  1  0  0  0
 59 72  1  0  0  0
M  CHG  1  52   1
M  END
> <s_m_entry_id>
214

> <s_m_entry_name>
000000056.1

> <s_m_Source_Path>
/Users/zaksoul/Documents/3r_UNI/2nd_SEMESTER/BSC/FRAG_RECON/RESULTS/2

> <s_m_Source_File>
000000056.mol2

> <i_m_Source_File_Index>
1

$$$$
No_0_59
                    3D
 Schrodinger Suite 2022-4.
 70 75  0  0  1  0            999 V2000
   -5.2700    3.5290  -22.1940 C   0  0  0  0  0  0
   -5.5210    3.6680  -23.5390 C   0  0  0  0  0  0
   -4.0350    3.2930  -21.8300 C   0  0  0  0  0  0
   -3.1180    3.3440  -23.9880 C   0  0  0  0  0  0
   -2.9740    3.1520  -22.5570 C   0  0  0  0  0  0
   -4.4610    3.5820  -24.5340 C   0  0  0  0  0  0
   -3.6790    3.5270  -26.7220 C   0  0  0  0  0  0
    5.9890    3.0240  -21.3190 C   0  0  0  0  0  0
    5.8800    3.0730  -23.8730 C   0  0  0  0  0  0
   -4.6960    3.6600  -25.8760 C   0  0  0  0  0  0
    2.0940    3.6050  -23.9550 C   0  0  0  0  0  0
    1.2650    4.7200  -23.7060 C   0  0  0  0  0  0
    3.0510    5.9470  -23.0490 C   0  0  0  0  0  0
    3.4900    3.8130  -23.6330 C   0  0  0  0  0  0
    1.5600    2.4620  -24.5820 C   0  0  0  0  0  0
   -0.5720    3.2710  -24.5260 C   0  0  0  0  0  0
   -0.0570    4.5140  -23.9660 C   0  0  0  0  0  0
   -2.0200    3.2580  -24.8980 C   0  0  0  0  0  0
    4.1010    1.3300  -23.2430 C   0  0  0  0  0  0
    5.0220    1.0190  -22.0730 C   0  0  2  0  0  0
    6.6160    2.5460  -22.6470 C   0  0  2  0  0  0
    4.9870    2.0620  -20.9440 C   0  0  0  0  0  0
   -2.3290    3.3640  -26.3340 C   0  0  0  0  0  0
   -1.6350    2.7660  -21.9280 C   0  0  0  0  0  0
   -0.6090    2.4410  -21.3980 C   0  0  0  0  0  0
   -0.9060    5.5670  -23.6690 F   0  0  0  0  0  0
   -3.8400    3.1020  -20.4370 F   0  0  0  0  0  0
    1.7320    5.9000  -23.2120 N   0  0  0  0  0  0
    3.9530    4.9810  -23.2240 N   0  0  0  0  0  0
    0.2570    2.3560  -24.8990 N   0  0  0  0  0  0
    4.4140    2.7630  -23.7610 N   0  0  0  0  0  0
    6.4340    1.0750  -22.5410 N   0  0  1  0  0  0
   -3.8360    3.4910  -28.1140 O   0  0  0  0  0  0
   -6.0808    3.6143  -21.4796 H   0  0  0  0  0  0
   -6.5324    3.8468  -23.8855 H   0  0  0  0  0  0
    5.5159    4.0055  -21.4703 H   0  0  0  0  0  0
    6.7658    3.0654  -20.5412 H   0  0  0  0  0  0
    6.2869    2.5975  -24.7776 H   0  0  0  0  0  0
    6.0193    4.1619  -23.9436 H   0  0  0  0  0  0
   -5.7029    3.8287  -26.2404 H   0  0  0  0  0  0
    2.2054    1.6259  -24.8259 H   0  0  0  0  0  0
    3.0544    1.2816  -22.9079 H   0  0  0  0  0  0
    4.2756    0.6024  -24.0493 H   0  0  0  0  0  0
    4.7968    0.0202  -21.6710 H   0  0  0  0  0  0
    7.6841    2.8054  -22.6904 H   0  0  0  0  0  0
    4.0014    2.5503  -20.9299 H   0  0  0  0  0  0
    5.2777    1.5835  -19.9971 H   0  0  0  0  0  0
   -1.5502    3.3198  -27.0867 H   0  0  0  0  0  0
    0.2939    2.1550  -20.9310 H   0  0  0  0  0  0
    7.0754    0.6057  -21.8098 H   0  0  0  0  0  0
   -2.9855    3.3911  -28.5254 H   0  0  0  0  0  0
    8.0160   10.0970  -21.2400 F   0  0  0  0  0  0
    6.0880    8.5000  -19.8960 N   0  3  0  0  0  0
    5.0700    8.5940  -21.0070 C   0  0  0  0  0  0
    7.4570    7.9710  -20.2510 C   0  0  0  0  0  0
    3.6000    7.3050  -22.6230 C   0  0  0  0  0  0
    4.6340    7.2010  -21.4900 C   0  0  0  0  0  0
    8.1280    8.7210  -21.4190 C   0  0  0  0  0  0
    5.7055    7.9497  -19.1430 H   0  0  0  0  0  0
    6.1850    9.4031  -19.4589 H   0  0  0  0  0  0
    5.5001    9.1561  -21.8491 H   0  0  0  0  0  0
    4.1902    9.1505  -20.6517 H   0  0  0  0  0  0
    7.3821    6.9019  -20.4988 H   0  0  0  0  0  0
    8.1077    8.0180  -19.3654 H   0  0  0  0  0  0
    4.0569    7.8029  -23.4909 H   0  0  0  0  0  0
    2.7693    7.9508  -22.3021 H   0  0  0  0  0  0
    4.1999    6.6408  -20.6487 H   0  0  0  0  0  0
    5.5135    6.6447  -21.8462 H   0  0  0  0  0  0
    9.1910    8.4430  -21.4710 H   0  0  0  0  0  0
    7.6439    8.4340  -22.3641 H   0  0  0  0  0  0
  1  2  2  0  0  0
  1  3  1  0  0  0
  1 34  1  0  0  0
  2  6  1  0  0  0
  2 35  1  0  0  0
  3  5  2  0  0  0
  3 27  1  0  0  0
  4  5  1  0  0  0
  4  6  2  0  0  0
  4 18  1  0  0  0
  5 24  1  0  0  0
  6 10  1  0  0  0
  7 10  2  0  0  0
  7 23  1  0  0  0
  7 33  1  0  0  0
  8 21  1  0  0  0
  8 22  1  0  0  0
  8 36  1  0  0  0
  8 37  1  0  0  0
  9 21  1  0  0  0
  9 31  1  0  0  0
  9 38  1  0  0  0
  9 39  1  0  0  0
 10 40  1  0  0  0
 11 12  1  0  0  0
 11 14  2  0  0  0
 11 15  1  0  0  0
 12 17  1  0  0  0
 12 28  2  0  0  0
 13 28  1  0  0  0
 13 29  2  0  0  0
 13 56  1  0  0  0
 14 29  1  0  0  0
 14 31  1  0  0  0
 15 30  2  0  0  0
 15 41  1  0  0  0
 16 17  2  0  0  0
 16 18  1  0  0  0
 16 30  1  0  0  0
 17 26  1  0  0  0
 18 23  2  0  0  0
 19 20  1  0  0  0
 19 31  1  0  0  0
 19 42  1  0  0  0
 19 43  1  0  0  0
 20 22  1  0  0  0
 20 32  1  0  0  0
 20 44  1  0  0  0
 21 32  1  0  0  0
 21 45  1  0  0  0
 22 46  1  0  0  0
 22 47  1  0  0  0
 23 48  1  0  0  0
 24 25  3  0  0  0
 25 49  1  0  0  0
 32 50  1  0  0  0
 33 51  1  0  0  0
 52 58  1  0  0  0
 53 54  1  0  0  0
 53 55  1  0  0  0
 53 59  1  0  0  0
 53 60  1  0  0  0
 54 57  1  0  0  0
 54 61  1  0  0  0
 54 62  1  0  0  0
 55 58  1  0  0  0
 55 63  1  0  0  0
 55 64  1  0  0  0
 56 57  1  0  0  0
 56 65  1  0  0  0
 56 66  1  0  0  0
 57 67  1  0  0  0
 57 68  1  0  0  0
 58 69  1  0  0  0
 58 70  1  0  0  0
M  CHG  1  53   1
M  END
> <s_m_entry_id>
215

> <s_m_entry_name>
000000057.1

> <s_m_Source_Path>
/Users/zaksoul/Documents/3r_UNI/2nd_SEMESTER/BSC/FRAG_RECON/RESULTS/2

> <s_m_Source_File>
000000057.mol2

> <i_m_Source_File_Index>
1

$$$$
No_0_60
                    3D
 Schrodinger Suite 2022-4.
 70 75  0  0  1  0            999 V2000
   -5.3220    3.8170  -21.9680 C   0  0  0  0  0  0
   -5.5830    3.9840  -23.3080 C   0  0  0  0  0  0
   -4.0900    3.5450  -21.6200 C   0  0  0  0  0  0
   -3.1940    3.6080  -23.7870 C   0  0  0  0  0  0
   -3.0400    3.3890  -22.3610 C   0  0  0  0  0  0
   -4.5350    3.8880  -24.3150 C   0  0  0  0  0  0
   -3.7770    3.8480  -26.5120 C   0  0  0  0  0  0
    5.9290    3.0170  -21.2190 C   0  0  0  0  0  0
    5.7960    3.1100  -23.7710 C   0  0  0  0  0  0
   -4.7820    3.9930  -25.6530 C   0  0  0  0  0  0
    2.0240    3.7370  -23.8050 C   0  0  0  0  0  0
    1.2260    4.8690  -23.5300 C   0  0  0  0  0  0
    3.0480    6.0400  -22.8720 C   0  0  0  0  0  0
    3.4270    3.9050  -23.4940 C   0  0  0  0  0  0
    1.4540    2.6180  -24.4430 C   0  0  0  0  0  0
   -0.6550    3.4790  -24.3530 C   0  0  0  0  0  0
   -0.1030    4.7000  -23.7780 C   0  0  0  0  0  0
   -2.1080    3.5080  -24.7090 C   0  0  0  0  0  0
    3.9800    1.4010  -23.1490 C   0  0  0  0  0  0
    4.9040    1.0500  -21.9940 C   0  0  2  0  0  0
    6.5300    2.5450  -22.5600 C   0  0  2  0  0  0
    4.9060    2.0750  -20.8480 C   0  0  0  0  0  0
   -2.4280    3.6450  -26.1410 C   0  0  0  0  0  0
   -1.7050    2.9600  -21.7520 C   0  0  0  0  0  0
   -0.6820    2.6010  -21.2380 C   0  0  0  0  0  0
   -0.9230    5.7690  -23.4570 F   0  0  0  0  0  0
   -3.8860    3.3270  -20.2330 F   0  0  0  0  0  0
    1.7270    6.0280  -23.0220 N   0  0  0  0  0  0
    3.9240    5.0540  -23.0710 N   0  0  0  0  0  0
    0.1470    2.5500  -24.7490 N   0  0  0  0  0  0
    4.3230    2.8340  -23.6480 N   0  0  0  0  0  0
    6.3130    1.0770  -22.4760 N   0  0  1  0  0  0
   -3.9480    3.8370  -27.9020 O   0  0  0  0  0  0
   -6.1232    3.9124  -21.2441 H   0  0  0  0  0  0
   -6.5929    4.1938  -23.6413 H   0  0  0  0  0  0
    5.4792    4.0124  -21.3491 H   0  0  0  0  0  0
    6.7143    3.0271  -20.4488 H   0  0  0  0  0  0
    6.1816    2.6376  -24.6865 H   0  0  0  0  0  0
    5.9615    4.1961  -23.8255 H   0  0  0  0  0  0
   -5.7880    4.1918  -26.0044 H   0  0  0  0  0  0
    2.0764    1.7707  -24.7070 H   0  0  0  0  0  0
    2.9359    1.3738  -22.8040 H   0  0  0  0  0  0
    4.1274    0.6823  -23.9686 H   0  0  0  0  0  0
    4.6589    0.0504  -21.6057 H   0  0  0  0  0  0
    7.6038    2.7781  -22.6105 H   0  0  0  0  0  0
    3.9333    2.5876  -20.8157 H   0  0  0  0  0  0
    5.1945    1.5746  -19.9118 H   0  0  0  0  0  0
   -1.6579    3.5928  -26.9021 H   0  0  0  0  0  0
    0.2180    2.2850  -20.7850 H   0  0  0  0  0  0
    6.9491    0.5799  -21.7586 H   0  0  0  0  0  0
   -3.1048    3.7232  -28.3246 H   0  0  0  0  0  0
    8.1540   10.2770  -21.8090 F   0  0  0  0  0  0
    6.6640    8.4290  -20.2460 N   0  3  0  0  0  0
    5.4060    8.5760  -21.0670 C   0  0  0  0  0  0
    7.9250    8.0270  -20.9740 C   0  0  0  0  0  0
    3.6360    7.3770  -22.4310 C   0  0  0  0  0  0
    4.9150    7.2180  -21.5940 C   0  0  0  0  0  0
    8.2670    8.9370  -22.1700 C   0  0  0  0  0  0
    6.4950    7.7792  -19.4942 H   0  0  0  0  0  0
    6.8320    9.2850  -19.7410 H   0  0  0  0  0  0
    5.5989    9.2498  -21.9148 H   0  0  0  0  0  0
    4.6191    9.0359  -20.4511 H   0  0  0  0  0  0
    7.8310    6.9875  -21.3212 H   0  0  0  0  0  0
    8.7682    8.0210  -20.2676 H   0  0  0  0  0  0
    3.8521    7.9913  -23.3175 H   0  0  0  0  0  0
    2.8852    7.9318  -21.8492 H   0  0  0  0  0  0
    4.7170    6.5460  -20.7460 H   0  0  0  0  0  0
    5.7022    6.7589  -22.2101 H   0  0  0  0  0  0
    9.2954    8.7331  -22.5028 H   0  0  0  0  0  0
    7.5801    8.7220  -23.0019 H   0  0  0  0  0  0
  1  2  2  0  0  0
  1  3  1  0  0  0
  1 34  1  0  0  0
  2  6  1  0  0  0
  2 35  1  0  0  0
  3  5  2  0  0  0
  3 27  1  0  0  0
  4  5  1  0  0  0
  4  6  2  0  0  0
  4 18  1  0  0  0
  5 24  1  0  0  0
  6 10  1  0  0  0
  7 10  2  0  0  0
  7 23  1  0  0  0
  7 33  1  0  0  0
  8 21  1  0  0  0
  8 22  1  0  0  0
  8 36  1  0  0  0
  8 37  1  0  0  0
  9 21  1  0  0  0
  9 31  1  0  0  0
  9 38  1  0  0  0
  9 39  1  0  0  0
 10 40  1  0  0  0
 11 12  1  0  0  0
 11 14  2  0  0  0
 11 15  1  0  0  0
 12 17  1  0  0  0
 12 28  2  0  0  0
 13 28  1  0  0  0
 13 29  2  0  0  0
 13 56  1  0  0  0
 14 29  1  0  0  0
 14 31  1  0  0  0
 15 30  2  0  0  0
 15 41  1  0  0  0
 16 17  2  0  0  0
 16 18  1  0  0  0
 16 30  1  0  0  0
 17 26  1  0  0  0
 18 23  2  0  0  0
 19 20  1  0  0  0
 19 31  1  0  0  0
 19 42  1  0  0  0
 19 43  1  0  0  0
 20 22  1  0  0  0
 20 32  1  0  0  0
 20 44  1  0  0  0
 21 32  1  0  0  0
 21 45  1  0  0  0
 22 46  1  0  0  0
 22 47  1  0  0  0
 23 48  1  0  0  0
 24 25  3  0  0  0
 25 49  1  0  0  0
 32 50  1  0  0  0
 33 51  1  0  0  0
 52 58  1  0  0  0
 53 54  1  0  0  0
 53 55  1  0  0  0
 53 59  1  0  0  0
 53 60  1  0  0  0
 54 57  1  0  0  0
 54 61  1  0  0  0
 54 62  1  0  0  0
 55 58  1  0  0  0
 55 63  1  0  0  0
 55 64  1  0  0  0
 56 57  1  0  0  0
 56 65  1  0  0  0
 56 66  1  0  0  0
 57 67  1  0  0  0
 57 68  1  0  0  0
 58 69  1  0  0  0
 58 70  1  0  0  0
M  CHG  1  53   1
M  END
> <s_m_entry_id>
216

> <s_m_entry_name>
000000058.1

> <s_m_Source_Path>
/Users/zaksoul/Documents/3r_UNI/2nd_SEMESTER/BSC/FRAG_RECON/RESULTS/2

> <s_m_Source_File>
000000058.mol2

> <i_m_Source_File_Index>
1

$$$$
No_0_61
                    3D
 Schrodinger Suite 2022-4.
 70 75  0  0  1  0            999 V2000
   -5.2880    3.7860  -21.7520 C   0  0  0  0  0  0
   -5.5690    3.9290  -23.0900 C   0  0  0  0  0  0
   -4.0490    3.5270  -21.4180 C   0  0  0  0  0  0
   -3.1860    3.5580  -23.5990 C   0  0  0  0  0  0
   -3.0090    3.3650  -22.1720 C   0  0  0  0  0  0
   -4.5360    3.8220  -24.1120 C   0  0  0  0  0  0
   -3.8110    3.7490  -26.3190 C   0  0  0  0  0  0
    5.9780    3.0640  -21.1580 C   0  0  0  0  0  0
    5.8060    3.1130  -23.7090 C   0  0  0  0  0  0
   -4.8040    3.9030  -25.4470 C   0  0  0  0  0  0
    2.0300    3.7180  -23.6970 C   0  0  0  0  0  0
    1.2300    4.8490  -23.4290 C   0  0  0  0  0  0
    3.0550    6.0420  -22.8190 C   0  0  0  0  0  0
    3.4370    3.8990  -23.4100 C   0  0  0  0  0  0
    1.4580    2.5850  -24.3080 C   0  0  0  0  0  0
   -0.6550    3.4340  -24.2010 C   0  0  0  0  0  0
   -0.1020    4.6680  -23.6550 C   0  0  0  0  0  0
   -2.1130    3.4500  -24.5360 C   0  0  0  0  0  0
    4.0100    1.4040  -23.0320 C   0  0  0  0  0  0
    4.9540    1.0780  -21.8850 C   0  0  2  0  0  0
    6.5620    2.5720  -22.5000 C   0  0  2  0  0  0
    4.9670    2.1220  -20.7560 C   0  0  0  0  0  0
   -2.4550    3.5600  -25.9640 C   0  0  0  0  0  0
   -1.6630    2.9540  -21.5760 C   0  0  0  0  0  0
   -0.6310    2.6100  -21.0710 C   0  0  0  0  0  0
   -0.9240    5.7380  -23.3390 F   0  0  0  0  0  0
   -3.8230    3.3340  -20.0310 F   0  0  0  0  0  0
    1.7310    6.0200  -22.9480 N   0  0  0  0  0  0
    3.9340    5.0580  -23.0140 N   0  0  0  0  0  0
    0.1460    2.5040  -24.5930 N   0  0  0  0  0  0
    4.3370    2.8310  -23.5590 N   0  0  0  0  0  0
    6.3540    1.1050  -22.3880 N   0  0  1  0  0  0
   -4.0030    3.7140  -27.7060 O   0  0  0  0  0  0
   -6.0791    3.8894  -21.0181 H   0  0  0  0  0  0
   -6.5850    4.1266  -23.4120 H   0  0  0  0  0  0
    5.5198    4.0540  -21.2993 H   0  0  0  0  0  0
    6.7745    3.0913  -20.3998 H   0  0  0  0  0  0
    6.1813    2.6277  -24.6220 H   0  0  0  0  0  0
    5.9644    4.1989  -23.7847 H   0  0  0  0  0  0
   -5.8161    4.0898  -25.7874 H   0  0  0  0  0  0
    2.0809    1.7364  -24.5668 H   0  0  0  0  0  0
    2.9713    1.3768  -22.6710 H   0  0  0  0  0  0
    4.1504    0.6729  -23.8418 H   0  0  0  0  0  0
    4.7199    0.0840  -21.4763 H   0  0  0  0  0  0
    7.6333    2.8113  -22.5707 H   0  0  0  0  0  0
    3.9917    2.6293  -20.7187 H   0  0  0  0  0  0
    5.2719    1.6385  -19.8162 H   0  0  0  0  0  0
   -1.6962    3.4998  -26.7358 H   0  0  0  0  0  0
    0.2780    2.3070  -20.6270 H   0  0  0  0  0  0
    7.0038    0.6240  -21.6719 H   0  0  0  0  0  0
   -3.1654    3.5972  -28.1387 H   0  0  0  0  0  0
    7.9660   10.6230  -22.6190 F   0  0  0  0  0  0
    7.0350    8.5410  -20.9230 N   0  3  0  0  0  0
    5.6070    8.6370  -21.4020 C   0  0  0  0  0  0
    8.1030    8.3070  -21.9650 C   0  0  0  0  0  0
    3.6400    7.3890  -22.4090 C   0  0  0  0  0  0
    5.0940    7.2830  -21.9200 C   0  0  0  0  0  0
    8.0780    9.3280  -23.1200 C   0  0  0  0  0  0
    7.0990    7.8257  -20.2157 H   0  0  0  0  0  0
    7.2629    9.3696  -20.3962 H   0  0  0  0  0  0
    5.5390    9.3848  -22.2058 H   0  0  0  0  0  0
    4.9649    8.9790  -20.5769 H   0  0  0  0  0  0
    7.9961    7.2918  -22.3747 H   0  0  0  0  0  0
    9.0925    8.3230  -21.4848 H   0  0  0  0  0  0
    3.5910    8.0830  -23.2610 H   0  0  0  0  0  0
    3.0196    7.8313  -21.6155 H   0  0  0  0  0  0
    5.1570    6.5355  -21.1155 H   0  0  0  0  0  0
    5.7339    6.9411  -22.7468 H   0  0  0  0  0  0
    9.0046    9.2409  -23.7064 H   0  0  0  0  0  0
    7.2231    9.1160  -23.7789 H   0  0  0  0  0  0
  1  2  2  0  0  0
  1  3  1  0  0  0
  1 34  1  0  0  0
  2  6  1  0  0  0
  2 35  1  0  0  0
  3  5  2  0  0  0
  3 27  1  0  0  0
  4  5  1  0  0  0
  4  6  2  0  0  0
  4 18  1  0  0  0
  5 24  1  0  0  0
  6 10  1  0  0  0
  7 10  2  0  0  0
  7 23  1  0  0  0
  7 33  1  0  0  0
  8 21  1  0  0  0
  8 22  1  0  0  0
  8 36  1  0  0  0
  8 37  1  0  0  0
  9 21  1  0  0  0
  9 31  1  0  0  0
  9 38  1  0  0  0
  9 39  1  0  0  0
 10 40  1  0  0  0
 11 12  1  0  0  0
 11 14  2  0  0  0
 11 15  1  0  0  0
 12 17  1  0  0  0
 12 28  2  0  0  0
 13 28  1  0  0  0
 13 29  2  0  0  0
 13 56  1  0  0  0
 14 29  1  0  0  0
 14 31  1  0  0  0
 15 30  2  0  0  0
 15 41  1  0  0  0
 16 17  2  0  0  0
 16 18  1  0  0  0
 16 30  1  0  0  0
 17 26  1  0  0  0
 18 23  2  0  0  0
 19 20  1  0  0  0
 19 31  1  0  0  0
 19 42  1  0  0  0
 19 43  1  0  0  0
 20 22  1  0  0  0
 20 32  1  0  0  0
 20 44  1  0  0  0
 21 32  1  0  0  0
 21 45  1  0  0  0
 22 46  1  0  0  0
 22 47  1  0  0  0
 23 48  1  0  0  0
 24 25  3  0  0  0
 25 49  1  0  0  0
 32 50  1  0  0  0
 33 51  1  0  0  0
 52 58  1  0  0  0
 53 54  1  0  0  0
 53 55  1  0  0  0
 53 59  1  0  0  0
 53 60  1  0  0  0
 54 57  1  0  0  0
 54 61  1  0  0  0
 54 62  1  0  0  0
 55 58  1  0  0  0
 55 63  1  0  0  0
 55 64  1  0  0  0
 56 57  1  0  0  0
 56 65  1  0  0  0
 56 66  1  0  0  0
 57 67  1  0  0  0
 57 68  1  0  0  0
 58 69  1  0  0  0
 58 70  1  0  0  0
M  CHG  1  53   1
M  END
> <s_m_entry_id>
217

> <s_m_entry_name>
000000059.1

> <s_m_Source_Path>
/Users/zaksoul/Documents/3r_UNI/2nd_SEMESTER/BSC/FRAG_RECON/RESULTS/2

> <s_m_Source_File>
000000059.mol2

> <i_m_Source_File_Index>
1

$$$$
No_0_62
                    3D
 Schrodinger Suite 2022-4.
 69 74  0  0  1  0            999 V2000
   -5.1810    3.6090  -21.8530 C   0  0  0  0  0  0
   -5.4520    3.8050  -23.1860 C   0  0  0  0  0  0
   -3.9420    3.3510  -21.5190 C   0  0  0  0  0  0
   -3.0590    3.4860  -23.6870 C   0  0  0  0  0  0
   -2.8930    3.2340  -22.2690 C   0  0  0  0  0  0
   -4.4090    3.7540  -24.2010 C   0  0  0  0  0  0
   -3.6630    3.7850  -26.4030 C   0  0  0  0  0  0
    6.0870    3.0010  -21.1820 C   0  0  0  0  0  0
    5.9380    3.1560  -23.7310 C   0  0  0  0  0  0
   -4.6650    3.8890  -25.5350 C   0  0  0  0  0  0
    2.1540    3.7130  -23.7290 C   0  0  0  0  0  0
    1.3370    4.8230  -23.4210 C   0  0  0  0  0  0
    3.1410    6.0110  -22.7430 C   0  0  0  0  0  0
    3.5570    3.8990  -23.4210 C   0  0  0  0  0  0
    1.6030    2.6010  -24.3930 C   0  0  0  0  0  0
   -0.5220    3.4190  -24.2700 C   0  0  0  0  0  0
    0.0100    4.6350  -23.6670 C   0  0  0  0  0  0
   -1.9770    3.4300  -24.6180 C   0  0  0  0  0  0
    4.1570    1.3990  -23.1440 C   0  0  0  0  0  0
    5.0950    1.0350  -22.0030 C   0  0  2  0  0  0
    6.6890    2.5740  -22.5390 C   0  0  2  0  0  0
    5.0840    2.0310  -20.8310 C   0  0  0  0  0  0
   -2.3080    3.5970  -26.0440 C   0  0  0  0  0  0
   -1.5470    2.8150  -21.6780 C   0  0  0  0  0  0
   -0.5150    2.4620  -21.1780 C   0  0  0  0  0  0
   -0.8280    5.6800  -23.3140 F   0  0  0  0  0  0
   -3.7260    3.1020  -20.1390 F   0  0  0  0  0  0
    1.8200    5.9780  -22.8860 N   0  0  0  0  0  0
    4.0350    5.0470  -22.9720 N   0  0  0  0  0  0
    0.2950    2.5160  -24.6930 N   0  0  0  0  0  0
    4.4710    2.8500  -23.6070 N   0  0  0  0  0  0
    6.5000    1.1010  -22.4910 N   0  0  1  0  0  0
   -3.8410    3.8060  -27.7920 O   0  0  0  0  0  0
   -5.9796    3.6712  -21.1226 H   0  0  0  0  0  0
   -6.4675    4.0037  -23.5091 H   0  0  0  0  0  0
    5.6179    3.9906  -21.2849 H   0  0  0  0  0  0
    6.8763    3.0060  -20.4159 H   0  0  0  0  0  0
    6.3275    2.7150  -24.6604 H   0  0  0  0  0  0
    6.0833    4.2460  -23.7593 H   0  0  0  0  0  0
   -5.6765    4.0776  -25.8762 H   0  0  0  0  0  0
    2.2385    1.7718  -24.6821 H   0  0  0  0  0  0
    3.1157    1.3435  -22.7939 H   0  0  0  0  0  0
    4.3144    0.7047  -23.9826 H   0  0  0  0  0  0
    4.8700    0.0218  -21.6387 H   0  0  0  0  0  0
    7.7578    2.8293  -22.5885 H   0  0  0  0  0  0
    4.1018    2.5236  -20.7805 H   0  0  0  0  0  0
    5.3877    1.5123  -19.9097 H   0  0  0  0  0  0
   -1.5411    3.5789  -26.8099 H   0  0  0  0  0  0
    0.3934    2.1519  -20.7378 H   0  0  0  0  0  0
    7.1492    0.5983  -21.7894 H   0  0  0  0  0  0
   -2.9984    3.7179  -28.2217 H   0  0  0  0  0  0
    8.4260   10.6810  -20.7710 O   0  5  0  0  0  0
    9.3200    9.7140  -22.6350 O   0  0  0  0  0  0
    6.0930    9.2960  -21.3480 N   0  3  0  0  0  0
    5.1600    8.4840  -20.4940 C   0  0  0  0  0  0
    3.7060    7.3460  -22.2710 C   0  0  0  0  0  0
    4.7560    7.1590  -21.1590 C   0  0  0  0  0  0
    7.4450    8.6800  -21.5980 C   0  0  0  0  0  0
    8.4760    9.7750  -21.6750 C   0  0  0  0  0  0
    6.2140   10.2080  -20.9360 H   0  0  0  0  0  0
    5.6490    9.4940  -22.2310 H   0  0  0  0  0  0
    4.2572    9.0739  -20.2771 H   0  0  0  0  0  0
    5.6379    8.2770  -19.5251 H   0  0  0  0  0  0
    4.1641    7.8711  -23.1221 H   0  0  0  0  0  0
    2.8872    7.9788  -21.8981 H   0  0  0  0  0  0
    4.3613    6.4725  -20.3955 H   0  0  0  0  0  0
    5.6493    6.6728  -21.5781 H   0  0  0  0  0  0
    7.4250    8.1279  -22.5492 H   0  0  0  0  0  0
    7.6950    7.9980  -20.7720 H   0  0  0  0  0  0
  1  2  2  0  0  0
  1  3  1  0  0  0
  1 34  1  0  0  0
  2  6  1  0  0  0
  2 35  1  0  0  0
  3  5  2  0  0  0
  3 27  1  0  0  0
  4  5  1  0  0  0
  4  6  2  0  0  0
  4 18  1  0  0  0
  5 24  1  0  0  0
  6 10  1  0  0  0
  7 10  2  0  0  0
  7 23  1  0  0  0
  7 33  1  0  0  0
  8 21  1  0  0  0
  8 22  1  0  0  0
  8 36  1  0  0  0
  8 37  1  0  0  0
  9 21  1  0  0  0
  9 31  1  0  0  0
  9 38  1  0  0  0
  9 39  1  0  0  0
 10 40  1  0  0  0
 11 12  1  0  0  0
 11 14  2  0  0  0
 11 15  1  0  0  0
 12 17  1  0  0  0
 12 28  2  0  0  0
 13 28  1  0  0  0
 13 29  2  0  0  0
 13 56  1  0  0  0
 14 29  1  0  0  0
 14 31  1  0  0  0
 15 30  2  0  0  0
 15 41  1  0  0  0
 16 17  2  0  0  0
 16 18  1  0  0  0
 16 30  1  0  0  0
 17 26  1  0  0  0
 18 23  2  0  0  0
 19 20  1  0  0  0
 19 31  1  0  0  0
 19 42  1  0  0  0
 19 43  1  0  0  0
 20 22  1  0  0  0
 20 32  1  0  0  0
 20 44  1  0  0  0
 21 32  1  0  0  0
 21 45  1  0  0  0
 22 46  1  0  0  0
 22 47  1  0  0  0
 23 48  1  0  0  0
 24 25  3  0  0  0
 25 49  1  0  0  0
 32 50  1  0  0  0
 33 51  1  0  0  0
 52 59  1  0  0  0
 53 59  2  0  0  0
 54 55  1  0  0  0
 54 58  1  0  0  0
 54 60  1  0  0  0
 54 61  1  0  0  0
 55 57  1  0  0  0
 55 62  1  0  0  0
 55 63  1  0  0  0
 56 57  1  0  0  0
 56 64  1  0  0  0
 56 65  1  0  0  0
 57 66  1  0  0  0
 57 67  1  0  0  0
 58 59  1  0  0  0
 58 68  1  0  0  0
 58 69  1  0  0  0
M  CHG  2  52  -1  54   1
M  END
> <s_m_entry_id>
218

> <s_m_entry_name>
000000060.1

> <s_m_Source_Path>
/Users/zaksoul/Documents/3r_UNI/2nd_SEMESTER/BSC/FRAG_RECON/RESULTS/2

> <s_m_Source_File>
000000060.mol2

> <i_m_Source_File_Index>
1

$$$$
No_0_63
                    3D
 Schrodinger Suite 2022-4.
 69 74  0  0  1  0            999 V2000
   -5.1810    3.6090  -21.8530 C   0  0  0  0  0  0
   -5.4520    3.8050  -23.1860 C   0  0  0  0  0  0
   -3.9420    3.3510  -21.5190 C   0  0  0  0  0  0
   -3.0590    3.4860  -23.6870 C   0  0  0  0  0  0
   -2.8930    3.2340  -22.2690 C   0  0  0  0  0  0
   -4.4090    3.7540  -24.2010 C   0  0  0  0  0  0
   -3.6630    3.7850  -26.4030 C   0  0  0  0  0  0
    6.0870    3.0010  -21.1820 C   0  0  0  0  0  0
    5.9380    3.1560  -23.7310 C   0  0  0  0  0  0
   -4.6650    3.8890  -25.5350 C   0  0  0  0  0  0
    2.1540    3.7130  -23.7290 C   0  0  0  0  0  0
    1.3370    4.8230  -23.4210 C   0  0  0  0  0  0
    3.1410    6.0110  -22.7430 C   0  0  0  0  0  0
    3.5570    3.8990  -23.4210 C   0  0  0  0  0  0
    1.6030    2.6010  -24.3930 C   0  0  0  0  0  0
   -0.5220    3.4190  -24.2700 C   0  0  0  0  0  0
    0.0100    4.6350  -23.6670 C   0  0  0  0  0  0
   -1.9770    3.4300  -24.6180 C   0  0  0  0  0  0
    4.1570    1.3990  -23.1440 C   0  0  0  0  0  0
    5.0950    1.0350  -22.0030 C   0  0  2  0  0  0
    6.6890    2.5740  -22.5390 C   0  0  2  0  0  0
    5.0840    2.0310  -20.8310 C   0  0  0  0  0  0
   -2.3080    3.5970  -26.0440 C   0  0  0  0  0  0
   -1.5470    2.8150  -21.6780 C   0  0  0  0  0  0
   -0.5150    2.4620  -21.1780 C   0  0  0  0  0  0
   -0.8280    5.6800  -23.3140 F   0  0  0  0  0  0
   -3.7260    3.1020  -20.1390 F   0  0  0  0  0  0
    1.8200    5.9780  -22.8860 N   0  0  0  0  0  0
    4.0350    5.0470  -22.9720 N   0  0  0  0  0  0
    0.2950    2.5160  -24.6930 N   0  0  0  0  0  0
    4.4710    2.8500  -23.6070 N   0  0  0  0  0  0
    6.5000    1.1010  -22.4910 N   0  0  1  0  0  0
   -3.8410    3.8060  -27.7920 O   0  0  0  0  0  0
   -5.9796    3.6712  -21.1226 H   0  0  0  0  0  0
   -6.4675    4.0037  -23.5091 H   0  0  0  0  0  0
    5.6179    3.9906  -21.2849 H   0  0  0  0  0  0
    6.8763    3.0060  -20.4159 H   0  0  0  0  0  0
    6.3275    2.7150  -24.6604 H   0  0  0  0  0  0
    6.0833    4.2460  -23.7593 H   0  0  0  0  0  0
   -5.6765    4.0776  -25.8762 H   0  0  0  0  0  0
    2.2385    1.7718  -24.6821 H   0  0  0  0  0  0
    3.1157    1.3435  -22.7939 H   0  0  0  0  0  0
    4.3144    0.7047  -23.9826 H   0  0  0  0  0  0
    4.8700    0.0218  -21.6387 H   0  0  0  0  0  0
    7.7578    2.8293  -22.5885 H   0  0  0  0  0  0
    4.1018    2.5236  -20.7805 H   0  0  0  0  0  0
    5.3877    1.5123  -19.9097 H   0  0  0  0  0  0
   -1.5411    3.5789  -26.8099 H   0  0  0  0  0  0
    0.3934    2.1519  -20.7378 H   0  0  0  0  0  0
    7.1492    0.5983  -21.7894 H   0  0  0  0  0  0
   -2.9984    3.7179  -28.2217 H   0  0  0  0  0  0
    8.4030   10.9540  -21.5180 O   0  5  0  0  0  0
    8.9070   10.2390  -23.6260 O   0  0  0  0  0  0
    6.1010    9.4180  -21.7040 N   0  3  0  0  0  0
    5.4480    8.4540  -20.7530 C   0  0  0  0  0  0
    3.7060    7.3460  -22.2710 C   0  0  0  0  0  0
    4.9940    7.1600  -21.4470 C   0  0  0  0  0  0
    7.3980    8.9520  -22.3120 C   0  0  0  0  0  0
    8.3050   10.1390  -22.5010 C   0  0  0  0  0  0
    6.2509   10.2977  -21.2352 H   0  0  0  0  0  0
    5.4529    9.6510  -22.4401 H   0  0  0  0  0  0
    4.5816    8.9382  -20.2788 H   0  0  0  0  0  0
    6.1502    8.2079  -19.9428 H   0  0  0  0  0  0
    3.9189    7.9826  -23.1425 H   0  0  0  0  0  0
    2.9532    7.8669  -21.6611 H   0  0  0  0  0  0
    4.8340    6.3771  -20.6911 H   0  0  0  0  0  0
    5.7985    6.7952  -22.1026 H   0  0  0  0  0  0
    7.1979    8.4848  -23.2875 H   0  0  0  0  0  0
    7.8779    8.2271  -21.6381 H   0  0  0  0  0  0
  1  2  2  0  0  0
  1  3  1  0  0  0
  1 34  1  0  0  0
  2  6  1  0  0  0
  2 35  1  0  0  0
  3  5  2  0  0  0
  3 27  1  0  0  0
  4  5  1  0  0  0
  4  6  2  0  0  0
  4 18  1  0  0  0
  5 24  1  0  0  0
  6 10  1  0  0  0
  7 10  2  0  0  0
  7 23  1  0  0  0
  7 33  1  0  0  0
  8 21  1  0  0  0
  8 22  1  0  0  0
  8 36  1  0  0  0
  8 37  1  0  0  0
  9 21  1  0  0  0
  9 31  1  0  0  0
  9 38  1  0  0  0
  9 39  1  0  0  0
 10 40  1  0  0  0
 11 12  1  0  0  0
 11 14  2  0  0  0
 11 15  1  0  0  0
 12 17  1  0  0  0
 12 28  2  0  0  0
 13 28  1  0  0  0
 13 29  2  0  0  0
 13 56  1  0  0  0
 14 29  1  0  0  0
 14 31  1  0  0  0
 15 30  2  0  0  0
 15 41  1  0  0  0
 16 17  2  0  0  0
 16 18  1  0  0  0
 16 30  1  0  0  0
 17 26  1  0  0  0
 18 23  2  0  0  0
 19 20  1  0  0  0
 19 31  1  0  0  0
 19 42  1  0  0  0
 19 43  1  0  0  0
 20 22  1  0  0  0
 20 32  1  0  0  0
 20 44  1  0  0  0
 21 32  1  0  0  0
 21 45  1  0  0  0
 22 46  1  0  0  0
 22 47  1  0  0  0
 23 48  1  0  0  0
 24 25  3  0  0  0
 25 49  1  0  0  0
 32 50  1  0  0  0
 33 51  1  0  0  0
 52 59  1  0  0  0
 53 59  2  0  0  0
 54 55  1  0  0  0
 54 58  1  0  0  0
 54 60  1  0  0  0
 54 61  1  0  0  0
 55 57  1  0  0  0
 55 62  1  0  0  0
 55 63  1  0  0  0
 56 57  1  0  0  0
 56 64  1  0  0  0
 56 65  1  0  0  0
 57 66  1  0  0  0
 57 67  1  0  0  0
 58 59  1  0  0  0
 58 68  1  0  0  0
 58 69  1  0  0  0
M  CHG  2  52  -1  54   1
M  END
> <s_m_entry_id>
219

> <s_m_entry_name>
000000061.1

> <s_m_Source_Path>
/Users/zaksoul/Documents/3r_UNI/2nd_SEMESTER/BSC/FRAG_RECON/RESULTS/2

> <s_m_Source_File>
000000061.mol2

> <i_m_Source_File_Index>
1

$$$$
No_0_64
                    3D
 Schrodinger Suite 2022-4.
 71 77  0  0  1  0            999 V2000
   -5.1280    3.7580  -21.9840 C   0  0  0  0  0  0
   -5.4160    3.9480  -23.3150 C   0  0  0  0  0  0
   -3.8860    3.4960  -21.6650 C   0  0  0  0  0  0
   -3.0310    3.6160  -23.8450 C   0  0  0  0  0  0
   -2.8480    3.3700  -22.4280 C   0  0  0  0  0  0
   -4.3860    3.8880  -24.3430 C   0  0  0  0  0  0
   -3.6680    3.9030  -26.5540 C   0  0  0  0  0  0
    6.1440    3.1020  -21.4560 C   0  0  0  0  0  0
    5.9630    3.2440  -24.0030 C   0  0  0  0  0  0
   -4.6590    4.0160  -25.6740 C   0  0  0  0  0  0
    2.1820    3.8190  -23.9550 C   0  0  0  0  0  0
    1.3750    4.9330  -23.6430 C   0  0  0  0  0  0
    3.1930    6.1160  -22.9940 C   0  0  0  0  0  0
    3.5890    4.0000  -23.6660 C   0  0  0  0  0  0
    1.6170    2.7050  -24.6070 C   0  0  0  0  0  0
   -0.5020    3.5340  -24.4600 C   0  0  0  0  0  0
    0.0430    4.7510  -23.8710 C   0  0  0  0  0  0
   -1.9610    3.5500  -24.7890 C   0  0  0  0  0  0
    4.1820    1.4980  -23.3840 C   0  0  0  0  0  0
    5.1330    1.1360  -22.2530 C   0  0  2  0  0  0
    6.7270    2.6650  -22.8180 C   0  0  2  0  0  0
    5.1420    2.1380  -21.0870 C   0  0  0  0  0  0
   -2.3100    3.7120  -26.2120 C   0  0  0  0  0  0
   -1.4970    2.9480  -21.8520 C   0  0  0  0  0  0
   -0.4600    2.5930  -21.3640 C   0  0  0  0  0  0
   -0.7850    5.8020  -23.5120 F   0  0  0  0  0  0
   -3.6540    3.2530  -20.2860 F   0  0  0  0  0  0
    1.8690    6.0890  -23.1200 N   0  0  0  0  0  0
    4.0780    5.1470  -23.2290 N   0  0  0  0  0  0
    0.3050    2.6250  -24.8890 N   0  0  0  0  0  0
    4.4970    2.9450  -23.8590 N   0  0  0  0  0  0
    6.5310    1.1930  -22.7600 N   0  0  1  0  0  0
   -3.8650    3.9190  -27.9410 O   0  0  0  0  0  0
   -5.9171    3.8273  -21.2441 H   0  0  0  0  0  0
   -6.4344    4.1507  -23.6261 H   0  0  0  0  0  0
    5.6786    4.0934  -21.5580 H   0  0  0  0  0  0
    6.9432    3.1070  -20.7002 H   0  0  0  0  0  0
    6.3387    2.7966  -24.9351 H   0  0  0  0  0  0
    6.1134    4.3331  -24.0383 H   0  0  0  0  0  0
   -5.6737    4.2087  -26.0032 H   0  0  0  0  0  0
    2.2456    1.8716  -24.8992 H   0  0  0  0  0  0
    3.1449    1.4486  -23.0208 H   0  0  0  0  0  0
    4.3253    0.7985  -24.2208 H   0  0  0  0  0  0
    4.9079    0.1257  -21.8806 H   0  0  0  0  0  0
    7.7965    2.9142  -22.8826 H   0  0  0  0  0  0
    4.1629    2.6356  -21.0264 H   0  0  0  0  0  0
    5.4547    1.6225  -20.1670 H   0  0  0  0  0  0
   -1.5533    3.6859  -26.9878 H   0  0  0  0  0  0
    0.4525    2.2802  -20.9343 H   0  0  0  0  0  0
    7.1875    0.6905  -22.0651 H   0  0  0  0  0  0
   -3.0279    3.8250  -28.3803 H   0  0  0  0  0  0
    6.4470    8.9580  -21.3930 N   0  3  0  0  0  0
    7.1190   10.2220  -20.9530 C   0  0  0  0  0  0
    7.5670    8.0460  -20.9960 C   0  0  0  0  0  0
    5.1160    8.6950  -20.7380 C   0  0  0  0  0  0
    8.3200    9.3270  -20.5740 C   0  0  0  0  0  0
    4.4830    7.3580  -21.1730 C   0  0  0  0  0  0
    3.7700    7.4520  -22.5360 C   0  0  0  0  0  0
    6.3421    8.9570  -22.3955 H   0  0  0  0  0  0
    6.6397   10.5312  -20.0124 H   0  0  0  0  0  0
    7.4018   10.7695  -21.8642 H   0  0  0  0  0  0
    8.0357    7.6902  -21.9254 H   0  0  0  0  0  0
    7.2559    7.5369  -20.0718 H   0  0  0  0  0  0
    4.4247    9.5183  -20.9711 H   0  0  0  0  0  0
    5.2380    8.7020  -19.6448 H   0  0  0  0  0  0
    8.4110    9.3240  -19.4778 H   0  0  0  0  0  0
    9.1230    9.5070  -21.3040 H   0  0  0  0  0  0
    3.7669    7.0259  -20.4069 H   0  0  0  0  0  0
    5.2626    6.5834  -21.2210 H   0  0  0  0  0  0
    4.4750    7.8240  -23.2940 H   0  0  0  0  0  0
    2.9630    8.1970  -22.4760 H   0  0  0  0  0  0
  1  2  2  0  0  0
  1  3  1  0  0  0
  1 34  1  0  0  0
  2  6  1  0  0  0
  2 35  1  0  0  0
  3  5  2  0  0  0
  3 27  1  0  0  0
  4  5  1  0  0  0
  4  6  2  0  0  0
  4 18  1  0  0  0
  5 24  1  0  0  0
  6 10  1  0  0  0
  7 10  2  0  0  0
  7 23  1  0  0  0
  7 33  1  0  0  0
  8 21  1  0  0  0
  8 22  1  0  0  0
  8 36  1  0  0  0
  8 37  1  0  0  0
  9 21  1  0  0  0
  9 31  1  0  0  0
  9 38  1  0  0  0
  9 39  1  0  0  0
 10 40  1  0  0  0
 11 12  1  0  0  0
 11 14  2  0  0  0
 11 15  1  0  0  0
 12 17  1  0  0  0
 12 28  2  0  0  0
 13 28  1  0  0  0
 13 29  2  0  0  0
 13 58  1  0  0  0
 14 29  1  0  0  0
 14 31  1  0  0  0
 15 30  2  0  0  0
 15 41  1  0  0  0
 16 17  2  0  0  0
 16 18  1  0  0  0
 16 30  1  0  0  0
 17 26  1  0  0  0
 18 23  2  0  0  0
 19 20  1  0  0  0
 19 31  1  0  0  0
 19 42  1  0  0  0
 19 43  1  0  0  0
 20 22  1  0  0  0
 20 32  1  0  0  0
 20 44  1  0  0  0
 21 32  1  0  0  0
 21 45  1  0  0  0
 22 46  1  0  0  0
 22 47  1  0  0  0
 23 48  1  0  0  0
 24 25  3  0  0  0
 25 49  1  0  0  0
 32 50  1  0  0  0
 33 51  1  0  0  0
 52 53  1  0  0  0
 52 54  1  0  0  0
 52 55  1  0  0  0
 52 59  1  0  0  0
 53 56  1  0  0  0
 53 60  1  0  0  0
 53 61  1  0  0  0
 54 56  1  0  0  0
 54 62  1  0  0  0
 54 63  1  0  0  0
 55 57  1  0  0  0
 55 64  1  0  0  0
 55 65  1  0  0  0
 56 66  1  0  0  0
 56 67  1  0  0  0
 57 58  1  0  0  0
 57 68  1  0  0  0
 57 69  1  0  0  0
 58 70  1  0  0  0
 58 71  1  0  0  0
M  CHG  1  52   1
M  END
> <s_m_entry_id>
220

> <s_m_entry_name>
000000062.1

> <s_m_Source_Path>
/Users/zaksoul/Documents/3r_UNI/2nd_SEMESTER/BSC/FRAG_RECON/RESULTS/2

> <s_m_Source_File>
000000062.mol2

> <i_m_Source_File_Index>
1

$$$$
No_0_65
                    3D
 Schrodinger Suite 2022-4.
 71 77  0  0  1  0            999 V2000
   -5.1810    3.6090  -21.8530 C   0  0  0  0  0  0
   -5.4520    3.8050  -23.1860 C   0  0  0  0  0  0
   -3.9420    3.3510  -21.5190 C   0  0  0  0  0  0
   -3.0590    3.4860  -23.6870 C   0  0  0  0  0  0
   -2.8930    3.2340  -22.2690 C   0  0  0  0  0  0
   -4.4090    3.7540  -24.2010 C   0  0  0  0  0  0
   -3.6630    3.7850  -26.4030 C   0  0  0  0  0  0
    6.0870    3.0010  -21.1820 C   0  0  0  0  0  0
    5.9380    3.1560  -23.7310 C   0  0  0  0  0  0
   -4.6650    3.8890  -25.5350 C   0  0  0  0  0  0
    2.1540    3.7130  -23.7290 C   0  0  0  0  0  0
    1.3370    4.8230  -23.4210 C   0  0  0  0  0  0
    3.1410    6.0110  -22.7430 C   0  0  0  0  0  0
    3.5570    3.8990  -23.4210 C   0  0  0  0  0  0
    1.6030    2.6010  -24.3930 C   0  0  0  0  0  0
   -0.5220    3.4190  -24.2700 C   0  0  0  0  0  0
    0.0100    4.6350  -23.6670 C   0  0  0  0  0  0
   -1.9770    3.4300  -24.6180 C   0  0  0  0  0  0
    4.1570    1.3990  -23.1440 C   0  0  0  0  0  0
    5.0950    1.0350  -22.0030 C   0  0  2  0  0  0
    6.6890    2.5740  -22.5390 C   0  0  2  0  0  0
    5.0840    2.0310  -20.8310 C   0  0  0  0  0  0
   -2.3080    3.5970  -26.0440 C   0  0  0  0  0  0
   -1.5470    2.8150  -21.6780 C   0  0  0  0  0  0
   -0.5150    2.4620  -21.1780 C   0  0  0  0  0  0
   -0.8280    5.6800  -23.3140 F   0  0  0  0  0  0
   -3.7260    3.1020  -20.1390 F   0  0  0  0  0  0
    1.8200    5.9780  -22.8860 N   0  0  0  0  0  0
    4.0350    5.0470  -22.9720 N   0  0  0  0  0  0
    0.2950    2.5160  -24.6930 N   0  0  0  0  0  0
    4.4710    2.8500  -23.6070 N   0  0  0  0  0  0
    6.5000    1.1010  -22.4910 N   0  0  1  0  0  0
   -3.8410    3.8060  -27.7920 O   0  0  0  0  0  0
   -5.9796    3.6712  -21.1226 H   0  0  0  0  0  0
   -6.4675    4.0037  -23.5091 H   0  0  0  0  0  0
    5.6179    3.9906  -21.2849 H   0  0  0  0  0  0
    6.8763    3.0060  -20.4159 H   0  0  0  0  0  0
    6.3275    2.7150  -24.6604 H   0  0  0  0  0  0
    6.0833    4.2460  -23.7593 H   0  0  0  0  0  0
   -5.6765    4.0776  -25.8762 H   0  0  0  0  0  0
    2.2385    1.7718  -24.6821 H   0  0  0  0  0  0
    3.1157    1.3435  -22.7939 H   0  0  0  0  0  0
    4.3144    0.7047  -23.9826 H   0  0  0  0  0  0
    4.8700    0.0218  -21.6387 H   0  0  0  0  0  0
    7.7578    2.8293  -22.5885 H   0  0  0  0  0  0
    4.1018    2.5236  -20.7805 H   0  0  0  0  0  0
    5.3877    1.5123  -19.9097 H   0  0  0  0  0  0
   -1.5411    3.5789  -26.8099 H   0  0  0  0  0  0
    0.3934    2.1519  -20.7378 H   0  0  0  0  0  0
    7.1492    0.5983  -21.7894 H   0  0  0  0  0  0
   -2.9984    3.7179  -28.2217 H   0  0  0  0  0  0
    6.4560    9.0180  -21.6490 N   0  3  0  0  0  0
    7.1140   10.2960  -21.2280 C   0  0  0  0  0  0
    7.7130    8.2020  -21.6730 C   0  0  0  0  0  0
    5.3720    8.5340  -20.7210 C   0  0  0  0  0  0
    8.4420    9.5090  -21.2870 C   0  0  0  0  0  0
    4.7600    7.1890  -21.1570 C   0  0  0  0  0  0
    3.7060    7.3460  -22.2710 C   0  0  0  0  0  0
    6.0907    9.1131  -22.5837 H   0  0  0  0  0  0
    6.8761   10.4440  -20.1643 H   0  0  0  0  0  0
    7.0990   10.9672  -22.0993 H   0  0  0  0  0  0
    7.9469    8.0051  -22.7296 H   0  0  0  0  0  0
    7.7000    7.5647  -20.7765 H   0  0  0  0  0  0
    4.5786    9.2934  -20.6590 H   0  0  0  0  0  0
    5.7779    8.4380  -19.7032 H   0  0  0  0  0  0
    8.8188    9.3981  -20.2595 H   0  0  0  0  0  0
    9.0060    9.8570  -22.1650 H   0  0  0  0  0  0
    4.3011    6.6961  -20.2872 H   0  0  0  0  0  0
    5.5605    6.5184  -21.5028 H   0  0  0  0  0  0
    4.1530    7.8760  -23.1250 H   0  0  0  0  0  0
    2.8850    7.9830  -21.9100 H   0  0  0  0  0  0
  1  2  2  0  0  0
  1  3  1  0  0  0
  1 34  1  0  0  0
  2  6  1  0  0  0
  2 35  1  0  0  0
  3  5  2  0  0  0
  3 27  1  0  0  0
  4  5  1  0  0  0
  4  6  2  0  0  0
  4 18  1  0  0  0
  5 24  1  0  0  0
  6 10  1  0  0  0
  7 10  2  0  0  0
  7 23  1  0  0  0
  7 33  1  0  0  0
  8 21  1  0  0  0
  8 22  1  0  0  0
  8 36  1  0  0  0
  8 37  1  0  0  0
  9 21  1  0  0  0
  9 31  1  0  0  0
  9 38  1  0  0  0
  9 39  1  0  0  0
 10 40  1  0  0  0
 11 12  1  0  0  0
 11 14  2  0  0  0
 11 15  1  0  0  0
 12 17  1  0  0  0
 12 28  2  0  0  0
 13 28  1  0  0  0
 13 29  2  0  0  0
 13 58  1  0  0  0
 14 29  1  0  0  0
 14 31  1  0  0  0
 15 30  2  0  0  0
 15 41  1  0  0  0
 16 17  2  0  0  0
 16 18  1  0  0  0
 16 30  1  0  0  0
 17 26  1  0  0  0
 18 23  2  0  0  0
 19 20  1  0  0  0
 19 31  1  0  0  0
 19 42  1  0  0  0
 19 43  1  0  0  0
 20 22  1  0  0  0
 20 32  1  0  0  0
 20 44  1  0  0  0
 21 32  1  0  0  0
 21 45  1  0  0  0
 22 46  1  0  0  0
 22 47  1  0  0  0
 23 48  1  0  0  0
 24 25  3  0  0  0
 25 49  1  0  0  0
 32 50  1  0  0  0
 33 51  1  0  0  0
 52 53  1  0  0  0
 52 54  1  0  0  0
 52 55  1  0  0  0
 52 59  1  0  0  0
 53 56  1  0  0  0
 53 60  1  0  0  0
 53 61  1  0  0  0
 54 56  1  0  0  0
 54 62  1  0  0  0
 54 63  1  0  0  0
 55 57  1  0  0  0
 55 64  1  0  0  0
 55 65  1  0  0  0
 56 66  1  0  0  0
 56 67  1  0  0  0
 57 58  1  0  0  0
 57 68  1  0  0  0
 57 69  1  0  0  0
 58 70  1  0  0  0
 58 71  1  0  0  0
M  CHG  1  52   1
M  END
> <s_m_entry_id>
221

> <s_m_entry_name>
000000063.1

> <s_m_Source_Path>
/Users/zaksoul/Documents/3r_UNI/2nd_SEMESTER/BSC/FRAG_RECON/RESULTS/2

> <s_m_Source_File>
000000063.mol2

> <i_m_Source_File_Index>
1

$$$$
No_0_66
                    3D
 Schrodinger Suite 2022-4.
 71 77  0  0  1  0            999 V2000
   -5.2900    3.6230  -21.9770 C   0  0  0  0  0  0
   -5.5500    3.8290  -23.3110 C   0  0  0  0  0  0
   -4.0550    3.3530  -21.6350 C   0  0  0  0  0  0
   -3.1560    3.4930  -23.7970 C   0  0  0  0  0  0
   -3.0020    3.2320  -22.3780 C   0  0  0  0  0  0
   -4.5000    3.7760  -24.3190 C   0  0  0  0  0  0
   -3.7380    3.8130  -26.5140 C   0  0  0  0  0  0
    5.9670    2.9200  -21.2290 C   0  0  0  0  0  0
    5.8380    3.0910  -23.7780 C   0  0  0  0  0  0
   -4.7460    3.9200  -25.6530 C   0  0  0  0  0  0
    2.0590    3.6790  -23.8000 C   0  0  0  0  0  0
    1.2490    4.7930  -23.4910 C   0  0  0  0  0  0
    3.0580    5.9620  -22.7930 C   0  0  0  0  0  0
    3.4610    3.8520  -23.4810 C   0  0  0  0  0  0
    1.5030    2.5750  -24.4740 C   0  0  0  0  0  0
   -0.6160    3.4090  -24.3610 C   0  0  0  0  0  0
   -0.0780    4.6180  -23.7480 C   0  0  0  0  0  0
   -2.0680    3.4350  -24.7200 C   0  0  0  0  0  0
    4.0390    1.3450  -23.2140 C   0  0  0  0  0  0
    4.9660    0.9670  -22.0680 C   0  0  2  0  0  0
    6.5760    2.4960  -22.5840 C   0  0  2  0  0  0
    4.9550    1.9560  -20.8910 C   0  0  0  0  0  0
   -2.3870    3.6130  -26.1470 C   0  0  0  0  0  0
   -1.6640    2.7980  -21.7810 C   0  0  0  0  0  0
   -0.6390    2.4340  -21.2760 C   0  0  0  0  0  0
   -0.9100    5.6680  -23.3940 F   0  0  0  0  0  0
   -3.8520    3.0940  -20.2550 F   0  0  0  0  0  0
    1.7370    5.9410  -22.9460 N   0  0  0  0  0  0
    3.9450    4.9930  -23.0210 N   0  0  0  0  0  0
    0.1970    2.5020  -24.7840 N   0  0  0  0  0  0
    4.3680    2.7960  -23.6660 N   0  0  0  0  0  0
    6.3740    1.0240  -22.5460 N   0  0  1  0  0  0
   -3.9060    3.8440  -27.9040 O   0  0  0  0  0  0
   -6.0933    3.6873  -21.2520 H   0  0  0  0  0  0
   -6.5615    4.0377  -23.6401 H   0  0  0  0  0  0
    5.5077    3.9144  -21.3300 H   0  0  0  0  0  0
    6.7513    2.9139  -20.4578 H   0  0  0  0  0  0
    6.2309    2.6526  -24.7072 H   0  0  0  0  0  0
    5.9924    4.1799  -23.7982 H   0  0  0  0  0  0
   -5.7532    4.1198  -26.0004 H   0  0  0  0  0  0
    2.1340    1.7423  -24.7629 H   0  0  0  0  0  0
    2.9947    1.2956  -22.8720 H   0  0  0  0  0  0
    4.1964    0.6540  -24.0553 H   0  0  0  0  0  0
    4.7298   -0.0465  -21.7117 H   0  0  0  0  0  0
    7.6471    2.7431  -22.6243 H   0  0  0  0  0  0
    3.9765    2.4564  -20.8446 H   0  0  0  0  0  0
    5.2467    1.4291  -19.9705 H   0  0  0  0  0  0
   -1.6151    3.5929  -26.9078 H   0  0  0  0  0  0
    0.2637    2.1141  -20.8311 H   0  0  0  0  0  0
    7.0146    0.5117  -21.8434 H   0  0  0  0  0  0
   -3.0611    3.7520  -28.3284 H   0  0  0  0  0  0
    6.3400    9.1230  -22.1130 N   0  3  0  0  0  0
    6.9950   10.4070  -21.7050 C   0  0  0  0  0  0
    7.6080    8.4230  -22.4970 C   0  0  0  0  0  0
    5.5220    8.4640  -21.0320 C   0  0  0  0  0  0
    8.3230    9.7440  -22.1350 C   0  0  0  0  0  0
    4.9130    7.1190  -21.4730 C   0  0  0  0  0  0
    3.6300    7.2910  -22.3090 C   0  0  0  0  0  0
    5.7704    9.2741  -22.9308 H   0  0  0  0  0  0
    6.9910   10.4340  -20.6053 H   0  0  0  0  0  0
    6.7449   11.1534  -22.4734 H   0  0  0  0  0  0
    7.6130    8.3460  -23.5943 H   0  0  0  0  0  0
    7.8350    7.7051  -21.6951 H   0  0  0  0  0  0
    4.7167    9.1443  -20.7179 H   0  0  0  0  0  0
    6.1502    8.3079  -20.1426 H   0  0  0  0  0  0
    8.9249    9.5690  -21.2311 H   0  0  0  0  0  0
    8.6540   10.2199  -23.0699 H   0  0  0  0  0  0
    4.6910    6.5101  -20.5842 H   0  0  0  0  0  0
    5.6560    6.5540  -22.0550 H   0  0  0  0  0  0
    3.8420    7.9351  -23.1751 H   0  0  0  0  0  0
    2.8719    7.8191  -21.7119 H   0  0  0  0  0  0
  1  2  2  0  0  0
  1  3  1  0  0  0
  1 34  1  0  0  0
  2  6  1  0  0  0
  2 35  1  0  0  0
  3  5  2  0  0  0
  3 27  1  0  0  0
  4  5  1  0  0  0
  4  6  2  0  0  0
  4 18  1  0  0  0
  5 24  1  0  0  0
  6 10  1  0  0  0
  7 10  2  0  0  0
  7 23  1  0  0  0
  7 33  1  0  0  0
  8 21  1  0  0  0
  8 22  1  0  0  0
  8 36  1  0  0  0
  8 37  1  0  0  0
  9 21  1  0  0  0
  9 31  1  0  0  0
  9 38  1  0  0  0
  9 39  1  0  0  0
 10 40  1  0  0  0
 11 12  1  0  0  0
 11 14  2  0  0  0
 11 15  1  0  0  0
 12 17  1  0  0  0
 12 28  2  0  0  0
 13 28  1  0  0  0
 13 29  2  0  0  0
 13 58  1  0  0  0
 14 29  1  0  0  0
 14 31  1  0  0  0
 15 30  2  0  0  0
 15 41  1  0  0  0
 16 17  2  0  0  0
 16 18  1  0  0  0
 16 30  1  0  0  0
 17 26  1  0  0  0
 18 23  2  0  0  0
 19 20  1  0  0  0
 19 31  1  0  0  0
 19 42  1  0  0  0
 19 43  1  0  0  0
 20 22  1  0  0  0
 20 32  1  0  0  0
 20 44  1  0  0  0
 21 32  1  0  0  0
 21 45  1  0  0  0
 22 46  1  0  0  0
 22 47  1  0  0  0
 23 48  1  0  0  0
 24 25  3  0  0  0
 25 49  1  0  0  0
 32 50  1  0  0  0
 33 51  1  0  0  0
 52 53  1  0  0  0
 52 54  1  0  0  0
 52 55  1  0  0  0
 52 59  1  0  0  0
 53 56  1  0  0  0
 53 60  1  0  0  0
 53 61  1  0  0  0
 54 56  1  0  0  0
 54 62  1  0  0  0
 54 63  1  0  0  0
 55 57  1  0  0  0
 55 64  1  0  0  0
 55 65  1  0  0  0
 56 66  1  0  0  0
 56 67  1  0  0  0
 57 58  1  0  0  0
 57 68  1  0  0  0
 57 69  1  0  0  0
 58 70  1  0  0  0
 58 71  1  0  0  0
M  CHG  1  52   1
M  END
> <s_m_entry_id>
222

> <s_m_entry_name>
000000064.1

> <s_m_Source_Path>
/Users/zaksoul/Documents/3r_UNI/2nd_SEMESTER/BSC/FRAG_RECON/RESULTS/2

> <s_m_Source_File>
000000064.mol2

> <i_m_Source_File_Index>
1

$$$$
No_0_67
                    3D
 Schrodinger Suite 2022-4.
 71 77  0  0  1  0            999 V2000
   -5.1810    3.6090  -21.8530 C   0  0  0  0  0  0
   -5.4520    3.8050  -23.1860 C   0  0  0  0  0  0
   -3.9420    3.3510  -21.5190 C   0  0  0  0  0  0
   -3.0590    3.4860  -23.6870 C   0  0  0  0  0  0
   -2.8930    3.2340  -22.2690 C   0  0  0  0  0  0
   -4.4090    3.7540  -24.2010 C   0  0  0  0  0  0
   -3.6630    3.7850  -26.4030 C   0  0  0  0  0  0
    6.0870    3.0010  -21.1820 C   0  0  0  0  0  0
    5.9380    3.1560  -23.7310 C   0  0  0  0  0  0
   -4.6650    3.8890  -25.5350 C   0  0  0  0  0  0
    2.1540    3.7130  -23.7290 C   0  0  0  0  0  0
    1.3370    4.8230  -23.4210 C   0  0  0  0  0  0
    3.1410    6.0110  -22.7430 C   0  0  0  0  0  0
    3.5570    3.8990  -23.4210 C   0  0  0  0  0  0
    1.6030    2.6010  -24.3930 C   0  0  0  0  0  0
   -0.5220    3.4190  -24.2700 C   0  0  0  0  0  0
    0.0100    4.6350  -23.6670 C   0  0  0  0  0  0
   -1.9770    3.4300  -24.6180 C   0  0  0  0  0  0
    4.1570    1.3990  -23.1440 C   0  0  0  0  0  0
    5.0950    1.0350  -22.0030 C   0  0  2  0  0  0
    6.6890    2.5740  -22.5390 C   0  0  2  0  0  0
    5.0840    2.0310  -20.8310 C   0  0  0  0  0  0
   -2.3080    3.5970  -26.0440 C   0  0  0  0  0  0
   -1.5470    2.8150  -21.6780 C   0  0  0  0  0  0
   -0.5150    2.4620  -21.1780 C   0  0  0  0  0  0
   -0.8280    5.6800  -23.3140 F   0  0  0  0  0  0
   -3.7260    3.1020  -20.1390 F   0  0  0  0  0  0
    1.8200    5.9780  -22.8860 N   0  0  0  0  0  0
    4.0350    5.0470  -22.9720 N   0  0  0  0  0  0
    0.2950    2.5160  -24.6930 N   0  0  0  0  0  0
    4.4710    2.8500  -23.6070 N   0  0  0  0  0  0
    6.5000    1.1010  -22.4910 N   0  0  1  0  0  0
   -3.8410    3.8060  -27.7920 O   0  0  0  0  0  0
   -5.9796    3.6712  -21.1226 H   0  0  0  0  0  0
   -6.4675    4.0037  -23.5091 H   0  0  0  0  0  0
    5.6179    3.9906  -21.2849 H   0  0  0  0  0  0
    6.8763    3.0060  -20.4159 H   0  0  0  0  0  0
    6.3275    2.7150  -24.6604 H   0  0  0  0  0  0
    6.0833    4.2460  -23.7593 H   0  0  0  0  0  0
   -5.6765    4.0776  -25.8762 H   0  0  0  0  0  0
    2.2385    1.7718  -24.6821 H   0  0  0  0  0  0
    3.1157    1.3435  -22.7939 H   0  0  0  0  0  0
    4.3144    0.7047  -23.9826 H   0  0  0  0  0  0
    4.8700    0.0218  -21.6387 H   0  0  0  0  0  0
    7.7578    2.8293  -22.5885 H   0  0  0  0  0  0
    4.1018    2.5236  -20.7805 H   0  0  0  0  0  0
    5.3877    1.5123  -19.9097 H   0  0  0  0  0  0
   -1.5411    3.5789  -26.8099 H   0  0  0  0  0  0
    0.3934    2.1519  -20.7378 H   0  0  0  0  0  0
    7.1492    0.5983  -21.7894 H   0  0  0  0  0  0
   -2.9984    3.7179  -28.2217 H   0  0  0  0  0  0
    6.2340    9.4190  -22.5160 N   0  3  0  0  0  0
    6.8650   10.7240  -22.1410 C   0  0  0  0  0  0
    7.4260    8.8810  -23.2490 C   0  0  0  0  0  0
    5.7500    8.5970  -21.3490 C   0  0  0  0  0  0
    8.1000   10.2340  -22.9280 C   0  0  0  0  0  0
    5.1610    7.2370  -21.7720 C   0  0  0  0  0  0
    3.7060    7.3460  -22.2710 C   0  0  0  0  0  0
    5.4767    9.5771  -23.1622 H   0  0  0  0  0  0
    7.1189   10.6620  -21.0725 H   0  0  0  0  0  0
    6.3818   11.5013  -22.7512 H   0  0  0  0  0  0
    7.1760    8.8930  -24.3201 H   0  0  0  0  0  0
    7.8913    8.1275  -22.5966 H   0  0  0  0  0  0
    4.9910    9.1660  -20.7920 H   0  0  0  0  0  0
    6.5814    8.4329  -20.6477 H   0  0  0  0  0  0
    8.9112   10.0479  -22.2088 H   0  0  0  0  0  0
    8.1620   10.8138  -23.8607 H   0  0  0  0  0  0
    5.2040    6.5390  -20.9229 H   0  0  0  0  0  0
    5.7863    6.7978  -22.5633 H   0  0  0  0  0  0
    3.6560    8.0757  -23.0926 H   0  0  0  0  0  0
    3.0729    7.7471  -21.4658 H   0  0  0  0  0  0
  1  2  2  0  0  0
  1  3  1  0  0  0
  1 34  1  0  0  0
  2  6  1  0  0  0
  2 35  1  0  0  0
  3  5  2  0  0  0
  3 27  1  0  0  0
  4  5  1  0  0  0
  4  6  2  0  0  0
  4 18  1  0  0  0
  5 24  1  0  0  0
  6 10  1  0  0  0
  7 10  2  0  0  0
  7 23  1  0  0  0
  7 33  1  0  0  0
  8 21  1  0  0  0
  8 22  1  0  0  0
  8 36  1  0  0  0
  8 37  1  0  0  0
  9 21  1  0  0  0
  9 31  1  0  0  0
  9 38  1  0  0  0
  9 39  1  0  0  0
 10 40  1  0  0  0
 11 12  1  0  0  0
 11 14  2  0  0  0
 11 15  1  0  0  0
 12 17  1  0  0  0
 12 28  2  0  0  0
 13 28  1  0  0  0
 13 29  2  0  0  0
 13 58  1  0  0  0
 14 29  1  0  0  0
 14 31  1  0  0  0
 15 30  2  0  0  0
 15 41  1  0  0  0
 16 17  2  0  0  0
 16 18  1  0  0  0
 16 30  1  0  0  0
 17 26  1  0  0  0
 18 23  2  0  0  0
 19 20  1  0  0  0
 19 31  1  0  0  0
 19 42  1  0  0  0
 19 43  1  0  0  0
 20 22  1  0  0  0
 20 32  1  0  0  0
 20 44  1  0  0  0
 21 32  1  0  0  0
 21 45  1  0  0  0
 22 46  1  0  0  0
 22 47  1  0  0  0
 23 48  1  0  0  0
 24 25  3  0  0  0
 25 49  1  0  0  0
 32 50  1  0  0  0
 33 51  1  0  0  0
 52 53  1  0  0  0
 52 54  1  0  0  0
 52 55  1  0  0  0
 52 59  1  0  0  0
 53 56  1  0  0  0
 53 60  1  0  0  0
 53 61  1  0  0  0
 54 56  1  0  0  0
 54 62  1  0  0  0
 54 63  1  0  0  0
 55 57  1  0  0  0
 55 64  1  0  0  0
 55 65  1  0  0  0
 56 66  1  0  0  0
 56 67  1  0  0  0
 57 58  1  0  0  0
 57 68  1  0  0  0
 57 69  1  0  0  0
 58 70  1  0  0  0
 58 71  1  0  0  0
M  CHG  1  52   1
M  END
> <s_m_entry_id>
223

> <s_m_entry_name>
000000065.1

> <s_m_Source_Path>
/Users/zaksoul/Documents/3r_UNI/2nd_SEMESTER/BSC/FRAG_RECON/RESULTS/2

> <s_m_Source_File>
000000065.mol2

> <i_m_Source_File_Index>
1

$$$$
No_0_68
                    3D
 Schrodinger Suite 2022-4.
 71 77  0  0  1  0            999 V2000
   -5.3530    3.8120  -21.7630 C   0  0  0  0  0  0
   -5.6390    3.9590  -23.1000 C   0  0  0  0  0  0
   -4.1160    3.5370  -21.4350 C   0  0  0  0  0  0
   -3.2630    3.5590  -23.6200 C   0  0  0  0  0  0
   -3.0820    3.3630  -22.1940 C   0  0  0  0  0  0
   -4.6120    3.8400  -24.1260 C   0  0  0  0  0  0
   -3.8980    3.7600  -26.3370 C   0  0  0  0  0  0
    5.9050    2.9480  -21.2220 C   0  0  0  0  0  0
    5.7220    3.0010  -23.7720 C   0  0  0  0  0  0
   -4.8850    3.9250  -25.4610 C   0  0  0  0  0  0
    1.9540    3.6530  -23.7420 C   0  0  0  0  0  0
    1.1690    4.7940  -23.4700 C   0  0  0  0  0  0
    3.0120    5.9630  -22.8670 C   0  0  0  0  0  0
    3.3650    3.8160  -23.4610 C   0  0  0  0  0  0
    1.3650    2.5280  -24.3520 C   0  0  0  0  0  0
   -0.7370    3.4040  -24.2330 C   0  0  0  0  0  0
   -0.1660    4.6300  -23.6900 C   0  0  0  0  0  0
   -2.1960    3.4380  -24.5620 C   0  0  0  0  0  0
    3.9070    1.3150  -23.0880 C   0  0  0  0  0  0
    4.8520    0.9750  -21.9450 C   0  0  2  0  0  0
    6.4760    2.4500  -22.5670 C   0  0  2  0  0  0
    4.8840    2.0190  -20.8160 C   0  0  0  0  0  0
   -2.5440    3.5540  -25.9890 C   0  0  0  0  0  0
   -1.7380    2.9340  -21.6050 C   0  0  0  0  0  0
   -0.7080    2.5770  -21.1050 C   0  0  0  0  0  0
   -0.9720    5.7100  -23.3690 F   0  0  0  0  0  0
   -3.8860    3.3400  -20.0490 F   0  0  0  0  0  0
    1.6880    5.9580  -22.9900 N   0  0  0  0  0  0
    3.8770    4.9690  -23.0670 N   0  0  0  0  0  0
    0.0510    2.4640  -24.6300 N   0  0  0  0  0  0
    4.2500    2.7370  -23.6160 N   0  0  0  0  0  0
    6.2510    0.9850  -22.4550 N   0  0  1  0  0  0
   -4.0970    3.7280  -27.7230 O   0  0  0  0  0  0
   -6.1391    3.9244  -21.0251 H   0  0  0  0  0  0
   -6.6539    4.1698  -23.4172 H   0  0  0  0  0  0
    5.4590    3.9440  -21.3602 H   0  0  0  0  0  0
    6.7056    2.9652  -20.4678 H   0  0  0  0  0  0
    6.0863    2.5116  -24.6873 H   0  0  0  0  0  0
    5.8936    4.0849  -23.8477 H   0  0  0  0  0  0
   -5.8965    4.1257  -25.7952 H   0  0  0  0  0  0
    1.9762    1.6719  -24.6139 H   0  0  0  0  0  0
    2.8700    1.2999  -22.7215 H   0  0  0  0  0  0
    4.0352    0.5823  -23.8984 H   0  0  0  0  0  0
    4.6077   -0.0165  -21.5361 H   0  0  0  0  0  0
    7.5501    2.6749  -22.6426 H   0  0  0  0  0  0
    3.9150    2.5378  -20.7736 H   0  0  0  0  0  0
    5.1879    1.5313  -19.8780 H   0  0  0  0  0  0
   -1.7892    3.4847  -26.7639 H   0  0  0  0  0  0
    0.1989    2.2620  -20.6651 H   0  0  0  0  0  0
    6.8977    0.4954  -21.7420 H   0  0  0  0  0  0
   -3.2627    3.6013  -28.1594 H   0  0  0  0  0  0
    6.5330    8.7710  -21.3160 N   0  3  0  0  0  0
    7.3420    9.7520  -20.5620 C   0  0  0  0  0  0
    7.6170    8.1880  -20.5000 C   0  0  0  0  0  0
    4.5180    7.2140  -21.2110 C   0  0  0  0  0  0
    5.1230    8.5800  -20.8200 C   0  0  0  0  0  0
    3.6160    7.3030  -22.4590 C   0  0  0  0  0  0
    6.7530    8.7480  -22.8040 C   0  0  0  0  0  0
    6.6990    9.8310  -19.6730 H   0  0  0  0  0  0
    8.0603   10.0031  -21.3563 H   0  0  0  0  0  0
    8.3894    8.1350  -21.2814 H   0  0  0  0  0  0
    7.0283    7.9631  -19.5984 H   0  0  0  0  0  0
    3.9350    6.8170  -20.3669 H   0  0  0  0  0  0
    5.3288    6.4942  -21.3969 H   0  0  0  0  0  0
    4.4853    9.3866  -21.2108 H   0  0  0  0  0  0
    5.1030    8.6880  -19.7255 H   0  0  0  0  0  0
    4.1953    7.7132  -23.2994 H   0  0  0  0  0  0
    2.8088    8.0272  -22.2749 H   0  0  0  0  0  0
    6.1041    7.9851  -23.2589 H   0  0  0  0  0  0
    6.5118    9.7347  -23.2263 H   0  0  0  0  0  0
    7.8051    8.5060  -23.0150 H   0  0  0  0  0  0
  1  2  2  0  0  0
  1  3  1  0  0  0
  1 34  1  0  0  0
  2  6  1  0  0  0
  2 35  1  0  0  0
  3  5  2  0  0  0
  3 27  1  0  0  0
  4  5  1  0  0  0
  4  6  2  0  0  0
  4 18  1  0  0  0
  5 24  1  0  0  0
  6 10  1  0  0  0
  7 10  2  0  0  0
  7 23  1  0  0  0
  7 33  1  0  0  0
  8 21  1  0  0  0
  8 22  1  0  0  0
  8 36  1  0  0  0
  8 37  1  0  0  0
  9 21  1  0  0  0
  9 31  1  0  0  0
  9 38  1  0  0  0
  9 39  1  0  0  0
 10 40  1  0  0  0
 11 12  1  0  0  0
 11 14  2  0  0  0
 11 15  1  0  0  0
 12 17  1  0  0  0
 12 28  2  0  0  0
 13 28  1  0  0  0
 13 29  2  0  0  0
 13 57  1  0  0  0
 14 29  1  0  0  0
 14 31  1  0  0  0
 15 30  2  0  0  0
 15 41  1  0  0  0
 16 17  2  0  0  0
 16 18  1  0  0  0
 16 30  1  0  0  0
 17 26  1  0  0  0
 18 23  2  0  0  0
 19 20  1  0  0  0
 19 31  1  0  0  0
 19 42  1  0  0  0
 19 43  1  0  0  0
 20 22  1  0  0  0
 20 32  1  0  0  0
 20 44  1  0  0  0
 21 32  1  0  0  0
 21 45  1  0  0  0
 22 46  1  0  0  0
 22 47  1  0  0  0
 23 48  1  0  0  0
 24 25  3  0  0  0
 25 49  1  0  0  0
 32 50  1  0  0  0
 33 51  1  0  0  0
 52 53  1  0  0  0
 52 54  1  0  0  0
 52 56  1  0  0  0
 52 58  1  0  0  0
 53 54  1  0  0  0
 53 59  1  0  0  0
 53 60  1  0  0  0
 54 61  1  0  0  0
 54 62  1  0  0  0
 55 56  1  0  0  0
 55 57  1  0  0  0
 55 63  1  0  0  0
 55 64  1  0  0  0
 56 65  1  0  0  0
 56 66  1  0  0  0
 57 67  1  0  0  0
 57 68  1  0  0  0
 58 69  1  0  0  0
 58 70  1  0  0  0
 58 71  1  0  0  0
M  CHG  1  52   1
M  END
> <s_m_entry_id>
224

> <s_m_entry_name>
000000066.1

> <s_m_Source_Path>
/Users/zaksoul/Documents/3r_UNI/2nd_SEMESTER/BSC/FRAG_RECON/RESULTS/2

> <s_m_Source_File>
000000066.mol2

> <i_m_Source_File_Index>
1

$$$$
No_0_69
                    3D
 Schrodinger Suite 2022-4.
 71 77  0  0  1  0            999 V2000
   -5.2820    3.2610  -22.1010 C   0  0  0  0  0  0
   -5.5490    3.4400  -23.4370 C   0  0  0  0  0  0
   -4.0380    3.0490  -21.7550 C   0  0  0  0  0  0
   -3.1430    3.2050  -23.9170 C   0  0  0  0  0  0
   -2.9790    2.9660  -22.4960 C   0  0  0  0  0  0
   -4.4960    3.4230  -24.4440 C   0  0  0  0  0  0
   -3.7340    3.4700  -26.6390 C   0  0  0  0  0  0
    5.9940    3.0610  -21.3360 C   0  0  0  0  0  0
    5.8610    3.1990  -23.8860 C   0  0  0  0  0  0
   -4.7460    3.5420  -25.7800 C   0  0  0  0  0  0
    2.0600    3.6200  -23.9180 C   0  0  0  0  0  0
    1.2010    4.7000  -23.6220 C   0  0  0  0  0  0
    2.9560    5.9550  -22.9350 C   0  0  0  0  0  0
    3.4520    3.8570  -23.5990 C   0  0  0  0  0  0
    1.5540    2.4850  -24.5810 C   0  0  0  0  0  0
   -0.6000    3.2270  -24.4790 C   0  0  0  0  0  0
   -0.1170    4.4640  -23.8780 C   0  0  0  0  0  0
   -2.0510    3.1840  -24.8390 C   0  0  0  0  0  0
    4.1390    1.3810  -23.3050 C   0  0  0  0  0  0
    5.0800    1.0570  -22.1540 C   0  0  2  0  0  0
    6.6230    2.6500  -22.6850 C   0  0  2  0  0  0
    5.0240    2.0570  -20.9870 C   0  0  0  0  0  0
   -2.3760    3.3330  -26.2680 C   0  0  0  0  0  0
   -1.6240    2.5980  -21.8920 C   0  0  0  0  0  0
   -0.5840    2.2850  -21.3830 C   0  0  0  0  0  0
   -0.9940    5.4800  -23.5360 F   0  0  0  0  0  0
   -3.8240    2.8140  -20.3720 F   0  0  0  0  0  0
    1.6370    5.8750  -23.0880 N   0  0  0  0  0  0
    3.8850    5.0230  -23.1520 N   0  0  0  0  0  0
    0.2520    2.3520  -24.8910 N   0  0  0  0  0  0
    4.4050    2.8410  -23.7730 N   0  0  0  0  0  0
    6.4860    1.1710  -22.6310 N   0  0  1  0  0  0
   -3.9020    3.4790  -28.0290 O   0  0  0  0  0  0
   -6.0886    3.2971  -21.3777 H   0  0  0  0  0  0
   -6.5682    3.6015  -23.7690 H   0  0  0  0  0  0
    5.4913    4.0331  -21.4470 H   0  0  0  0  0  0
    6.7759    3.0973  -20.5632 H   0  0  0  0  0  0
    6.2740    2.7679  -24.8099 H   0  0  0  0  0  0
    5.9670    4.2934  -23.9183 H   0  0  0  0  0  0
   -5.7607    3.6926  -26.1303 H   0  0  0  0  0  0
    2.2216    1.6779  -24.8601 H   0  0  0  0  0  0
    3.0975    1.2902  -22.9629 H   0  0  0  0  0  0
    4.3277    0.6886  -24.1387 H   0  0  0  0  0  0
    4.8883    0.0380  -21.7868 H   0  0  0  0  0  0
    7.6824    2.9429  -22.7274 H   0  0  0  0  0  0
    4.0244    2.5144  -20.9476 H   0  0  0  0  0  0
    5.3381    1.5531  -20.0610 H   0  0  0  0  0  0
   -1.6030    3.3390  -27.0279 H   0  0  0  0  0  0
    0.3311    2.0090  -20.9340 H   0  0  0  0  0  0
    7.1470    0.6950  -21.9218 H   0  0  0  0  0  0
   -3.0532    3.4187  -28.4514 H   0  0  0  0  0  0
    6.3410    8.9890  -21.5140 N   0  3  0  0  0  0
    7.1340    9.9840  -20.7600 C   0  0  0  0  0  0
    7.5690    8.4610  -20.8860 C   0  0  0  0  0  0
    4.5200    7.2150  -21.3410 C   0  0  0  0  0  0
    5.0280    8.6000  -20.8840 C   0  0  0  0  0  0
    3.4680    7.3120  -22.4650 C   0  0  0  0  0  0
    6.3800    9.1220  -23.0110 C   0  0  0  0  0  0
    6.5992    9.9130  -19.8014 H   0  0  0  0  0  0
    7.7212   10.3831  -21.6002 H   0  0  0  0  0  0
    8.2414    8.5631  -21.7505 H   0  0  0  0  0  0
    7.1202    8.0932  -19.9515 H   0  0  0  0  0  0
    4.0870    6.6830  -20.4810 H   0  0  0  0  0  0
    5.3702    6.6089  -21.6871 H   0  0  0  0  0  0
    4.2701    9.3619  -21.1190 H   0  0  0  0  0  0
    5.1310    8.6080  -19.7889 H   0  0  0  0  0  0
    3.8969    7.8569  -23.3189 H   0  0  0  0  0  0
    2.6209    7.9231  -22.1200 H   0  0  0  0  0  0
    5.7593    8.3354  -23.4648 H   0  0  0  0  0  0
    5.9910   10.1089  -23.3020 H   0  0  0  0  0  0
    7.4173    9.0180  -23.3621 H   0  0  0  0  0  0
  1  2  2  0  0  0
  1  3  1  0  0  0
  1 34  1  0  0  0
  2  6  1  0  0  0
  2 35  1  0  0  0
  3  5  2  0  0  0
  3 27  1  0  0  0
  4  5  1  0  0  0
  4  6  2  0  0  0
  4 18  1  0  0  0
  5 24  1  0  0  0
  6 10  1  0  0  0
  7 10  2  0  0  0
  7 23  1  0  0  0
  7 33  1  0  0  0
  8 21  1  0  0  0
  8 22  1  0  0  0
  8 36  1  0  0  0
  8 37  1  0  0  0
  9 21  1  0  0  0
  9 31  1  0  0  0
  9 38  1  0  0  0
  9 39  1  0  0  0
 10 40  1  0  0  0
 11 12  1  0  0  0
 11 14  2  0  0  0
 11 15  1  0  0  0
 12 17  1  0  0  0
 12 28  2  0  0  0
 13 28  1  0  0  0
 13 29  2  0  0  0
 13 57  1  0  0  0
 14 29  1  0  0  0
 14 31  1  0  0  0
 15 30  2  0  0  0
 15 41  1  0  0  0
 16 17  2  0  0  0
 16 18  1  0  0  0
 16 30  1  0  0  0
 17 26  1  0  0  0
 18 23  2  0  0  0
 19 20  1  0  0  0
 19 31  1  0  0  0
 19 42  1  0  0  0
 19 43  1  0  0  0
 20 22  1  0  0  0
 20 32  1  0  0  0
 20 44  1  0  0  0
 21 32  1  0  0  0
 21 45  1  0  0  0
 22 46  1  0  0  0
 22 47  1  0  0  0
 23 48  1  0  0  0
 24 25  3  0  0  0
 25 49  1  0  0  0
 32 50  1  0  0  0
 33 51  1  0  0  0
 52 53  1  0  0  0
 52 54  1  0  0  0
 52 56  1  0  0  0
 52 58  1  0  0  0
 53 54  1  0  0  0
 53 59  1  0  0  0
 53 60  1  0  0  0
 54 61  1  0  0  0
 54 62  1  0  0  0
 55 56  1  0  0  0
 55 57  1  0  0  0
 55 63  1  0  0  0
 55 64  1  0  0  0
 56 65  1  0  0  0
 56 66  1  0  0  0
 57 67  1  0  0  0
 57 68  1  0  0  0
 58 69  1  0  0  0
 58 70  1  0  0  0
 58 71  1  0  0  0
M  CHG  1  52   1
M  END
> <s_m_entry_id>
225

> <s_m_entry_name>
000000067.1

> <s_m_Source_Path>
/Users/zaksoul/Documents/3r_UNI/2nd_SEMESTER/BSC/FRAG_RECON/RESULTS/2

> <s_m_Source_File>
000000067.mol2

> <i_m_Source_File_Index>
1

$$$$
No_0_70
                    3D
 Schrodinger Suite 2022-4.
 71 77  0  0  1  0            999 V2000
   -5.1810    3.6090  -21.8530 C   0  0  0  0  0  0
   -5.4520    3.8050  -23.1860 C   0  0  0  0  0  0
   -3.9420    3.3510  -21.5190 C   0  0  0  0  0  0
   -3.0590    3.4860  -23.6870 C   0  0  0  0  0  0
   -2.8930    3.2340  -22.2690 C   0  0  0  0  0  0
   -4.4090    3.7540  -24.2010 C   0  0  0  0  0  0
   -3.6630    3.7850  -26.4030 C   0  0  0  0  0  0
    6.0870    3.0010  -21.1820 C   0  0  0  0  0  0
    5.9380    3.1560  -23.7310 C   0  0  0  0  0  0
   -4.6650    3.8890  -25.5350 C   0  0  0  0  0  0
    2.1540    3.7130  -23.7290 C   0  0  0  0  0  0
    1.3370    4.8230  -23.4210 C   0  0  0  0  0  0
    3.1410    6.0110  -22.7430 C   0  0  0  0  0  0
    3.5570    3.8990  -23.4210 C   0  0  0  0  0  0
    1.6030    2.6010  -24.3930 C   0  0  0  0  0  0
   -0.5220    3.4190  -24.2700 C   0  0  0  0  0  0
    0.0100    4.6350  -23.6670 C   0  0  0  0  0  0
   -1.9770    3.4300  -24.6180 C   0  0  0  0  0  0
    4.1570    1.3990  -23.1440 C   0  0  0  0  0  0
    5.0950    1.0350  -22.0030 C   0  0  2  0  0  0
    6.6890    2.5740  -22.5390 C   0  0  2  0  0  0
    5.0840    2.0310  -20.8310 C   0  0  0  0  0  0
   -2.3080    3.5970  -26.0440 C   0  0  0  0  0  0
   -1.5470    2.8150  -21.6780 C   0  0  0  0  0  0
   -0.5150    2.4620  -21.1780 C   0  0  0  0  0  0
   -0.8280    5.6800  -23.3140 F   0  0  0  0  0  0
   -3.7260    3.1020  -20.1390 F   0  0  0  0  0  0
    1.8200    5.9780  -22.8860 N   0  0  0  0  0  0
    4.0350    5.0470  -22.9720 N   0  0  0  0  0  0
    0.2950    2.5160  -24.6930 N   0  0  0  0  0  0
    4.4710    2.8500  -23.6070 N   0  0  0  0  0  0
    6.5000    1.1010  -22.4910 N   0  0  1  0  0  0
   -3.8410    3.8060  -27.7920 O   0  0  0  0  0  0
   -5.9796    3.6712  -21.1226 H   0  0  0  0  0  0
   -6.4675    4.0037  -23.5091 H   0  0  0  0  0  0
    5.6179    3.9906  -21.2849 H   0  0  0  0  0  0
    6.8763    3.0060  -20.4159 H   0  0  0  0  0  0
    6.3275    2.7150  -24.6604 H   0  0  0  0  0  0
    6.0833    4.2460  -23.7593 H   0  0  0  0  0  0
   -5.6765    4.0776  -25.8762 H   0  0  0  0  0  0
    2.2385    1.7718  -24.6821 H   0  0  0  0  0  0
    3.1157    1.3435  -22.7939 H   0  0  0  0  0  0
    4.3144    0.7047  -23.9826 H   0  0  0  0  0  0
    4.8700    0.0218  -21.6387 H   0  0  0  0  0  0
    7.7578    2.8293  -22.5885 H   0  0  0  0  0  0
    4.1018    2.5236  -20.7805 H   0  0  0  0  0  0
    5.3877    1.5123  -19.9097 H   0  0  0  0  0  0
   -1.5411    3.5789  -26.8099 H   0  0  0  0  0  0
    0.3934    2.1519  -20.7378 H   0  0  0  0  0  0
    7.1492    0.5983  -21.7894 H   0  0  0  0  0  0
   -2.9984    3.7179  -28.2217 H   0  0  0  0  0  0
    6.6660    9.0890  -21.8550 N   0  3  0  0  0  0
    7.5820   10.0540  -21.2110 C   0  0  0  0  0  0
    8.0250    8.5760  -21.5890 C   0  0  0  0  0  0
    4.9980    7.2060  -21.4410 C   0  0  0  0  0  0
    5.5540    8.5710  -20.9780 C   0  0  0  0  0  0
    3.7060    7.3460  -22.2710 C   0  0  0  0  0  0
    6.3410    9.3580  -23.2980 C   0  0  0  0  0  0
    7.2940    9.8670  -20.1660 H   0  0  0  0  0  0
    7.9379   10.5598  -22.1207 H   0  0  0  0  0  0
    8.4681    8.7930  -22.5722 H   0  0  0  0  0  0
    7.8240    8.1000  -20.6179 H   0  0  0  0  0  0
    4.8010    6.5749  -20.5619 H   0  0  0  0  0  0
    5.7611    6.6829  -22.0361 H   0  0  0  0  0  0
    4.7374    9.3075  -20.9500 H   0  0  0  0  0  0
    5.9152    8.4860  -19.9425 H   0  0  0  0  0  0
    3.9000    7.9891  -23.1421 H   0  0  0  0  0  0
    2.9461    7.8749  -21.6771 H   0  0  0  0  0  0
    5.6565    8.5825  -23.6723 H   0  0  0  0  0  0
    5.8620   10.3440  -23.3890 H   0  0  0  0  0  0
    7.2676    9.3460  -23.8907 H   0  0  0  0  0  0
  1  2  2  0  0  0
  1  3  1  0  0  0
  1 34  1  0  0  0
  2  6  1  0  0  0
  2 35  1  0  0  0
  3  5  2  0  0  0
  3 27  1  0  0  0
  4  5  1  0  0  0
  4  6  2  0  0  0
  4 18  1  0  0  0
  5 24  1  0  0  0
  6 10  1  0  0  0
  7 10  2  0  0  0
  7 23  1  0  0  0
  7 33  1  0  0  0
  8 21  1  0  0  0
  8 22  1  0  0  0
  8 36  1  0  0  0
  8 37  1  0  0  0
  9 21  1  0  0  0
  9 31  1  0  0  0
  9 38  1  0  0  0
  9 39  1  0  0  0
 10 40  1  0  0  0
 11 12  1  0  0  0
 11 14  2  0  0  0
 11 15  1  0  0  0
 12 17  1  0  0  0
 12 28  2  0  0  0
 13 28  1  0  0  0
 13 29  2  0  0  0
 13 57  1  0  0  0
 14 29  1  0  0  0
 14 31  1  0  0  0
 15 30  2  0  0  0
 15 41  1  0  0  0
 16 17  2  0  0  0
 16 18  1  0  0  0
 16 30  1  0  0  0
 17 26  1  0  0  0
 18 23  2  0  0  0
 19 20  1  0  0  0
 19 31  1  0  0  0
 19 42  1  0  0  0
 19 43  1  0  0  0
 20 22  1  0  0  0
 20 32  1  0  0  0
 20 44  1  0  0  0
 21 32  1  0  0  0
 21 45  1  0  0  0
 22 46  1  0  0  0
 22 47  1  0  0  0
 23 48  1  0  0  0
 24 25  3  0  0  0
 25 49  1  0  0  0
 32 50  1  0  0  0
 33 51  1  0  0  0
 52 53  1  0  0  0
 52 54  1  0  0  0
 52 56  1  0  0  0
 52 58  1  0  0  0
 53 54  1  0  0  0
 53 59  1  0  0  0
 53 60  1  0  0  0
 54 61  1  0  0  0
 54 62  1  0  0  0
 55 56  1  0  0  0
 55 57  1  0  0  0
 55 63  1  0  0  0
 55 64  1  0  0  0
 56 65  1  0  0  0
 56 66  1  0  0  0
 57 67  1  0  0  0
 57 68  1  0  0  0
 58 69  1  0  0  0
 58 70  1  0  0  0
 58 71  1  0  0  0
M  CHG  1  52   1
M  END
> <s_m_entry_id>
226

> <s_m_entry_name>
000000068.1

> <s_m_Source_Path>
/Users/zaksoul/Documents/3r_UNI/2nd_SEMESTER/BSC/FRAG_RECON/RESULTS/2

> <s_m_Source_File>
000000068.mol2

> <i_m_Source_File_Index>
1

$$$$
No_0_71
                    3D
 Schrodinger Suite 2022-4.
 71 77  0  0  1  0            999 V2000
   -5.1810    3.6090  -21.8530 C   0  0  0  0  0  0
   -5.4520    3.8050  -23.1860 C   0  0  0  0  0  0
   -3.9420    3.3510  -21.5190 C   0  0  0  0  0  0
   -3.0590    3.4860  -23.6870 C   0  0  0  0  0  0
   -2.8930    3.2340  -22.2690 C   0  0  0  0  0  0
   -4.4090    3.7540  -24.2010 C   0  0  0  0  0  0
   -3.6630    3.7850  -26.4030 C   0  0  0  0  0  0
    6.0870    3.0010  -21.1820 C   0  0  0  0  0  0
    5.9380    3.1560  -23.7310 C   0  0  0  0  0  0
   -4.6650    3.8890  -25.5350 C   0  0  0  0  0  0
    2.1540    3.7130  -23.7290 C   0  0  0  0  0  0
    1.3370    4.8230  -23.4210 C   0  0  0  0  0  0
    3.1410    6.0110  -22.7430 C   0  0  0  0  0  0
    3.5570    3.8990  -23.4210 C   0  0  0  0  0  0
    1.6030    2.6010  -24.3930 C   0  0  0  0  0  0
   -0.5220    3.4190  -24.2700 C   0  0  0  0  0  0
    0.0100    4.6350  -23.6670 C   0  0  0  0  0  0
   -1.9770    3.4300  -24.6180 C   0  0  0  0  0  0
    4.1570    1.3990  -23.1440 C   0  0  0  0  0  0
    5.0950    1.0350  -22.0030 C   0  0  2  0  0  0
    6.6890    2.5740  -22.5390 C   0  0  2  0  0  0
    5.0840    2.0310  -20.8310 C   0  0  0  0  0  0
   -2.3080    3.5970  -26.0440 C   0  0  0  0  0  0
   -1.5470    2.8150  -21.6780 C   0  0  0  0  0  0
   -0.5150    2.4620  -21.1780 C   0  0  0  0  0  0
   -0.8280    5.6800  -23.3140 F   0  0  0  0  0  0
   -3.7260    3.1020  -20.1390 F   0  0  0  0  0  0
    1.8200    5.9780  -22.8860 N   0  0  0  0  0  0
    4.0350    5.0470  -22.9720 N   0  0  0  0  0  0
    0.2950    2.5160  -24.6930 N   0  0  0  0  0  0
    4.4710    2.8500  -23.6070 N   0  0  0  0  0  0
    6.5000    1.1010  -22.4910 N   0  0  1  0  0  0
   -3.8410    3.8060  -27.7920 O   0  0  0  0  0  0
   -5.9796    3.6712  -21.1226 H   0  0  0  0  0  0
   -6.4675    4.0037  -23.5091 H   0  0  0  0  0  0
    5.6179    3.9906  -21.2849 H   0  0  0  0  0  0
    6.8763    3.0060  -20.4159 H   0  0  0  0  0  0
    6.3275    2.7150  -24.6604 H   0  0  0  0  0  0
    6.0833    4.2460  -23.7593 H   0  0  0  0  0  0
   -5.6765    4.0776  -25.8762 H   0  0  0  0  0  0
    2.2385    1.7718  -24.6821 H   0  0  0  0  0  0
    3.1157    1.3435  -22.7939 H   0  0  0  0  0  0
    4.3144    0.7047  -23.9826 H   0  0  0  0  0  0
    4.8700    0.0218  -21.6387 H   0  0  0  0  0  0
    7.7578    2.8293  -22.5885 H   0  0  0  0  0  0
    4.1018    2.5236  -20.7805 H   0  0  0  0  0  0
    5.3877    1.5123  -19.9097 H   0  0  0  0  0  0
   -1.5411    3.5789  -26.8099 H   0  0  0  0  0  0
    0.3934    2.1519  -20.7378 H   0  0  0  0  0  0
    7.1492    0.5983  -21.7894 H   0  0  0  0  0  0
   -2.9984    3.7179  -28.2217 H   0  0  0  0  0  0
    6.5550    9.3090  -22.3440 N   0  3  0  0  0  0
    7.5250   10.2950  -21.8220 C   0  0  0  0  0  0
    7.9700    8.9010  -22.4430 C   0  0  0  0  0  0
    5.1610    7.2530  -21.7690 C   0  0  0  0  0  0
    5.7140    8.6170  -21.3010 C   0  0  0  0  0  0
    3.7060    7.3460  -22.2710 C   0  0  0  0  0  0
    5.8880    9.6720  -23.6420 C   0  0  0  0  0  0
    7.5000    9.9920  -20.7649 H   0  0  0  0  0  0
    7.6260   10.9072  -22.7303 H   0  0  0  0  0  0
    8.1580    9.2419  -23.4718 H   0  0  0  0  0  0
    8.0320    8.3269  -21.5068 H   0  0  0  0  0  0
    5.2170    6.5331  -20.9391 H   0  0  0  0  0  0
    5.8009    6.8561  -22.5709 H   0  0  0  0  0  0
    4.8772    9.2708  -21.0141 H   0  0  0  0  0  0
    6.3092    8.4760  -20.3867 H   0  0  0  0  0  0
    3.6490    8.0770  -23.0910 H   0  0  0  0  0  0
    3.0687    7.7502  -21.4707 H   0  0  0  0  0  0
    5.1911    8.8722  -23.9329 H   0  0  0  0  0  0
    5.3339   10.6142  -23.5190 H   0  0  0  0  0  0
    6.6509    9.7950  -24.4249 H   0  0  0  0  0  0
  1  2  2  0  0  0
  1  3  1  0  0  0
  1 34  1  0  0  0
  2  6  1  0  0  0
  2 35  1  0  0  0
  3  5  2  0  0  0
  3 27  1  0  0  0
  4  5  1  0  0  0
  4  6  2  0  0  0
  4 18  1  0  0  0
  5 24  1  0  0  0
  6 10  1  0  0  0
  7 10  2  0  0  0
  7 23  1  0  0  0
  7 33  1  0  0  0
  8 21  1  0  0  0
  8 22  1  0  0  0
  8 36  1  0  0  0
  8 37  1  0  0  0
  9 21  1  0  0  0
  9 31  1  0  0  0
  9 38  1  0  0  0
  9 39  1  0  0  0
 10 40  1  0  0  0
 11 12  1  0  0  0
 11 14  2  0  0  0
 11 15  1  0  0  0
 12 17  1  0  0  0
 12 28  2  0  0  0
 13 28  1  0  0  0
 13 29  2  0  0  0
 13 57  1  0  0  0
 14 29  1  0  0  0
 14 31  1  0  0  0
 15 30  2  0  0  0
 15 41  1  0  0  0
 16 17  2  0  0  0
 16 18  1  0  0  0
 16 30  1  0  0  0
 17 26  1  0  0  0
 18 23  2  0  0  0
 19 20  1  0  0  0
 19 31  1  0  0  0
 19 42  1  0  0  0
 19 43  1  0  0  0
 20 22  1  0  0  0
 20 32  1  0  0  0
 20 44  1  0  0  0
 21 32  1  0  0  0
 21 45  1  0  0  0
 22 46  1  0  0  0
 22 47  1  0  0  0
 23 48  1  0  0  0
 24 25  3  0  0  0
 25 49  1  0  0  0
 32 50  1  0  0  0
 33 51  1  0  0  0
 52 53  1  0  0  0
 52 54  1  0  0  0
 52 56  1  0  0  0
 52 58  1  0  0  0
 53 54  1  0  0  0
 53 59  1  0  0  0
 53 60  1  0  0  0
 54 61  1  0  0  0
 54 62  1  0  0  0
 55 56  1  0  0  0
 55 57  1  0  0  0
 55 63  1  0  0  0
 55 64  1  0  0  0
 56 65  1  0  0  0
 56 66  1  0  0  0
 57 67  1  0  0  0
 57 68  1  0  0  0
 58 69  1  0  0  0
 58 70  1  0  0  0
 58 71  1  0  0  0
M  CHG  1  52   1
M  END
> <s_m_entry_id>
227

> <s_m_entry_name>
000000069.1

> <s_m_Source_Path>
/Users/zaksoul/Documents/3r_UNI/2nd_SEMESTER/BSC/FRAG_RECON/RESULTS/2

> <s_m_Source_File>
000000069.mol2

> <i_m_Source_File_Index>
1

$$$$
No_0_72
                    3D
 Schrodinger Suite 2022-4.
 71 77  0  0  1  0            999 V2000
   -5.1810    3.6090  -21.8530 C   0  0  0  0  0  0
   -5.4520    3.8050  -23.1860 C   0  0  0  0  0  0
   -3.9420    3.3510  -21.5190 C   0  0  0  0  0  0
   -3.0590    3.4860  -23.6870 C   0  0  0  0  0  0
   -2.8930    3.2340  -22.2690 C   0  0  0  0  0  0
   -4.4090    3.7540  -24.2010 C   0  0  0  0  0  0
   -3.6630    3.7850  -26.4030 C   0  0  0  0  0  0
    6.0870    3.0010  -21.1820 C   0  0  0  0  0  0
    5.9380    3.1560  -23.7310 C   0  0  0  0  0  0
   -4.6650    3.8890  -25.5350 C   0  0  0  0  0  0
    2.1540    3.7130  -23.7290 C   0  0  0  0  0  0
    1.3370    4.8230  -23.4210 C   0  0  0  0  0  0
    3.1410    6.0110  -22.7430 C   0  0  0  0  0  0
    3.5570    3.8990  -23.4210 C   0  0  0  0  0  0
    1.6030    2.6010  -24.3930 C   0  0  0  0  0  0
   -0.5220    3.4190  -24.2700 C   0  0  0  0  0  0
    0.0100    4.6350  -23.6670 C   0  0  0  0  0  0
   -1.9770    3.4300  -24.6180 C   0  0  0  0  0  0
    4.1570    1.3990  -23.1440 C   0  0  0  0  0  0
    5.0950    1.0350  -22.0030 C   0  0  2  0  0  0
    6.6890    2.5740  -22.5390 C   0  0  2  0  0  0
    5.0840    2.0310  -20.8310 C   0  0  0  0  0  0
   -2.3080    3.5970  -26.0440 C   0  0  0  0  0  0
   -1.5470    2.8150  -21.6780 C   0  0  0  0  0  0
   -0.5150    2.4620  -21.1780 C   0  0  0  0  0  0
   -0.8280    5.6800  -23.3140 F   0  0  0  0  0  0
   -3.7260    3.1020  -20.1390 F   0  0  0  0  0  0
    1.8200    5.9780  -22.8860 N   0  0  0  0  0  0
    4.0350    5.0470  -22.9720 N   0  0  0  0  0  0
    0.2950    2.5160  -24.6930 N   0  0  0  0  0  0
    4.4710    2.8500  -23.6070 N   0  0  0  0  0  0
    6.5000    1.1010  -22.4910 N   0  0  1  0  0  0
   -3.8410    3.8060  -27.7920 O   0  0  0  0  0  0
   -5.9796    3.6712  -21.1226 H   0  0  0  0  0  0
   -6.4675    4.0037  -23.5091 H   0  0  0  0  0  0
    5.6179    3.9906  -21.2849 H   0  0  0  0  0  0
    6.8763    3.0060  -20.4159 H   0  0  0  0  0  0
    6.3275    2.7150  -24.6604 H   0  0  0  0  0  0
    6.0833    4.2460  -23.7593 H   0  0  0  0  0  0
   -5.6765    4.0776  -25.8762 H   0  0  0  0  0  0
    2.2385    1.7718  -24.6821 H   0  0  0  0  0  0
    3.1157    1.3435  -22.7939 H   0  0  0  0  0  0
    4.3144    0.7047  -23.9826 H   0  0  0  0  0  0
    4.8700    0.0218  -21.6387 H   0  0  0  0  0  0
    7.7578    2.8293  -22.5885 H   0  0  0  0  0  0
    4.1018    2.5236  -20.7805 H   0  0  0  0  0  0
    5.3877    1.5123  -19.9097 H   0  0  0  0  0  0
   -1.5411    3.5789  -26.8099 H   0  0  0  0  0  0
    0.3934    2.1519  -20.7378 H   0  0  0  0  0  0
    7.1492    0.5983  -21.7894 H   0  0  0  0  0  0
   -2.9984    3.7179  -28.2217 H   0  0  0  0  0  0
    6.3180    9.5590  -22.7700 N   0  3  0  0  0  0
    7.3130   10.5810  -22.3770 C   0  0  0  0  0  0
    7.6980    9.2920  -23.2240 C   0  0  0  0  0  0
    5.2410    7.3430  -22.1180 C   0  0  0  0  0  0
    5.7900    8.7060  -21.6440 C   0  0  0  0  0  0
    3.7060    7.3460  -22.2710 C   0  0  0  0  0  0
    5.3470    9.9710  -23.8410 C   0  0  0  0  0  0
    7.5530   10.1859  -21.3788 H   0  0  0  0  0  0
    7.1589   11.2763  -23.2154 H   0  0  0  0  0  0
    7.6200    9.7370  -24.2270 H   0  0  0  0  0  0
    8.0131    8.6468  -22.3907 H   0  0  0  0  0  0
    5.5351    6.5617  -21.4017 H   0  0  0  0  0  0
    5.7039    7.0771  -23.0798 H   0  0  0  0  0  0
    4.9990    9.2540  -21.1110 H   0  0  0  0  0  0
    6.5890    8.5420  -20.9060 H   0  0  0  0  0  0
    3.4110    8.1371  -22.9761 H   0  0  0  0  0  0
    3.2439    7.6190  -21.3108 H   0  0  0  0  0  0
    4.6590    9.1390  -24.0520 H   0  0  0  0  0  0
    4.7718   10.8443  -23.4999 H   0  0  0  0  0  0
    5.8987   10.2309  -24.7565 H   0  0  0  0  0  0
  1  2  2  0  0  0
  1  3  1  0  0  0
  1 34  1  0  0  0
  2  6  1  0  0  0
  2 35  1  0  0  0
  3  5  2  0  0  0
  3 27  1  0  0  0
  4  5  1  0  0  0
  4  6  2  0  0  0
  4 18  1  0  0  0
  5 24  1  0  0  0
  6 10  1  0  0  0
  7 10  2  0  0  0
  7 23  1  0  0  0
  7 33  1  0  0  0
  8 21  1  0  0  0
  8 22  1  0  0  0
  8 36  1  0  0  0
  8 37  1  0  0  0
  9 21  1  0  0  0
  9 31  1  0  0  0
  9 38  1  0  0  0
  9 39  1  0  0  0
 10 40  1  0  0  0
 11 12  1  0  0  0
 11 14  2  0  0  0
 11 15  1  0  0  0
 12 17  1  0  0  0
 12 28  2  0  0  0
 13 28  1  0  0  0
 13 29  2  0  0  0
 13 57  1  0  0  0
 14 29  1  0  0  0
 14 31  1  0  0  0
 15 30  2  0  0  0
 15 41  1  0  0  0
 16 17  2  0  0  0
 16 18  1  0  0  0
 16 30  1  0  0  0
 17 26  1  0  0  0
 18 23  2  0  0  0
 19 20  1  0  0  0
 19 31  1  0  0  0
 19 42  1  0  0  0
 19 43  1  0  0  0
 20 22  1  0  0  0
 20 32  1  0  0  0
 20 44  1  0  0  0
 21 32  1  0  0  0
 21 45  1  0  0  0
 22 46  1  0  0  0
 22 47  1  0  0  0
 23 48  1  0  0  0
 24 25  3  0  0  0
 25 49  1  0  0  0
 32 50  1  0  0  0
 33 51  1  0  0  0
 52 53  1  0  0  0
 52 54  1  0  0  0
 52 56  1  0  0  0
 52 58  1  0  0  0
 53 54  1  0  0  0
 53 59  1  0  0  0
 53 60  1  0  0  0
 54 61  1  0  0  0
 54 62  1  0  0  0
 55 56  1  0  0  0
 55 57  1  0  0  0
 55 63  1  0  0  0
 55 64  1  0  0  0
 56 65  1  0  0  0
 56 66  1  0  0  0
 57 67  1  0  0  0
 57 68  1  0  0  0
 58 69  1  0  0  0
 58 70  1  0  0  0
 58 71  1  0  0  0
M  CHG  1  52   1
M  END
> <s_m_entry_id>
228

> <s_m_entry_name>
000000070.1

> <s_m_Source_Path>
/Users/zaksoul/Documents/3r_UNI/2nd_SEMESTER/BSC/FRAG_RECON/RESULTS/2

> <s_m_Source_File>
000000070.mol2

> <i_m_Source_File_Index>
1

$$$$
No_0_73
                    3D
 Schrodinger Suite 2022-4.
 71 77  0  0  1  0            999 V2000
   -5.1780    3.6280  -21.8030 C   0  0  0  0  0  0
   -5.4410    3.8240  -23.1380 C   0  0  0  0  0  0
   -3.9390    3.3840  -21.4600 C   0  0  0  0  0  0
   -3.0410    3.5340  -23.6210 C   0  0  0  0  0  0
   -2.8830    3.2810  -22.2020 C   0  0  0  0  0  0
   -4.3890    3.7880  -24.1450 C   0  0  0  0  0  0
   -3.6260    3.8330  -26.3400 C   0  0  0  0  0  0
    6.0910    3.1490  -21.0460 C   0  0  0  0  0  0
    5.9600    3.3090  -23.5940 C   0  0  0  0  0  0
   -4.6370    3.9230  -25.4800 C   0  0  0  0  0  0
    2.1700    3.8230  -23.6210 C   0  0  0  0  0  0
    1.3380    4.9210  -23.3170 C   0  0  0  0  0  0
    3.1230    6.1280  -22.6220 C   0  0  0  0  0  0
    3.5680    4.0240  -23.3020 C   0  0  0  0  0  0
    1.6360    2.7050  -24.2930 C   0  0  0  0  0  0
   -0.4990    3.4980  -24.1840 C   0  0  0  0  0  0
    0.0150    4.7190  -23.5740 C   0  0  0  0  0  0
   -1.9500    3.4940  -24.5430 C   0  0  0  0  0  0
    4.1950    1.5300  -23.0260 C   0  0  0  0  0  0
    5.1280    1.1740  -21.8790 C   0  0  2  0  0  0
    6.7090    2.7330  -22.3980 C   0  0  2  0  0  0
    5.0970    2.1660  -20.7040 C   0  0  0  0  0  0
   -2.2720    3.6610  -25.9710 C   0  0  0  0  0  0
   -1.5370    2.8750  -21.6020 C   0  0  0  0  0  0
   -0.5050    2.5330  -21.0950 C   0  0  0  0  0  0
   -0.8380    5.7540  -23.2250 F   0  0  0  0  0  0
   -3.7310    3.1330  -20.0790 F   0  0  0  0  0  0
    1.8020    6.0810  -22.7750 N   0  0  0  0  0  0
    4.0290    5.1760  -22.8460 N   0  0  0  0  0  0
    0.3320    2.6060  -24.6030 N   0  0  0  0  0  0
    4.4960    2.9860  -23.4830 N   0  0  0  0  0  0
    6.5360    1.2580  -22.3550 N   0  0  1  0  0  0
   -3.7940    3.8560  -27.7310 O   0  0  0  0  0  0
   -5.9833    3.6782  -21.0791 H   0  0  0  0  0  0
   -6.4562    4.0118  -23.4684 H   0  0  0  0  0  0
    5.6110    4.1333  -21.1499 H   0  0  0  0  0  0
    6.8738    3.1611  -20.2733 H   0  0  0  0  0  0
    6.3617    2.8750  -24.5215 H   0  0  0  0  0  0
    6.0922    4.4007  -23.6192 H   0  0  0  0  0  0
   -5.6475    4.1016  -25.8292 H   0  0  0  0  0  0
    2.2842    1.8842  -24.5780 H   0  0  0  0  0  0
    3.1515    1.4614  -22.6849 H   0  0  0  0  0  0
    4.3666    0.8395  -23.8649 H   0  0  0  0  0  0
    4.9121    0.1573  -21.5189 H   0  0  0  0  0  0
    7.7752    3.0006  -22.4394 H   0  0  0  0  0  0
    4.1089    2.6474  -20.6606 H   0  0  0  0  0  0
    5.3988    1.6483  -19.7816 H   0  0  0  0  0  0
   -1.5000    3.6540  -26.7319 H   0  0  0  0  0  0
    0.4034    2.2322  -20.6483 H   0  0  0  0  0  0
    7.1854    0.7605  -21.6499 H   0  0  0  0  0  0
   -2.9467    3.7788  -28.1537 H   0  0  0  0  0  0
    5.9130    9.9750  -22.9500 N   0  3  0  0  0  0
    6.8840   11.0550  -22.6730 C   0  0  0  0  0  0
    7.1730    9.8910  -23.7160 C   0  0  0  0  0  0
    5.1930    7.6110  -22.3230 C   0  0  0  0  0  0
    5.7220    8.9780  -21.8360 C   0  0  0  0  0  0
    3.6680    7.4690  -22.1420 C   0  0  0  0  0  0
    4.6960   10.3750  -23.7380 C   0  0  0  0  0  0
    7.3732   10.6028  -21.7977 H   0  0  0  0  0  0
    6.4900   11.8009  -23.3789 H   0  0  0  0  0  0
    6.8363   10.4106  -24.6252 H   0  0  0  0  0  0
    7.7184    9.2125  -23.0435 H   0  0  0  0  0  0
    5.7030    6.8050  -21.7750 H   0  0  0  0  0  0
    5.4489    7.4781  -23.3845 H   0  0  0  0  0  0
    5.0285    9.3927  -21.0896 H   0  0  0  0  0  0
    6.6760    8.8330  -21.3080 H   0  0  0  0  0  0
    3.1591    8.2838  -22.6779 H   0  0  0  0  0  0
    3.4121    7.6090  -21.0814 H   0  0  0  0  0  0
    4.0480    9.4980  -23.8830 H   0  0  0  0  0  0
    4.1432   11.1517  -23.1892 H   0  0  0  0  0  0
    5.0061   10.7682  -24.7174 H   0  0  0  0  0  0
  1  2  2  0  0  0
  1  3  1  0  0  0
  1 34  1  0  0  0
  2  6  1  0  0  0
  2 35  1  0  0  0
  3  5  2  0  0  0
  3 27  1  0  0  0
  4  5  1  0  0  0
  4  6  2  0  0  0
  4 18  1  0  0  0
  5 24  1  0  0  0
  6 10  1  0  0  0
  7 10  2  0  0  0
  7 23  1  0  0  0
  7 33  1  0  0  0
  8 21  1  0  0  0
  8 22  1  0  0  0
  8 36  1  0  0  0
  8 37  1  0  0  0
  9 21  1  0  0  0
  9 31  1  0  0  0
  9 38  1  0  0  0
  9 39  1  0  0  0
 10 40  1  0  0  0
 11 12  1  0  0  0
 11 14  2  0  0  0
 11 15  1  0  0  0
 12 17  1  0  0  0
 12 28  2  0  0  0
 13 28  1  0  0  0
 13 29  2  0  0  0
 13 57  1  0  0  0
 14 29  1  0  0  0
 14 31  1  0  0  0
 15 30  2  0  0  0
 15 41  1  0  0  0
 16 17  2  0  0  0
 16 18  1  0  0  0
 16 30  1  0  0  0
 17 26  1  0  0  0
 18 23  2  0  0  0
 19 20  1  0  0  0
 19 31  1  0  0  0
 19 42  1  0  0  0
 19 43  1  0  0  0
 20 22  1  0  0  0
 20 32  1  0  0  0
 20 44  1  0  0  0
 21 32  1  0  0  0
 21 45  1  0  0  0
 22 46  1  0  0  0
 22 47  1  0  0  0
 23 48  1  0  0  0
 24 25  3  0  0  0
 25 49  1  0  0  0
 32 50  1  0  0  0
 33 51  1  0  0  0
 52 53  1  0  0  0
 52 54  1  0  0  0
 52 56  1  0  0  0
 52 58  1  0  0  0
 53 54  1  0  0  0
 53 59  1  0  0  0
 53 60  1  0  0  0
 54 61  1  0  0  0
 54 62  1  0  0  0
 55 56  1  0  0  0
 55 57  1  0  0  0
 55 63  1  0  0  0
 55 64  1  0  0  0
 56 65  1  0  0  0
 56 66  1  0  0  0
 57 67  1  0  0  0
 57 68  1  0  0  0
 58 69  1  0  0  0
 58 70  1  0  0  0
 58 71  1  0  0  0
M  CHG  1  52   1
M  END
> <s_m_entry_id>
229

> <s_m_entry_name>
000000071.1

> <s_m_Source_Path>
/Users/zaksoul/Documents/3r_UNI/2nd_SEMESTER/BSC/FRAG_RECON/RESULTS/2

> <s_m_Source_File>
000000071.mol2

> <i_m_Source_File_Index>
1

$$$$
No_0_74
                    3D
 Schrodinger Suite 2022-4.
 77 83  0  0  1  0            999 V2000
   -5.1430    3.8250  -21.9410 C   0  0  0  0  0  0
   -5.4240    4.0250  -23.2720 C   0  0  0  0  0  0
   -3.9030    3.5640  -21.6160 C   0  0  0  0  0  0
   -3.0350    3.7030  -23.7910 C   0  0  0  0  0  0
   -2.8600    3.4470  -22.3740 C   0  0  0  0  0  0
   -4.3880    3.9750  -24.2950 C   0  0  0  0  0  0
   -3.6570    4.0100  -26.5010 C   0  0  0  0  0  0
    6.1280    3.1940  -21.3520 C   0  0  0  0  0  0
    5.9610    3.3560  -23.8990 C   0  0  0  0  0  0
   -4.6530    4.1140  -25.6260 C   0  0  0  0  0  0
    2.1790    3.9200  -23.8690 C   0  0  0  0  0  0
    1.3660    5.0300  -23.5520 C   0  0  0  0  0  0
    3.1770    6.2130  -22.8840 C   0  0  0  0  0  0
    3.5830    4.1030  -23.5700 C   0  0  0  0  0  0
    1.6200    2.8110  -24.5320 C   0  0  0  0  0  0
   -0.5030    3.6320  -24.3910 C   0  0  0  0  0  0
    0.0360    4.8460  -23.7890 C   0  0  0  0  0  0
   -1.9590    3.6470  -24.7290 C   0  0  0  0  0  0
    4.1810    1.6000  -23.3040 C   0  0  0  0  0  0
    5.1260    1.2320  -22.1710 C   0  0  2  0  0  0
    6.7200    2.7690  -22.7140 C   0  0  2  0  0  0
    5.1260    2.2240  -20.9960 C   0  0  0  0  0  0
   -2.3000    3.8190  -26.1520 C   0  0  0  0  0  0
   -1.5100    3.0230  -21.7940 C   0  0  0  0  0  0
   -0.4760    2.6670  -21.3030 C   0  0  0  0  0  0
   -0.7970    5.8920  -23.4270 F   0  0  0  0  0  0
   -3.6780    3.3100  -20.2390 F   0  0  0  0  0  0
    1.8540    6.1830  -23.0170 N   0  0  0  0  0  0
    4.0670    5.2480  -23.1220 N   0  0  0  0  0  0
    0.3100    2.7290  -24.8230 N   0  0  0  0  0  0
    4.4950    3.0520  -23.7660 N   0  0  0  0  0  0
    6.5270    1.2960  -22.6690 N   0  0  1  0  0  0
   -3.8460    4.0360  -27.8890 O   0  0  0  0  0  0
   -5.9368    3.8862  -21.2054 H   0  0  0  0  0  0
   -6.4413    4.2269  -23.5873 H   0  0  0  0  0  0
    5.6595    4.1845  -21.4489 H   0  0  0  0  0  0
    6.9228    3.1950  -20.5915 H   0  0  0  0  0  0
    6.3424    2.9161  -24.8323 H   0  0  0  0  0  0
    6.1083    4.4458  -23.9252 H   0  0  0  0  0  0
   -5.6666    4.3057  -25.9592 H   0  0  0  0  0  0
    2.2519    1.9815  -24.8279 H   0  0  0  0  0  0
    3.1420    1.5455  -22.9469 H   0  0  0  0  0  0
    4.3304    0.9077  -24.1457 H   0  0  0  0  0  0
    4.9011    0.2183  -21.8079 H   0  0  0  0  0  0
    7.7889    3.0224  -22.7705 H   0  0  0  0  0  0
    4.1451    2.7185  -20.9375 H   0  0  0  0  0  0
    5.4340    1.7019  -20.0781 H   0  0  0  0  0  0
   -1.5391    3.8019  -26.9239 H   0  0  0  0  0  0
    0.4349    2.3540  -20.8700 H   0  0  0  0  0  0
    7.1801    0.7904  -21.9731 H   0  0  0  0  0  0
   -3.0063    3.9470  -28.3242 H   0  0  0  0  0  0
    5.8220    9.1010  -20.6770 N   0  3  0  0  0  0
    5.4950   10.6350  -22.4810 N   0  0  0  0  0  0
    8.1380    8.8050  -19.7770 C   0  0  0  0  0  0
    7.7440   10.2810  -21.7430 C   0  0  0  0  0  0
    3.7690    7.6570  -20.8760 C   0  0  0  0  0  0
    4.4020    8.9570  -20.3510 C   0  0  0  0  0  0
    6.7310    8.2140  -19.9490 C   0  0  0  0  0  0
    8.6630    9.1940  -21.1630 C   0  0  0  0  0  0
    6.2630    9.9680  -21.6090 C   0  0  0  0  0  0
    3.7480    7.5460  -22.4120 C   0  0  0  0  0  0
    5.9261   11.2792  -23.1592 H   0  0  0  0  0  0
    4.4734   10.5039  -22.4720 H   0  0  0  0  0  0
    8.8011    8.0479  -19.3330 H   0  0  0  0  0  0
    8.0840    9.7006  -19.1406 H   0  0  0  0  0  0
    7.9890   10.4380  -22.8038 H   0  0  0  0  0  0
    7.9601   11.2417  -21.2527 H   0  0  0  0  0  0
    2.7425    7.5700  -20.4902 H   0  0  0  0  0  0
    4.3055    6.7938  -20.4554 H   0  0  0  0  0  0
    3.8467    9.8195  -20.7482 H   0  0  0  0  0  0
    4.2720    9.0120  -19.2601 H   0  0  0  0  0  0
    6.8010    7.2503  -20.4748 H   0  0  0  0  0  0
    6.3060    7.9880  -18.9599 H   0  0  0  0  0  0
    8.6490    8.3128  -21.8212 H   0  0  0  0  0  0
    9.6850    9.5900  -21.0700 H   0  0  0  0  0  0
    4.7700    7.6650  -22.8010 H   0  0  0  0  0  0
    3.1492    8.3687  -22.8299 H   0  0  0  0  0  0
  1  2  2  0  0  0
  1  3  1  0  0  0
  1 34  1  0  0  0
  2  6  1  0  0  0
  2 35  1  0  0  0
  3  5  2  0  0  0
  3 27  1  0  0  0
  4  5  1  0  0  0
  4  6  2  0  0  0
  4 18  1  0  0  0
  5 24  1  0  0  0
  6 10  1  0  0  0
  7 10  2  0  0  0
  7 23  1  0  0  0
  7 33  1  0  0  0
  8 21  1  0  0  0
  8 22  1  0  0  0
  8 36  1  0  0  0
  8 37  1  0  0  0
  9 21  1  0  0  0
  9 31  1  0  0  0
  9 38  1  0  0  0
  9 39  1  0  0  0
 10 40  1  0  0  0
 11 12  1  0  0  0
 11 14  2  0  0  0
 11 15  1  0  0  0
 12 17  1  0  0  0
 12 28  2  0  0  0
 13 28  1  0  0  0
 13 29  2  0  0  0
 13 61  1  0  0  0
 14 29  1  0  0  0
 14 31  1  0  0  0
 15 30  2  0  0  0
 15 41  1  0  0  0
 16 17  2  0  0  0
 16 18  1  0  0  0
 16 30  1  0  0  0
 17 26  1  0  0  0
 18 23  2  0  0  0
 19 20  1  0  0  0
 19 31  1  0  0  0
 19 42  1  0  0  0
 19 43  1  0  0  0
 20 22  1  0  0  0
 20 32  1  0  0  0
 20 44  1  0  0  0
 21 32  1  0  0  0
 21 45  1  0  0  0
 22 46  1  0  0  0
 22 47  1  0  0  0
 23 48  1  0  0  0
 24 25  3  0  0  0
 25 49  1  0  0  0
 32 50  1  0  0  0
 33 51  1  0  0  0
 52 57  1  0  0  0
 52 58  1  0  0  0
 52 60  2  0  0  0
 53 60  1  0  0  0
 53 62  1  0  0  0
 53 63  1  0  0  0
 54 58  1  0  0  0
 54 59  1  0  0  0
 54 64  1  0  0  0
 54 65  1  0  0  0
 55 59  1  0  0  0
 55 60  1  0  0  0
 55 66  1  0  0  0
 55 67  1  0  0  0
 56 57  1  0  0  0
 56 61  1  0  0  0
 56 68  1  0  0  0
 56 69  1  0  0  0
 57 70  1  0  0  0
 57 71  1  0  0  0
 58 72  1  0  0  0
 58 73  1  0  0  0
 59 74  1  0  0  0
 59 75  1  0  0  0
 61 76  1  0  0  0
 61 77  1  0  0  0
M  CHG  1  52   1
M  END
> <s_m_entry_id>
230

> <s_m_entry_name>
000000072.1

> <s_m_Source_Path>
/Users/zaksoul/Documents/3r_UNI/2nd_SEMESTER/BSC/FRAG_RECON/RESULTS/2

> <s_m_Source_File>
000000072.mol2

> <i_m_Source_File_Index>
1

$$$$
No_0_75
                    3D
 Schrodinger Suite 2022-4.
 73 78  0  0  1  0            999 V2000
   -4.9590    3.5950  -21.7080 C   0  0  0  0  0  0
   -5.2580    3.7750  -23.0370 C   0  0  0  0  0  0
   -3.7150    3.3330  -21.3970 C   0  0  0  0  0  0
   -2.8790    3.4330  -23.5860 C   0  0  0  0  0  0
   -2.6840    3.1990  -22.1680 C   0  0  0  0  0  0
   -4.2370    3.7040  -24.0740 C   0  0  0  0  0  0
   -3.5390    3.7000  -26.2910 C   0  0  0  0  0  0
    6.3160    2.9190  -21.2720 C   0  0  0  0  0  0
    6.1130    3.0410  -23.8180 C   0  0  0  0  0  0
   -4.5220    3.8220  -25.4030 C   0  0  0  0  0  0
    2.3340    3.6240  -23.7430 C   0  0  0  0  0  0
    1.5310    4.7430  -23.4320 C   0  0  0  0  0  0
    3.3580    5.9270  -22.8090 C   0  0  0  0  0  0
    3.7440    3.8040  -23.4670 C   0  0  0  0  0  0
    1.7610    2.5070  -24.3800 C   0  0  0  0  0  0
   -0.3550    3.3410  -24.2210 C   0  0  0  0  0  0
    0.1980    4.5610  -23.6470 C   0  0  0  0  0  0
   -1.8170    3.3570  -24.5380 C   0  0  0  0  0  0
    4.3340    1.3030  -23.1690 C   0  0  0  0  0  0
    5.2940    0.9490  -22.0440 C   0  0  2  0  0  0
    6.8860    2.4700  -22.6350 C   0  0  2  0  0  0
    5.3150    1.9600  -20.8860 C   0  0  0  0  0  0
   -2.1780    3.5080  -25.9590 C   0  0  0  0  0  0
   -1.3280    2.7780  -21.6000 C   0  0  0  0  0  0
   -0.2880    2.4250  -21.1180 C   0  0  0  0  0  0
   -0.6250    5.6170  -23.2900 F   0  0  0  0  0  0
   -3.4710    3.1000  -20.0180 F   0  0  0  0  0  0
    2.0330    5.9020  -22.9230 N   0  0  0  0  0  0
    4.2390    4.9540  -23.0440 N   0  0  0  0  0  0
    0.4460    2.4270  -24.6500 N   0  0  0  0  0  0
    4.6480    2.7460  -23.6590 N   0  0  0  0  0  0
    6.6880    0.9980  -22.5630 N   0  0  1  0  0  0
   -3.7470    3.7040  -27.6760 O   0  0  0  0  0  0
   -5.7414    3.6722  -20.9617 H   0  0  0  0  0  0
   -6.2787    3.9767  -23.3411 H   0  0  0  0  0  0
    5.8516    3.9105  -21.3780 H   0  0  0  0  0  0
    7.1220    2.9281  -20.5235 H   0  0  0  0  0  0
    6.4793    2.5848  -24.7495 H   0  0  0  0  0  0
    6.2655    4.1294  -23.8644 H   0  0  0  0  0  0
   -5.5391    4.0138  -25.7253 H   0  0  0  0  0  0
    2.3841    1.6691  -24.6710 H   0  0  0  0  0  0
    3.2998    1.2596  -22.7967 H   0  0  0  0  0  0
    4.4682    0.5966  -24.0015 H   0  0  0  0  0  0
    5.0700   -0.0578  -21.6617 H   0  0  0  0  0  0
    7.9554    2.7162  -22.7117 H   0  0  0  0  0  0
    4.3377    2.4608  -20.8214 H   0  0  0  0  0  0
    5.6349    1.4514  -19.9646 H   0  0  0  0  0  0
   -1.4281    3.4749  -26.7410 H   0  0  0  0  0  0
    0.6278    2.1141  -20.6941 H   0  0  0  0  0  0
    7.3495    0.5003  -21.8694 H   0  0  0  0  0  0
   -2.9143    3.6050  -28.1225 H   0  0  0  0  0  0
    5.8600    8.4470  -20.1450 N   0  3  0  0  0  0
    6.7250    9.4740  -22.1350 N   0  0  0  0  0  0
    3.6660    7.5850  -20.8830 C   0  0  0  0  0  0
    8.2400    8.3050  -20.6570 C   0  0  0  0  0  0
    3.9410    7.2650  -22.3670 C   0  0  0  0  0  0
    4.4610    8.7980  -20.3630 C   0  0  0  0  0  0
    6.8430    8.7790  -20.9970 C   0  0  0  0  0  0
    9.0880    9.4630  -20.1070 C   0  0  0  0  0  0
    6.0779    7.9182  -19.2884 H   0  0  0  0  0  0
    7.5585    9.6669  -22.7086 H   0  0  0  0  0  0
    5.8017    9.8161  -22.4371 H   0  0  0  0  0  0
    3.9021    6.7036  -20.2687 H   0  0  0  0  0  0
    2.5903    7.7669  -20.7420 H   0  0  0  0  0  0
    8.7191    7.8969  -21.5592 H   0  0  0  0  0  0
    8.1820    7.5042  -19.9051 H   0  0  0  0  0  0
    5.0264    7.2670  -22.5459 H   0  0  0  0  0  0
    3.5310    8.0681  -22.9970 H   0  0  0  0  0  0
    4.3990    9.6169  -21.0949 H   0  0  0  0  0  0
    4.0197    9.1483  -19.4183 H   0  0  0  0  0  0
   10.0972    9.0969  -19.8670 H   0  0  0  0  0  0
    9.1570   10.2590  -20.8630 H   0  0  0  0  0  0
    8.6170    9.8630  -19.1970 H   0  0  0  0  0  0
  1  2  2  0  0  0
  1  3  1  0  0  0
  1 34  1  0  0  0
  2  6  1  0  0  0
  2 35  1  0  0  0
  3  5  2  0  0  0
  3 27  1  0  0  0
  4  5  1  0  0  0
  4  6  2  0  0  0
  4 18  1  0  0  0
  5 24  1  0  0  0
  6 10  1  0  0  0
  7 10  2  0  0  0
  7 23  1  0  0  0
  7 33  1  0  0  0
  8 21  1  0  0  0
  8 22  1  0  0  0
  8 36  1  0  0  0
  8 37  1  0  0  0
  9 21  1  0  0  0
  9 31  1  0  0  0
  9 38  1  0  0  0
  9 39  1  0  0  0
 10 40  1  0  0  0
 11 12  1  0  0  0
 11 14  2  0  0  0
 11 15  1  0  0  0
 12 17  1  0  0  0
 12 28  2  0  0  0
 13 28  1  0  0  0
 13 29  2  0  0  0
 13 56  1  0  0  0
 14 29  1  0  0  0
 14 31  1  0  0  0
 15 30  2  0  0  0
 15 41  1  0  0  0
 16 17  2  0  0  0
 16 18  1  0  0  0
 16 30  1  0  0  0
 17 26  1  0  0  0
 18 23  2  0  0  0
 19 20  1  0  0  0
 19 31  1  0  0  0
 19 42  1  0  0  0
 19 43  1  0  0  0
 20 22  1  0  0  0
 20 32  1  0  0  0
 20 44  1  0  0  0
 21 32  1  0  0  0
 21 45  1  0  0  0
 22 46  1  0  0  0
 22 47  1  0  0  0
 23 48  1  0  0  0
 24 25  3  0  0  0
 25 49  1  0  0  0
 32 50  1  0  0  0
 33 51  1  0  0  0
 52 57  1  0  0  0
 52 58  2  0  0  0
 52 60  1  0  0  0
 53 58  1  0  0  0
 53 61  1  0  0  0
 53 62  1  0  0  0
 54 56  1  0  0  0
 54 57  1  0  0  0
 54 63  1  0  0  0
 54 64  1  0  0  0
 55 58  1  0  0  0
 55 59  1  0  0  0
 55 65  1  0  0  0
 55 66  1  0  0  0
 56 67  1  0  0  0
 56 68  1  0  0  0
 57 69  1  0  0  0
 57 70  1  0  0  0
 59 71  1  0  0  0
 59 72  1  0  0  0
 59 73  1  0  0  0
M  CHG  1  52   1
M  END
> <s_m_entry_id>
231

> <s_m_entry_name>
000000073.1

> <s_m_Source_Path>
/Users/zaksoul/Documents/3r_UNI/2nd_SEMESTER/BSC/FRAG_RECON/RESULTS/2

> <s_m_Source_File>
000000073.mol2

> <i_m_Source_File_Index>
1

$$$$
No_0_76
                    3D
 Schrodinger Suite 2022-4.
 73 78  0  0  1  0            999 V2000
   -5.1840    3.7440  -21.9110 C   0  0  0  0  0  0
   -5.4370    3.9240  -23.2500 C   0  0  0  0  0  0
   -3.9510    3.4810  -21.5580 C   0  0  0  0  0  0
   -3.0410    3.5790  -23.7170 C   0  0  0  0  0  0
   -2.8940    3.3450  -22.2930 C   0  0  0  0  0  0
   -4.3810    3.8510  -24.2520 C   0  0  0  0  0  0
   -3.6080    3.8460  -26.4440 C   0  0  0  0  0  0
    6.0700    3.0520  -21.0920 C   0  0  0  0  0  0
    5.9530    3.1740  -23.6440 C   0  0  0  0  0  0
   -4.6200    3.9700  -25.5900 C   0  0  0  0  0  0
    2.1750    3.7630  -23.6970 C   0  0  0  0  0  0
    1.3640    4.8820  -23.4140 C   0  0  0  0  0  0
    3.1690    6.0640  -22.7290 C   0  0  0  0  0  0
    3.5750    3.9410  -23.3740 C   0  0  0  0  0  0
    1.6220    2.6460  -24.3530 C   0  0  0  0  0  0
   -0.4970    3.4830  -24.2670 C   0  0  0  0  0  0
    0.0380    4.7030  -23.6740 C   0  0  0  0  0  0
   -1.9470    3.5020  -24.6330 C   0  0  0  0  0  0
    4.1510    1.4390  -23.0560 C   0  0  0  0  0  0
    5.0710    1.0830  -21.8990 C   0  0  2  0  0  0
    6.6850    2.6020  -22.4350 C   0  0  2  0  0  0
    5.0550    2.0940  -20.7400 C   0  0  0  0  0  0
   -2.2590    3.6530  -26.0650 C   0  0  0  0  0  0
   -1.5590    2.9220  -21.6800 C   0  0  0  0  0  0
   -0.5370    2.5670  -21.1630 C   0  0  0  0  0  0
   -0.7950    5.7600  -23.3450 F   0  0  0  0  0  0
   -3.7540    3.2480  -20.1720 F   0  0  0  0  0  0
    1.8490    6.0410  -22.8880 N   0  0  0  0  0  0
    4.0570    5.0900  -22.9340 N   0  0  0  0  0  0
    0.3170    2.5680  -24.6680 N   0  0  0  0  0  0
    4.4830    2.8820  -23.5350 N   0  0  0  0  0  0
    6.4820    1.1310  -22.3700 N   0  0  1  0  0  0
   -3.7690    3.8510  -27.8350 O   0  0  0  0  0  0
   -5.9914    3.8223  -21.1920 H   0  0  0  0  0  0
   -6.4465    4.1277  -23.5882 H   0  0  0  0  0  0
    5.6108    4.0441  -21.2141 H   0  0  0  0  0  0
    6.8498    3.0601  -20.3162 H   0  0  0  0  0  0
    6.3505    2.7169  -24.5622 H   0  0  0  0  0  0
    6.1085    4.2622  -23.6844 H   0  0  0  0  0  0
   -5.6255    4.1627  -25.9462 H   0  0  0  0  0  0
    2.2543    1.8079  -24.6230 H   0  0  0  0  0  0
    3.1050    1.3966  -22.7181 H   0  0  0  0  0  0
    4.3125    0.7325  -23.8836 H   0  0  0  0  0  0
    4.8328    0.0768  -21.5236 H   0  0  0  0  0  0
    7.7566    2.8472  -22.4754 H   0  0  0  0  0  0
    4.0768    2.5962  -20.7087 H   0  0  0  0  0  0
    5.3418    1.5851  -19.8079 H   0  0  0  0  0  0
   -1.4834    3.6179  -26.8215 H   0  0  0  0  0  0
    0.3636    2.2551  -20.7082 H   0  0  0  0  0  0
    7.1187    0.6321  -21.6543 H   0  0  0  0  0  0
   -2.9217    3.7500  -28.2527 H   0  0  0  0  0  0
    5.9780    8.5360  -20.3390 N   0  3  0  0  0  0
    6.3630    9.8090  -22.3380 N   0  0  0  0  0  0
    3.7420    7.5610  -20.7330 C   0  0  0  0  0  0
    8.2140    8.6440  -21.3060 C   0  0  0  0  0  0
    3.7390    7.4010  -22.2680 C   0  0  0  0  0  0
    4.5430    8.7850  -20.2490 C   0  0  0  0  0  0
    6.7490    9.0260  -21.3230 C   0  0  0  0  0  0
    9.0750    9.8150  -20.8080 C   0  0  0  0  0  0
    6.3950    7.9520  -19.6001 H   0  0  0  0  0  0
    7.0519   10.1240  -23.0359 H   0  0  0  0  0  0
    5.3776   10.0971  -22.4210 H   0  0  0  0  0  0
    4.1522    6.6505  -20.2718 H   0  0  0  0  0  0
    2.7057    7.6370  -20.3719 H   0  0  0  0  0  0
    8.5301    8.3620  -22.3212 H   0  0  0  0  0  0
    8.3580    7.7759  -20.6459 H   0  0  0  0  0  0
    4.7653    7.5120  -22.6481 H   0  0  0  0  0  0
    3.1610    8.2210  -22.7190 H   0  0  0  0  0  0
    4.2831    9.6587  -20.8648 H   0  0  0  0  0  0
    4.2750    9.0090  -19.2059 H   0  0  0  0  0  0
   10.1339    9.5170  -20.8040 H   0  0  0  0  0  0
    8.9410   10.6792  -21.4752 H   0  0  0  0  0  0
    8.7680   10.0900  -19.7881 H   0  0  0  0  0  0
  1  2  2  0  0  0
  1  3  1  0  0  0
  1 34  1  0  0  0
  2  6  1  0  0  0
  2 35  1  0  0  0
  3  5  2  0  0  0
  3 27  1  0  0  0
  4  5  1  0  0  0
  4  6  2  0  0  0
  4 18  1  0  0  0
  5 24  1  0  0  0
  6 10  1  0  0  0
  7 10  2  0  0  0
  7 23  1  0  0  0
  7 33  1  0  0  0
  8 21  1  0  0  0
  8 22  1  0  0  0
  8 36  1  0  0  0
  8 37  1  0  0  0
  9 21  1  0  0  0
  9 31  1  0  0  0
  9 38  1  0  0  0
  9 39  1  0  0  0
 10 40  1  0  0  0
 11 12  1  0  0  0
 11 14  2  0  0  0
 11 15  1  0  0  0
 12 17  1  0  0  0
 12 28  2  0  0  0
 13 28  1  0  0  0
 13 29  2  0  0  0
 13 56  1  0  0  0
 14 29  1  0  0  0
 14 31  1  0  0  0
 15 30  2  0  0  0
 15 41  1  0  0  0
 16 17  2  0  0  0
 16 18  1  0  0  0
 16 30  1  0  0  0
 17 26  1  0  0  0
 18 23  2  0  0  0
 19 20  1  0  0  0
 19 31  1  0  0  0
 19 42  1  0  0  0
 19 43  1  0  0  0
 20 22  1  0  0  0
 20 32  1  0  0  0
 20 44  1  0  0  0
 21 32  1  0  0  0
 21 45  1  0  0  0
 22 46  1  0  0  0
 22 47  1  0  0  0
 23 48  1  0  0  0
 24 25  3  0  0  0
 25 49  1  0  0  0
 32 50  1  0  0  0
 33 51  1  0  0  0
 52 57  1  0  0  0
 52 58  2  0  0  0
 52 60  1  0  0  0
 53 58  1  0  0  0
 53 61  1  0  0  0
 53 62  1  0  0  0
 54 56  1  0  0  0
 54 57  1  0  0  0
 54 63  1  0  0  0
 54 64  1  0  0  0
 55 58  1  0  0  0
 55 59  1  0  0  0
 55 65  1  0  0  0
 55 66  1  0  0  0
 56 67  1  0  0  0
 56 68  1  0  0  0
 57 69  1  0  0  0
 57 70  1  0  0  0
 59 71  1  0  0  0
 59 72  1  0  0  0
 59 73  1  0  0  0
M  CHG  1  52   1
M  END
> <s_m_entry_id>
232

> <s_m_entry_name>
000000074.1

> <s_m_Source_Path>
/Users/zaksoul/Documents/3r_UNI/2nd_SEMESTER/BSC/FRAG_RECON/RESULTS/2

> <s_m_Source_File>
000000074.mol2

> <i_m_Source_File_Index>
1

$$$$
No_0_77
                    3D
 Schrodinger Suite 2022-4.
 73 78  0  0  1  0            999 V2000
   -5.3300    3.5120  -22.2930 C   0  0  0  0  0  0
   -5.6020    3.6440  -23.6340 C   0  0  0  0  0  0
   -4.0860    3.2970  -21.9460 C   0  0  0  0  0  0
   -3.2010    3.3570  -24.1170 C   0  0  0  0  0  0
   -3.0330    3.1710  -22.6890 C   0  0  0  0  0  0
   -4.5540    3.5720  -24.6450 C   0  0  0  0  0  0
   -3.8040    3.5240  -26.8440 C   0  0  0  0  0  0
    5.9470    3.1870  -21.5780 C   0  0  0  0  0  0
    5.8010    3.2270  -24.1310 C   0  0  0  0  0  0
   -4.8110    3.6430  -25.9830 C   0  0  0  0  0  0
    2.0060    3.6990  -24.1600 C   0  0  0  0  0  0
    1.1640    4.8020  -23.9020 C   0  0  0  0  0  0
    2.9390    6.0590  -23.2730 C   0  0  0  0  0  0
    3.4030    3.9300  -23.8580 C   0  0  0  0  0  0
    1.4810    2.5470  -24.7760 C   0  0  0  0  0  0
   -0.6620    3.3220  -24.6920 C   0  0  0  0  0  0
   -0.1580    4.5740  -24.1420 C   0  0  0  0  0  0
   -2.1150    3.2850  -25.0420 C   0  0  0  0  0  0
    4.0590    1.4580  -23.4710 C   0  0  0  0  0  0
    5.0010    1.1650  -22.3140 C   0  0  2  0  0  0
    6.5630    2.7150  -22.9130 C   0  0  2  0  0  0
    4.9660    2.2100  -21.1860 C   0  0  0  0  0  0
   -2.4460    3.3830  -26.4750 C   0  0  0  0  0  0
   -1.6800    2.8080  -22.0780 C   0  0  0  0  0  0
   -0.6420    2.5000  -21.5610 C   0  0  0  0  0  0
   -1.0200    5.6150  -23.8360 F   0  0  0  0  0  0
   -3.8680    3.1130  -20.5560 F   0  0  0  0  0  0
    1.6190    5.9900  -23.4170 N   0  0  0  0  0  0
    3.8540    5.1060  -23.4580 N   0  0  0  0  0  0
    0.1760    2.4200  -25.0740 N   0  0  0  0  0  0
    4.3420    2.8940  -23.9960 N   0  0  0  0  0  0
    6.4060    1.2410  -22.8020 N   0  0  1  0  0  0
   -3.9790    3.4810  -28.2330 O   0  0  0  0  0  0
   -6.1314    3.5873  -21.5669 H   0  0  0  0  0  0
   -6.6208    3.8056  -23.9672 H   0  0  0  0  0  0
    5.4566    4.1607  -21.7243 H   0  0  0  0  0  0
    6.7344    3.2425  -20.8118 H   0  0  0  0  0  0
    6.2029    2.7554  -25.0399 H   0  0  0  0  0  0
    5.9221    4.3177  -24.2067 H   0  0  0  0  0  0
   -5.8252    3.7946  -26.3344 H   0  0  0  0  0  0
    2.1360    1.7205  -25.0268 H   0  0  0  0  0  0
    3.0181    1.3945  -23.1210 H   0  0  0  0  0  0
    4.2336    0.7315  -24.2783 H   0  0  0  0  0  0
    4.7982    0.1641  -21.9054 H   0  0  0  0  0  0
    7.6260    2.9916  -22.9726 H   0  0  0  0  0  0
    3.9733    2.6831  -21.1588 H   0  0  0  0  0  0
    5.2779    1.7387  -20.2423 H   0  0  0  0  0  0
   -1.6774    3.3489  -27.2386 H   0  0  0  0  0  0
    0.2723    2.2299  -21.1069 H   0  0  0  0  0  0
    7.0647    0.7844  -22.0781 H   0  0  0  0  0  0
   -3.1334    3.3929  -28.6568 H   0  0  0  0  0  0
    5.9930    8.7040  -21.4330 N   0  3  0  0  0  0
    5.7560   10.1130  -23.3620 N   0  0  0  0  0  0
    3.8330    7.5060  -21.3600 C   0  0  0  0  0  0
    7.9050    9.1110  -22.8890 C   0  0  0  0  0  0
    3.4730    7.4260  -22.8590 C   0  0  0  0  0  0
    4.6060    8.7860  -20.9870 C   0  0  0  0  0  0
    6.4500    9.3270  -22.5300 C   0  0  0  0  0  0
    8.7450   10.3450  -22.5210 C   0  0  0  0  0  0
    6.6318    8.1342  -20.8602 H   0  0  0  0  0  0
    6.2210   10.5380  -24.1769 H   0  0  0  0  0  0
    4.7567   10.2920  -23.1880 H   0  0  0  0  0  0
    4.4291    6.6249  -21.0800 H   0  0  0  0  0  0
    2.9133    7.4470  -20.7595 H   0  0  0  0  0  0
    7.9910    8.9191  -23.9687 H   0  0  0  0  0  0
    8.2894    8.2322  -22.3505 H   0  0  0  0  0  0
    4.3605    7.6701  -23.4613 H   0  0  0  0  0  0
    2.7257    8.1973  -23.0971 H   0  0  0  0  0  0
    4.1212    9.6556  -21.4548 H   0  0  0  0  0  0
    4.5790    8.9251  -19.8962 H   0  0  0  0  0  0
    9.7967   10.1671  -22.7899 H   0  0  0  0  0  0
    8.3699   11.2212  -23.0701 H   0  0  0  0  0  0
    8.6700   10.5301  -21.4393 H   0  0  0  0  0  0
  1  2  2  0  0  0
  1  3  1  0  0  0
  1 34  1  0  0  0
  2  6  1  0  0  0
  2 35  1  0  0  0
  3  5  2  0  0  0
  3 27  1  0  0  0
  4  5  1  0  0  0
  4  6  2  0  0  0
  4 18  1  0  0  0
  5 24  1  0  0  0
  6 10  1  0  0  0
  7 10  2  0  0  0
  7 23  1  0  0  0
  7 33  1  0  0  0
  8 21  1  0  0  0
  8 22  1  0  0  0
  8 36  1  0  0  0
  8 37  1  0  0  0
  9 21  1  0  0  0
  9 31  1  0  0  0
  9 38  1  0  0  0
  9 39  1  0  0  0
 10 40  1  0  0  0
 11 12  1  0  0  0
 11 14  2  0  0  0
 11 15  1  0  0  0
 12 17  1  0  0  0
 12 28  2  0  0  0
 13 28  1  0  0  0
 13 29  2  0  0  0
 13 56  1  0  0  0
 14 29  1  0  0  0
 14 31  1  0  0  0
 15 30  2  0  0  0
 15 41  1  0  0  0
 16 17  2  0  0  0
 16 18  1  0  0  0
 16 30  1  0  0  0
 17 26  1  0  0  0
 18 23  2  0  0  0
 19 20  1  0  0  0
 19 31  1  0  0  0
 19 42  1  0  0  0
 19 43  1  0  0  0
 20 22  1  0  0  0
 20 32  1  0  0  0
 20 44  1  0  0  0
 21 32  1  0  0  0
 21 45  1  0  0  0
 22 46  1  0  0  0
 22 47  1  0  0  0
 23 48  1  0  0  0
 24 25  3  0  0  0
 25 49  1  0  0  0
 32 50  1  0  0  0
 33 51  1  0  0  0
 52 57  1  0  0  0
 52 58  2  0  0  0
 52 60  1  0  0  0
 53 58  1  0  0  0
 53 61  1  0  0  0
 53 62  1  0  0  0
 54 56  1  0  0  0
 54 57  1  0  0  0
 54 63  1  0  0  0
 54 64  1  0  0  0
 55 58  1  0  0  0
 55 59  1  0  0  0
 55 65  1  0  0  0
 55 66  1  0  0  0
 56 67  1  0  0  0
 56 68  1  0  0  0
 57 69  1  0  0  0
 57 70  1  0  0  0
 59 71  1  0  0  0
 59 72  1  0  0  0
 59 73  1  0  0  0
M  CHG  1  52   1
M  END
> <s_m_entry_id>
233

> <s_m_entry_name>
000000075.1

> <s_m_Source_Path>
/Users/zaksoul/Documents/3r_UNI/2nd_SEMESTER/BSC/FRAG_RECON/RESULTS/2

> <s_m_Source_File>
000000075.mol2

> <i_m_Source_File_Index>
1

$$$$
No_0_78
                    3D
 Schrodinger Suite 2022-4.
 70 75  0  0  1  0            999 V2000
   -5.2950    3.6950  -21.9490 C   0  0  0  0  0  0
   -5.5690    3.8750  -23.2840 C   0  0  0  0  0  0
   -4.0570    3.4330  -21.6140 C   0  0  0  0  0  0
   -3.1790    3.5340  -23.7870 C   0  0  0  0  0  0
   -3.0110    3.2990  -22.3650 C   0  0  0  0  0  0
   -4.5280    3.8050  -24.3010 C   0  0  0  0  0  0
   -3.7870    3.8020  -26.5040 C   0  0  0  0  0  0
    5.9700    3.0200  -21.2980 C   0  0  0  0  0  0
    5.8150    3.1430  -23.8470 C   0  0  0  0  0  0
   -4.7870    3.9240  -25.6360 C   0  0  0  0  0  0
    2.0360    3.7260  -23.8440 C   0  0  0  0  0  0
    1.2270    4.8440  -23.5480 C   0  0  0  0  0  0
    3.0410    6.0290  -22.8900 C   0  0  0  0  0  0
    3.4400    3.9060  -23.5420 C   0  0  0  0  0  0
    1.4750    2.6090  -24.4930 C   0  0  0  0  0  0
   -0.6440    3.4430  -24.3740 C   0  0  0  0  0  0
   -0.1020    4.6630  -23.7890 C   0  0  0  0  0  0
   -2.0990    3.4590  -24.7190 C   0  0  0  0  0  0
    4.0240    1.4050  -23.2340 C   0  0  0  0  0  0
    4.9620    1.0500  -22.0910 C   0  0  2  0  0  0
    6.5660    2.5720  -22.6500 C   0  0  2  0  0  0
    4.9620    2.0610  -20.9310 C   0  0  0  0  0  0
   -2.4330    3.6100  -26.1460 C   0  0  0  0  0  0
   -1.6670    2.8780  -21.7730 C   0  0  0  0  0  0
   -0.6360    2.5250  -21.2710 C   0  0  0  0  0  0
   -0.9320    5.7180  -23.4470 F   0  0  0  0  0  0
   -3.8400    3.1990  -20.2320 F   0  0  0  0  0  0
    1.7180    6.0030  -23.0290 N   0  0  0  0  0  0
    3.9270    5.0560  -23.1080 N   0  0  0  0  0  0
    0.1660    2.5290  -24.7880 N   0  0  0  0  0  0
    4.3470    2.8480  -23.7160 N   0  0  0  0  0  0
    6.3660    1.1000  -22.5830 N   0  0  1  0  0  0
   -3.9690    3.8080  -27.8930 O   0  0  0  0  0  0
   -6.0915    3.7712  -21.2177 H   0  0  0  0  0  0
   -6.5838    4.0768  -23.6072 H   0  0  0  0  0  0
    5.5067    4.0111  -21.4121 H   0  0  0  0  0  0
    6.7613    3.0291  -20.5340 H   0  0  0  0  0  0
    6.1993    2.6881  -24.7719 H   0  0  0  0  0  0
    5.9683    4.2314  -23.8904 H   0  0  0  0  0  0
   -5.7981    4.1158  -25.9764 H   0  0  0  0  0  0
    2.1044    1.7718  -24.7721 H   0  0  0  0  0  0
    2.9832    1.3616  -22.8807 H   0  0  0  0  0  0
    4.1745    0.6991  -24.0641 H   0  0  0  0  0  0
    4.7320    0.0431  -21.7126 H   0  0  0  0  0  0
    7.6367    2.8182  -22.7055 H   0  0  0  0  0  0
    3.9830    2.5606  -20.8856 H   0  0  0  0  0  0
    5.2639    1.5512  -20.0042 H   0  0  0  0  0  0
   -1.6683    3.5779  -26.9137 H   0  0  0  0  0  0
    0.2712    2.2139  -20.8289 H   0  0  0  0  0  0
    7.0140    0.6017  -21.8772 H   0  0  0  0  0  0
   -3.1280    3.7081  -28.3234 H   0  0  0  0  0  0
    6.0280    8.7620  -21.3040 N   0  3  0  0  0  0
    7.2230    7.1690  -19.9710 N   0  0  0  0  0  0
    3.9860    7.3970  -20.9400 C   0  0  0  0  0  0
    4.7710    8.6700  -20.5710 C   0  0  0  0  0  0
    3.6160    7.3660  -22.4360 C   0  0  0  0  0  0
    7.1080    8.0360  -20.9840 C   0  0  0  0  0  0
    8.3050    8.2450  -21.8830 C   0  0  0  0  0  0
    6.0640    9.4170  -22.0981 H   0  0  0  0  0  0
    8.1095    6.6663  -19.8221 H   0  0  0  0  0  0
    6.4254    7.0039  -19.3405 H   0  0  0  0  0  0
    3.0693    7.3450  -20.3342 H   0  0  0  0  0  0
    4.5888    6.5103  -20.6941 H   0  0  0  0  0  0
    4.1555    9.5557  -20.7872 H   0  0  0  0  0  0
    4.9769    8.6720  -19.4904 H   0  0  0  0  0  0
    4.5057    7.6042  -23.0375 H   0  0  0  0  0  0
    2.8913    8.1657  -22.6489 H   0  0  0  0  0  0
    9.1357    7.6102  -21.5411 H   0  0  0  0  0  0
    8.0390    7.9760  -22.9159 H   0  0  0  0  0  0
    8.6110    9.3009  -21.8460 H   0  0  0  0  0  0
  1  2  2  0  0  0
  1  3  1  0  0  0
  1 34  1  0  0  0
  2  6  1  0  0  0
  2 35  1  0  0  0
  3  5  2  0  0  0
  3 27  1  0  0  0
  4  5  1  0  0  0
  4  6  2  0  0  0
  4 18  1  0  0  0
  5 24  1  0  0  0
  6 10  1  0  0  0
  7 10  2  0  0  0
  7 23  1  0  0  0
  7 33  1  0  0  0
  8 21  1  0  0  0
  8 22  1  0  0  0
  8 36  1  0  0  0
  8 37  1  0  0  0
  9 21  1  0  0  0
  9 31  1  0  0  0
  9 38  1  0  0  0
  9 39  1  0  0  0
 10 40  1  0  0  0
 11 12  1  0  0  0
 11 14  2  0  0  0
 11 15  1  0  0  0
 12 17  1  0  0  0
 12 28  2  0  0  0
 13 28  1  0  0  0
 13 29  2  0  0  0
 13 56  1  0  0  0
 14 29  1  0  0  0
 14 31  1  0  0  0
 15 30  2  0  0  0
 15 41  1  0  0  0
 16 17  2  0  0  0
 16 18  1  0  0  0
 16 30  1  0  0  0
 17 26  1  0  0  0
 18 23  2  0  0  0
 19 20  1  0  0  0
 19 31  1  0  0  0
 19 42  1  0  0  0
 19 43  1  0  0  0
 20 22  1  0  0  0
 20 32  1  0  0  0
 20 44  1  0  0  0
 21 32  1  0  0  0
 21 45  1  0  0  0
 22 46  1  0  0  0
 22 47  1  0  0  0
 23 48  1  0  0  0
 24 25  3  0  0  0
 25 49  1  0  0  0
 32 50  1  0  0  0
 33 51  1  0  0  0
 52 55  1  0  0  0
 52 57  2  0  0  0
 52 59  1  0  0  0
 53 57  1  0  0  0
 53 60  1  0  0  0
 53 61  1  0  0  0
 54 55  1  0  0  0
 54 56  1  0  0  0
 54 62  1  0  0  0
 54 63  1  0  0  0
 55 64  1  0  0  0
 55 65  1  0  0  0
 56 66  1  0  0  0
 56 67  1  0  0  0
 57 58  1  0  0  0
 58 68  1  0  0  0
 58 69  1  0  0  0
 58 70  1  0  0  0
M  CHG  1  52   1
M  END
> <s_m_entry_id>
234

> <s_m_entry_name>
000000076.1

> <s_m_Source_Path>
/Users/zaksoul/Documents/3r_UNI/2nd_SEMESTER/BSC/FRAG_RECON/RESULTS/2

> <s_m_Source_File>
000000076.mol2

> <i_m_Source_File_Index>
1

$$$$
No_0_79
                    3D
 Schrodinger Suite 2022-4.
 70 75  0  0  1  0            999 V2000
   -5.2370    3.4280  -21.9150 C   0  0  0  0  0  0
   -5.5220    3.6020  -23.2480 C   0  0  0  0  0  0
   -3.9900    3.2020  -21.5860 C   0  0  0  0  0  0
   -3.1260    3.3320  -23.7630 C   0  0  0  0  0  0
   -2.9440    3.1010  -22.3430 C   0  0  0  0  0  0
   -4.4840    3.5640  -24.2700 C   0  0  0  0  0  0
   -3.7550    3.5860  -26.4770 C   0  0  0  0  0  0
    6.0460    3.0860  -21.3180 C   0  0  0  0  0  0
    5.8760    3.2090  -23.8670 C   0  0  0  0  0  0
   -4.7530    3.6770  -25.6030 C   0  0  0  0  0  0
    2.0810    3.6790  -23.8440 C   0  0  0  0  0  0
    1.2410    4.7730  -23.5430 C   0  0  0  0  0  0
    3.0210    6.0090  -22.8910 C   0  0  0  0  0  0
    3.4800    3.9010  -23.5480 C   0  0  0  0  0  0
    1.5500    2.5470  -24.4920 C   0  0  0  0  0  0
   -0.5920    3.3170  -24.3620 C   0  0  0  0  0  0
   -0.0840    4.5520  -23.7770 C   0  0  0  0  0  0
   -2.0490    3.2910  -24.7000 C   0  0  0  0  0  0
    4.1410    1.4180  -23.2470 C   0  0  0  0  0  0
    5.0940    1.0890  -22.1090 C   0  0  2  0  0  0
    6.6490    2.6580  -22.6740 C   0  0  2  0  0  0
    5.0690    2.0970  -20.9480 C   0  0  0  0  0  0
   -2.3940    3.4340  -26.1250 C   0  0  0  0  0  0
   -1.5850    2.7190  -21.7570 C   0  0  0  0  0  0
   -0.5420    2.3960  -21.2610 C   0  0  0  0  0  0
   -0.9430    5.5820  -23.4300 F   0  0  0  0  0  0
   -3.7590    2.9730  -20.2050 F   0  0  0  0  0  0
    1.7000    5.9450  -23.0240 N   0  0  0  0  0  0
    3.9350    5.0640  -23.1160 N   0  0  0  0  0  0
    0.2430    2.4280  -24.7820 N   0  0  0  0  0  0
    4.4180    2.8710  -23.7290 N   0  0  0  0  0  0
    6.4940    1.1810  -22.6080 N   0  0  1  0  0  0
   -3.9440    3.5880  -27.8640 O   0  0  0  0  0  0
   -6.0317    3.4792  -21.1795 H   0  0  0  0  0  0
   -6.5439    3.7737  -23.5662 H   0  0  0  0  0  0
    5.5546    4.0638  -21.4290 H   0  0  0  0  0  0
    6.8405    3.1183  -20.5579 H   0  0  0  0  0  0
    6.2685    2.7661  -24.7942 H   0  0  0  0  0  0
    5.9961    4.3016  -23.9084 H   0  0  0  0  0  0
   -5.7708    3.8386  -25.9392 H   0  0  0  0  0  0
    2.2029    1.7296  -24.7758 H   0  0  0  0  0  0
    3.1033    1.3424  -22.8900 H   0  0  0  0  0  0
    4.3074    0.7180  -24.0791 H   0  0  0  0  0  0
    4.8952    0.0750  -21.7317 H   0  0  0  0  0  0
    7.7114    2.9365  -22.7345 H   0  0  0  0  0  0
    4.0763    2.5681  -20.8965 H   0  0  0  0  0  0
    5.3902    1.5960  -20.0229 H   0  0  0  0  0  0
   -1.6326    3.4250  -26.8965 H   0  0  0  0  0  0
    0.3763    2.1112  -20.8243 H   0  0  0  0  0  0
    7.1594    0.7017  -21.9052 H   0  0  0  0  0  0
   -3.1026    3.5148  -28.2990 H   0  0  0  0  0  0
    6.0330    8.9590  -21.8270 N   0  3  0  0  0  0
    7.7180    7.4240  -21.0870 N   0  0  0  0  0  0
    4.3330    7.2990  -21.1070 C   0  0  0  0  0  0
    5.0540    8.6250  -20.8000 C   0  0  0  0  0  0
    3.5590    7.3630  -22.4380 C   0  0  0  0  0  0
    7.2300    8.3610  -21.9080 C   0  0  0  0  0  0
    8.0930    8.8180  -23.0610 C   0  0  0  0  0  0
    5.7740    9.6870  -22.5080 H   0  0  0  0  0  0
    8.6577    7.0351  -21.2500 H   0  0  0  0  0  0
    7.1540    7.0910  -20.2920 H   0  0  0  0  0  0
    3.6362    7.0631  -20.2892 H   0  0  0  0  0  0
    5.0702    6.4838  -21.1510 H   0  0  0  0  0  0
    4.3133    9.4347  -20.7240 H   0  0  0  0  0  0
    5.5572    8.5510  -19.8246 H   0  0  0  0  0  0
    4.2111    7.7771  -23.2211 H   0  0  0  0  0  0
    2.7243    8.0728  -22.3410 H   0  0  0  0  0  0
    9.0482    8.2729  -23.0430 H   0  0  0  0  0  0
    7.5749    8.6160  -24.0101 H   0  0  0  0  0  0
    8.2851    9.8974  -22.9710 H   0  0  0  0  0  0
  1  2  2  0  0  0
  1  3  1  0  0  0
  1 34  1  0  0  0
  2  6  1  0  0  0
  2 35  1  0  0  0
  3  5  2  0  0  0
  3 27  1  0  0  0
  4  5  1  0  0  0
  4  6  2  0  0  0
  4 18  1  0  0  0
  5 24  1  0  0  0
  6 10  1  0  0  0
  7 10  2  0  0  0
  7 23  1  0  0  0
  7 33  1  0  0  0
  8 21  1  0  0  0
  8 22  1  0  0  0
  8 36  1  0  0  0
  8 37  1  0  0  0
  9 21  1  0  0  0
  9 31  1  0  0  0
  9 38  1  0  0  0
  9 39  1  0  0  0
 10 40  1  0  0  0
 11 12  1  0  0  0
 11 14  2  0  0  0
 11 15  1  0  0  0
 12 17  1  0  0  0
 12 28  2  0  0  0
 13 28  1  0  0  0
 13 29  2  0  0  0
 13 56  1  0  0  0
 14 29  1  0  0  0
 14 31  1  0  0  0
 15 30  2  0  0  0
 15 41  1  0  0  0
 16 17  2  0  0  0
 16 18  1  0  0  0
 16 30  1  0  0  0
 17 26  1  0  0  0
 18 23  2  0  0  0
 19 20  1  0  0  0
 19 31  1  0  0  0
 19 42  1  0  0  0
 19 43  1  0  0  0
 20 22  1  0  0  0
 20 32  1  0  0  0
 20 44  1  0  0  0
 21 32  1  0  0  0
 21 45  1  0  0  0
 22 46  1  0  0  0
 22 47  1  0  0  0
 23 48  1  0  0  0
 24 25  3  0  0  0
 25 49  1  0  0  0
 32 50  1  0  0  0
 33 51  1  0  0  0
 52 55  1  0  0  0
 52 57  2  0  0  0
 52 59  1  0  0  0
 53 57  1  0  0  0
 53 60  1  0  0  0
 53 61  1  0  0  0
 54 55  1  0  0  0
 54 56  1  0  0  0
 54 62  1  0  0  0
 54 63  1  0  0  0
 55 64  1  0  0  0
 55 65  1  0  0  0
 56 66  1  0  0  0
 56 67  1  0  0  0
 57 58  1  0  0  0
 58 68  1  0  0  0
 58 69  1  0  0  0
 58 70  1  0  0  0
M  CHG  1  52   1
M  END
> <s_m_entry_id>
235

> <s_m_entry_name>
000000077.1

> <s_m_Source_Path>
/Users/zaksoul/Documents/3r_UNI/2nd_SEMESTER/BSC/FRAG_RECON/RESULTS/2

> <s_m_Source_File>
000000077.mol2

> <i_m_Source_File_Index>
1

$$$$
No_0_80
                    3D
 Schrodinger Suite 2022-4.
 70 75  0  0  1  0            999 V2000
   -5.1810    3.6090  -21.8530 C   0  0  0  0  0  0
   -5.4520    3.8050  -23.1860 C   0  0  0  0  0  0
   -3.9420    3.3510  -21.5190 C   0  0  0  0  0  0
   -3.0590    3.4860  -23.6870 C   0  0  0  0  0  0
   -2.8930    3.2340  -22.2690 C   0  0  0  0  0  0
   -4.4090    3.7540  -24.2010 C   0  0  0  0  0  0
   -3.6630    3.7850  -26.4030 C   0  0  0  0  0  0
    6.0870    3.0010  -21.1820 C   0  0  0  0  0  0
    5.9380    3.1560  -23.7310 C   0  0  0  0  0  0
   -4.6650    3.8890  -25.5350 C   0  0  0  0  0  0
    2.1540    3.7130  -23.7290 C   0  0  0  0  0  0
    1.3370    4.8230  -23.4210 C   0  0  0  0  0  0
    3.1410    6.0110  -22.7430 C   0  0  0  0  0  0
    3.5570    3.8990  -23.4210 C   0  0  0  0  0  0
    1.6030    2.6010  -24.3930 C   0  0  0  0  0  0
   -0.5220    3.4190  -24.2700 C   0  0  0  0  0  0
    0.0100    4.6350  -23.6670 C   0  0  0  0  0  0
   -1.9770    3.4300  -24.6180 C   0  0  0  0  0  0
    4.1570    1.3990  -23.1440 C   0  0  0  0  0  0
    5.0950    1.0350  -22.0030 C   0  0  2  0  0  0
    6.6890    2.5740  -22.5390 C   0  0  2  0  0  0
    5.0840    2.0310  -20.8310 C   0  0  0  0  0  0
   -2.3080    3.5970  -26.0440 C   0  0  0  0  0  0
   -1.5470    2.8150  -21.6780 C   0  0  0  0  0  0
   -0.5150    2.4620  -21.1780 C   0  0  0  0  0  0
   -0.8280    5.6800  -23.3140 F   0  0  0  0  0  0
   -3.7260    3.1020  -20.1390 F   0  0  0  0  0  0
    1.8200    5.9780  -22.8860 N   0  0  0  0  0  0
    4.0350    5.0470  -22.9720 N   0  0  0  0  0  0
    0.2950    2.5160  -24.6930 N   0  0  0  0  0  0
    4.4710    2.8500  -23.6070 N   0  0  0  0  0  0
    6.5000    1.1010  -22.4910 N   0  0  1  0  0  0
   -3.8410    3.8060  -27.7920 O   0  0  0  0  0  0
   -5.9796    3.6712  -21.1226 H   0  0  0  0  0  0
   -6.4675    4.0037  -23.5091 H   0  0  0  0  0  0
    5.6179    3.9906  -21.2849 H   0  0  0  0  0  0
    6.8763    3.0060  -20.4159 H   0  0  0  0  0  0
    6.3275    2.7150  -24.6604 H   0  0  0  0  0  0
    6.0833    4.2460  -23.7593 H   0  0  0  0  0  0
   -5.6765    4.0776  -25.8762 H   0  0  0  0  0  0
    2.2385    1.7718  -24.6821 H   0  0  0  0  0  0
    3.1157    1.3435  -22.7939 H   0  0  0  0  0  0
    4.3144    0.7047  -23.9826 H   0  0  0  0  0  0
    4.8700    0.0218  -21.6387 H   0  0  0  0  0  0
    7.7578    2.8293  -22.5885 H   0  0  0  0  0  0
    4.1018    2.5236  -20.7805 H   0  0  0  0  0  0
    5.3877    1.5123  -19.9097 H   0  0  0  0  0  0
   -1.5411    3.5789  -26.8099 H   0  0  0  0  0  0
    0.3934    2.1519  -20.7378 H   0  0  0  0  0  0
    7.1492    0.5983  -21.7894 H   0  0  0  0  0  0
   -2.9984    3.7179  -28.2217 H   0  0  0  0  0  0
    6.1820    9.0380  -22.0420 N   0  3  0  0  0  0
    8.0560    7.5550  -21.8630 N   0  0  0  0  0  0
    4.7620    7.2040  -21.1570 C   0  0  0  0  0  0
    5.4740    8.5400  -20.8690 C   0  0  0  0  0  0
    3.7060    7.3460  -22.2710 C   0  0  0  0  0  0
    7.3550    8.5340  -22.4480 C   0  0  0  0  0  0
    7.9170    9.1590  -23.7040 C   0  0  0  0  0  0
    5.7452    9.8106  -22.5647 H   0  0  0  0  0  0
    8.9512    7.2489  -22.2701 H   0  0  0  0  0  0
    7.7000    7.1080  -21.0060 H   0  0  0  0  0  0
    4.2778    6.8429  -20.2377 H   0  0  0  0  0  0
    5.5060    6.4490  -21.4510 H   0  0  0  0  0  0
    4.7339    9.2861  -20.5440 H   0  0  0  0  0  0
    6.1857    8.4049  -20.0412 H   0  0  0  0  0  0
    4.1479    7.8789  -23.1258 H   0  0  0  0  0  0
    2.8840    7.9850  -21.9160 H   0  0  0  0  0  0
    8.8753    8.6809  -23.9551 H   0  0  0  0  0  0
    7.2080    9.0170  -24.5330 H   0  0  0  0  0  0
    8.0760   10.2349  -23.5390 H   0  0  0  0  0  0
  1  2  2  0  0  0
  1  3  1  0  0  0
  1 34  1  0  0  0
  2  6  1  0  0  0
  2 35  1  0  0  0
  3  5  2  0  0  0
  3 27  1  0  0  0
  4  5  1  0  0  0
  4  6  2  0  0  0
  4 18  1  0  0  0
  5 24  1  0  0  0
  6 10  1  0  0  0
  7 10  2  0  0  0
  7 23  1  0  0  0
  7 33  1  0  0  0
  8 21  1  0  0  0
  8 22  1  0  0  0
  8 36  1  0  0  0
  8 37  1  0  0  0
  9 21  1  0  0  0
  9 31  1  0  0  0
  9 38  1  0  0  0
  9 39  1  0  0  0
 10 40  1  0  0  0
 11 12  1  0  0  0
 11 14  2  0  0  0
 11 15  1  0  0  0
 12 17  1  0  0  0
 12 28  2  0  0  0
 13 28  1  0  0  0
 13 29  2  0  0  0
 13 56  1  0  0  0
 14 29  1  0  0  0
 14 31  1  0  0  0
 15 30  2  0  0  0
 15 41  1  0  0  0
 16 17  2  0  0  0
 16 18  1  0  0  0
 16 30  1  0  0  0
 17 26  1  0  0  0
 18 23  2  0  0  0
 19 20  1  0  0  0
 19 31  1  0  0  0
 19 42  1  0  0  0
 19 43  1  0  0  0
 20 22  1  0  0  0
 20 32  1  0  0  0
 20 44  1  0  0  0
 21 32  1  0  0  0
 21 45  1  0  0  0
 22 46  1  0  0  0
 22 47  1  0  0  0
 23 48  1  0  0  0
 24 25  3  0  0  0
 25 49  1  0  0  0
 32 50  1  0  0  0
 33 51  1  0  0  0
 52 55  1  0  0  0
 52 57  2  0  0  0
 52 59  1  0  0  0
 53 57  1  0  0  0
 53 60  1  0  0  0
 53 61  1  0  0  0
 54 55  1  0  0  0
 54 56  1  0  0  0
 54 62  1  0  0  0
 54 63  1  0  0  0
 55 64  1  0  0  0
 55 65  1  0  0  0
 56 66  1  0  0  0
 56 67  1  0  0  0
 57 58  1  0  0  0
 58 68  1  0  0  0
 58 69  1  0  0  0
 58 70  1  0  0  0
M  CHG  1  52   1
M  END
> <s_m_entry_id>
236

> <s_m_entry_name>
000000078.1

> <s_m_Source_Path>
/Users/zaksoul/Documents/3r_UNI/2nd_SEMESTER/BSC/FRAG_RECON/RESULTS/2

> <s_m_Source_File>
000000078.mol2

> <i_m_Source_File_Index>
1

$$$$
No_0_81
                    3D
 Schrodinger Suite 2022-4.
 70 75  0  0  1  0            999 V2000
   -5.1810    3.6090  -21.8530 C   0  0  0  0  0  0
   -5.4520    3.8050  -23.1860 C   0  0  0  0  0  0
   -3.9420    3.3510  -21.5190 C   0  0  0  0  0  0
   -3.0590    3.4860  -23.6870 C   0  0  0  0  0  0
   -2.8930    3.2340  -22.2690 C   0  0  0  0  0  0
   -4.4090    3.7540  -24.2010 C   0  0  0  0  0  0
   -3.6630    3.7850  -26.4030 C   0  0  0  0  0  0
    6.0870    3.0010  -21.1820 C   0  0  0  0  0  0
    5.9380    3.1560  -23.7310 C   0  0  0  0  0  0
   -4.6650    3.8890  -25.5350 C   0  0  0  0  0  0
    2.1540    3.7130  -23.7290 C   0  0  0  0  0  0
    1.3370    4.8230  -23.4210 C   0  0  0  0  0  0
    3.1410    6.0110  -22.7430 C   0  0  0  0  0  0
    3.5570    3.8990  -23.4210 C   0  0  0  0  0  0
    1.6030    2.6010  -24.3930 C   0  0  0  0  0  0
   -0.5220    3.4190  -24.2700 C   0  0  0  0  0  0
    0.0100    4.6350  -23.6670 C   0  0  0  0  0  0
   -1.9770    3.4300  -24.6180 C   0  0  0  0  0  0
    4.1570    1.3990  -23.1440 C   0  0  0  0  0  0
    5.0950    1.0350  -22.0030 C   0  0  2  0  0  0
    6.6890    2.5740  -22.5390 C   0  0  2  0  0  0
    5.0840    2.0310  -20.8310 C   0  0  0  0  0  0
   -2.3080    3.5970  -26.0440 C   0  0  0  0  0  0
   -1.5470    2.8150  -21.6780 C   0  0  0  0  0  0
   -0.5150    2.4620  -21.1780 C   0  0  0  0  0  0
   -0.8280    5.6800  -23.3140 F   0  0  0  0  0  0
   -3.7260    3.1020  -20.1390 F   0  0  0  0  0  0
    1.8200    5.9780  -22.8860 N   0  0  0  0  0  0
    4.0350    5.0470  -22.9720 N   0  0  0  0  0  0
    0.2950    2.5160  -24.6930 N   0  0  0  0  0  0
    4.4710    2.8500  -23.6070 N   0  0  0  0  0  0
    6.5000    1.1010  -22.4910 N   0  0  1  0  0  0
   -3.8410    3.8060  -27.7920 O   0  0  0  0  0  0
   -5.9796    3.6712  -21.1226 H   0  0  0  0  0  0
   -6.4675    4.0037  -23.5091 H   0  0  0  0  0  0
    5.6179    3.9906  -21.2849 H   0  0  0  0  0  0
    6.8763    3.0060  -20.4159 H   0  0  0  0  0  0
    6.3275    2.7150  -24.6604 H   0  0  0  0  0  0
    6.0833    4.2460  -23.7593 H   0  0  0  0  0  0
   -5.6765    4.0776  -25.8762 H   0  0  0  0  0  0
    2.2385    1.7718  -24.6821 H   0  0  0  0  0  0
    3.1157    1.3435  -22.7939 H   0  0  0  0  0  0
    4.3144    0.7047  -23.9826 H   0  0  0  0  0  0
    4.8700    0.0218  -21.6387 H   0  0  0  0  0  0
    7.7578    2.8293  -22.5885 H   0  0  0  0  0  0
    4.1018    2.5236  -20.7805 H   0  0  0  0  0  0
    5.3877    1.5123  -19.9097 H   0  0  0  0  0  0
   -1.5411    3.5789  -26.8099 H   0  0  0  0  0  0
    0.3934    2.1519  -20.7378 H   0  0  0  0  0  0
    7.1492    0.5983  -21.7894 H   0  0  0  0  0  0
   -2.9984    3.7179  -28.2217 H   0  0  0  0  0  0
    6.0450    9.2310  -22.4220 N   0  3  0  0  0  0
    8.0080    7.9150  -22.8220 N   0  0  0  0  0  0
    4.9980    7.2050  -21.4410 C   0  0  0  0  0  0
    5.6620    8.5700  -21.1810 C   0  0  0  0  0  0
    3.7060    7.3460  -22.2710 C   0  0  0  0  0  0
    7.1250    8.8720  -23.1310 C   0  0  0  0  0  0
    7.3370    9.6520  -24.4070 C   0  0  0  0  0  0
    5.4468   10.0022  -22.7511 H   0  0  0  0  0  0
    8.8042    7.7280  -23.4481 H   0  0  0  0  0  0
    7.8910    7.3650  -21.9590 H   0  0  0  0  0  0
    4.7641    6.7231  -20.4802 H   0  0  0  0  0  0
    5.7041    6.5489  -21.9711 H   0  0  0  0  0  0
    4.9680    9.2150  -20.6220 H   0  0  0  0  0  0
    6.5532    8.4290  -20.5518 H   0  0  0  0  0  0
    3.9010    7.9890  -23.1420 H   0  0  0  0  0  0
    2.9458    7.8742  -21.6768 H   0  0  0  0  0  0
    8.2423    9.2869  -24.9141 H   0  0  0  0  0  0
    6.4679    9.5190  -25.0681 H   0  0  0  0  0  0
    7.4560   10.7196  -24.1701 H   0  0  0  0  0  0
  1  2  2  0  0  0
  1  3  1  0  0  0
  1 34  1  0  0  0
  2  6  1  0  0  0
  2 35  1  0  0  0
  3  5  2  0  0  0
  3 27  1  0  0  0
  4  5  1  0  0  0
  4  6  2  0  0  0
  4 18  1  0  0  0
  5 24  1  0  0  0
  6 10  1  0  0  0
  7 10  2  0  0  0
  7 23  1  0  0  0
  7 33  1  0  0  0
  8 21  1  0  0  0
  8 22  1  0  0  0
  8 36  1  0  0  0
  8 37  1  0  0  0
  9 21  1  0  0  0
  9 31  1  0  0  0
  9 38  1  0  0  0
  9 39  1  0  0  0
 10 40  1  0  0  0
 11 12  1  0  0  0
 11 14  2  0  0  0
 11 15  1  0  0  0
 12 17  1  0  0  0
 12 28  2  0  0  0
 13 28  1  0  0  0
 13 29  2  0  0  0
 13 56  1  0  0  0
 14 29  1  0  0  0
 14 31  1  0  0  0
 15 30  2  0  0  0
 15 41  1  0  0  0
 16 17  2  0  0  0
 16 18  1  0  0  0
 16 30  1  0  0  0
 17 26  1  0  0  0
 18 23  2  0  0  0
 19 20  1  0  0  0
 19 31  1  0  0  0
 19 42  1  0  0  0
 19 43  1  0  0  0
 20 22  1  0  0  0
 20 32  1  0  0  0
 20 44  1  0  0  0
 21 32  1  0  0  0
 21 45  1  0  0  0
 22 46  1  0  0  0
 22 47  1  0  0  0
 23 48  1  0  0  0
 24 25  3  0  0  0
 25 49  1  0  0  0
 32 50  1  0  0  0
 33 51  1  0  0  0
 52 55  1  0  0  0
 52 57  2  0  0  0
 52 59  1  0  0  0
 53 57  1  0  0  0
 53 60  1  0  0  0
 53 61  1  0  0  0
 54 55  1  0  0  0
 54 56  1  0  0  0
 54 62  1  0  0  0
 54 63  1  0  0  0
 55 64  1  0  0  0
 55 65  1  0  0  0
 56 66  1  0  0  0
 56 67  1  0  0  0
 57 58  1  0  0  0
 58 68  1  0  0  0
 58 69  1  0  0  0
 58 70  1  0  0  0
M  CHG  1  52   1
M  END
> <s_m_entry_id>
237

> <s_m_entry_name>
000000079.1

> <s_m_Source_Path>
/Users/zaksoul/Documents/3r_UNI/2nd_SEMESTER/BSC/FRAG_RECON/RESULTS/2

> <s_m_Source_File>
000000079.mol2

> <i_m_Source_File_Index>
1

$$$$
No_0_85
                    3D
 Schrodinger Suite 2022-4.
 75 81  0  0  1  0            999 V2000
   -5.3520    3.5830  -21.7640 C   0  0  0  0  0  0
   -5.6520    3.7310  -23.0980 C   0  0  0  0  0  0
   -4.1050    3.3410  -21.4470 C   0  0  0  0  0  0
   -3.2680    3.4010  -23.6370 C   0  0  0  0  0  0
   -3.0720    3.2010  -22.2140 C   0  0  0  0  0  0
   -4.6290    3.6470  -24.1320 C   0  0  0  0  0  0
   -3.9290    3.6020  -26.3480 C   0  0  0  0  0  0
    5.9290    3.0330  -21.3060 C   0  0  0  0  0  0
    5.7270    3.0980  -23.8550 C   0  0  0  0  0  0
   -4.9130    3.7340  -25.4640 C   0  0  0  0  0  0
    1.9430    3.6430  -23.7940 C   0  0  0  0  0  0
    1.1280    4.7600  -23.5090 C   0  0  0  0  0  0
    2.9410    5.9770  -22.9110 C   0  0  0  0  0  0
    3.3500    3.8440  -23.5220 C   0  0  0  0  0  0
    1.3810    2.5060  -24.4070 C   0  0  0  0  0  0
   -0.7440    3.3220  -24.2690 C   0  0  0  0  0  0
   -0.2030    4.5600  -23.7210 C   0  0  0  0  0  0
   -2.2050    3.3160  -24.5870 C   0  0  0  0  0  0
    3.9660    1.3560  -23.1690 C   0  0  0  0  0  0
    4.9280    1.0360  -22.0360 C   0  0  2  0  0  0
    6.5050    2.5610  -22.6590 C   0  0  2  0  0  0
    4.9380    2.0730  -20.9000 C   0  0  0  0  0  0
   -2.5660    3.4320  -26.0100 C   0  0  0  0  0  0
   -1.7130    2.8060  -21.6370 C   0  0  0  0  0  0
   -0.6690    2.4750  -21.1460 C   0  0  0  0  0  0
   -1.0380    5.6150  -23.3870 F   0  0  0  0  0  0
   -3.8600    3.1410  -20.0630 F   0  0  0  0  0  0
    1.6170    5.9350  -23.0250 N   0  0  0  0  0  0
    3.8330    5.0080  -23.1240 N   0  0  0  0  0  0
    0.0680    2.4070  -24.6770 N   0  0  0  0  0  0
    4.2650    2.7910  -23.6900 N   0  0  0  0  0  0
    6.3220    1.0890  -22.5550 N   0  0  1  0  0  0
   -4.1360    3.5740  -27.7320 O   0  0  0  0  0  0
   -6.1359    3.6683  -21.0202 H   0  0  0  0  0  0
   -6.6748    3.9149  -23.4064 H   0  0  0  0  0  0
    5.4546    4.0171  -21.4342 H   0  0  0  0  0  0
    6.7342    3.0673  -20.5573 H   0  0  0  0  0  0
    6.0994    2.6247  -24.7755 H   0  0  0  0  0  0
    5.8684    4.1866  -23.9247 H   0  0  0  0  0  0
   -5.9321    3.9075  -25.7900 H   0  0  0  0  0  0
    2.0140    1.6694  -24.6799 H   0  0  0  0  0  0
    2.9319    1.3106  -22.7967 H   0  0  0  0  0  0
    4.1084    0.6331  -23.9858 H   0  0  0  0  0  0
    4.7140    0.0358  -21.6313 H   0  0  0  0  0  0
    7.5719    2.8164  -22.7397 H   0  0  0  0  0  0
    3.9553    2.5644  -20.8465 H   0  0  0  0  0  0
    5.2619    1.5876  -19.9676 H   0  0  0  0  0  0
   -1.8158    3.3889  -26.7913 H   0  0  0  0  0  0
    0.2492    2.1829  -20.7139 H   0  0  0  0  0  0
    6.9881    0.6132  -21.8504 H   0  0  0  0  0  0
   -3.3022    3.4741  -28.1761 H   0  0  0  0  0  0
    6.0650    8.6220  -21.0330 N   0  0  0  0  0  0
    6.7260    7.0510  -19.3580 N   0  0  0  0  0  0
    6.3910    9.4300  -22.1020 N   0  0  0  0  0  0
    3.8970    7.3630  -21.0070 C   0  0  0  0  0  0
    8.3330    7.9350  -20.9100 C   0  0  0  0  0  0
    3.5110    7.3300  -22.4980 C   0  0  0  0  0  0
    4.6650    8.6420  -20.6210 C   0  0  0  0  0  0
    7.6230    9.4980  -22.5670 C   0  0  0  0  0  0
    7.0230    7.8670  -20.4250 C   0  0  0  0  0  0
    8.6260    8.7400  -21.9680 C   0  0  0  0  0  0
    9.4750    7.1370  -20.3030 C   0  0  0  0  0  0
    7.4686    6.4903  -18.9163 H   0  0  0  0  0  0
    5.7608    7.0000  -19.0019 H   0  0  0  0  0  0
    4.5102    6.4817  -20.7679 H   0  0  0  0  0  0
    2.9883    7.2840  -20.3922 H   0  0  0  0  0  0
    4.3964    7.5561  -23.1103 H   0  0  0  0  0  0
    2.7690    8.1160  -22.7020 H   0  0  0  0  0  0
    4.1660    9.5160  -21.0650 H   0  0  0  0  0  0
    4.6070    8.7880  -19.5323 H   0  0  0  0  0  0
    7.8490   10.1421  -23.4091 H   0  0  0  0  0  0
    9.6410    8.7920  -22.3450 H   0  0  0  0  0  0
   10.4051    7.3530  -20.8491 H   0  0  0  0  0  0
    9.5980    7.4169  -19.2463 H   0  0  0  0  0  0
    9.2501    6.0625  -20.3730 H   0  0  0  0  0  0
  1  2  2  0  0  0
  1  3  1  0  0  0
  1 34  1  0  0  0
  2  6  1  0  0  0
  2 35  1  0  0  0
  3  5  2  0  0  0
  3 27  1  0  0  0
  4  5  1  0  0  0
  4  6  2  0  0  0
  4 18  1  0  0  0
  5 24  1  0  0  0
  6 10  1  0  0  0
  7 10  2  0  0  0
  7 23  1  0  0  0
  7 33  1  0  0  0
  8 21  1  0  0  0
  8 22  1  0  0  0
  8 36  1  0  0  0
  8 37  1  0  0  0
  9 21  1  0  0  0
  9 31  1  0  0  0
  9 38  1  0  0  0
  9 39  1  0  0  0
 10 40  1  0  0  0
 11 12  2  0  0  0
 11 14  1  0  0  0
 11 15  1  0  0  0
 12 17  1  0  0  0
 12 28  1  0  0  0
 13 28  2  0  0  0
 13 29  1  0  0  0
 13 57  1  0  0  0
 14 29  2  0  0  0
 14 31  1  0  0  0
 15 30  2  0  0  0
 15 41  1  0  0  0
 16 17  2  0  0  0
 16 18  1  0  0  0
 16 30  1  0  0  0
 17 26  1  0  0  0
 18 23  2  0  0  0
 19 20  1  0  0  0
 19 31  1  0  0  0
 19 42  1  0  0  0
 19 43  1  0  0  0
 20 22  1  0  0  0
 20 32  1  0  0  0
 20 44  1  0  0  0
 21 32  1  0  0  0
 21 45  1  0  0  0
 22 46  1  0  0  0
 22 47  1  0  0  0
 23 48  1  0  0  0
 24 25  3  0  0  0
 25 49  1  0  0  0
 32 50  1  0  0  0
 33 51  1  0  0  0
 52 54  1  0  0  0
 52 58  1  0  0  0
 52 60  1  0  0  0
 53 60  1  0  0  0
 53 63  1  0  0  0
 53 64  1  0  0  0
 54 59  2  0  0  0
 55 57  1  0  0  0
 55 58  1  0  0  0
 55 65  1  0  0  0
 55 66  1  0  0  0
 56 60  2  0  0  0
 56 61  1  0  0  0
 56 62  1  0  0  0
 57 67  1  0  0  0
 57 68  1  0  0  0
 58 69  1  0  0  0
 58 70  1  0  0  0
 59 61  1  0  0  0
 59 71  1  0  0  0
 61 72  1  0  0  0
 62 73  1  0  0  0
 62 74  1  0  0  0
 62 75  1  0  0  0
M  END
> <s_m_entry_id>
238

> <s_m_entry_name>
000000080.1

> <s_m_Source_Path>
/Users/zaksoul/Documents/3r_UNI/2nd_SEMESTER/BSC/FRAG_RECON/RESULTS/2

> <s_m_Source_File>
000000080.mol2

> <i_m_Source_File_Index>
1

$$$$
No_0_86
                    3D
 Schrodinger Suite 2022-4.
 75 81  0  0  1  0            999 V2000
   -5.3070    3.4100  -22.0610 C   0  0  0  0  0  0
   -5.5810    3.5610  -23.4000 C   0  0  0  0  0  0
   -4.0600    3.2030  -21.7190 C   0  0  0  0  0  0
   -3.1780    3.3080  -23.8890 C   0  0  0  0  0  0
   -3.0070    3.1010  -22.4640 C   0  0  0  0  0  0
   -4.5340    3.5170  -24.4120 C   0  0  0  0  0  0
   -3.7850    3.5120  -26.6120 C   0  0  0  0  0  0
    5.9740    3.1960  -21.3610 C   0  0  0  0  0  0
    5.8250    3.2760  -23.9120 C   0  0  0  0  0  0
   -4.7930    3.6070  -25.7490 C   0  0  0  0  0  0
    2.0250    3.7070  -23.9310 C   0  0  0  0  0  0
    1.1710    4.7970  -23.6540 C   0  0  0  0  0  0
    2.9330    6.0620  -23.0070 C   0  0  0  0  0  0
    3.4200    3.9480  -23.6260 C   0  0  0  0  0  0
    1.5120    2.5590  -24.5650 C   0  0  0  0  0  0
   -0.6390    3.3090  -24.4660 C   0  0  0  0  0  0
   -0.1490    4.5590  -23.8970 C   0  0  0  0  0  0
   -2.0920    3.2630  -24.8160 C   0  0  0  0  0  0
    4.1030    1.4770  -23.2800 C   0  0  0  0  0  0
    5.0490    1.1760  -22.1280 C   0  0  2  0  0  0
    6.5930    2.7530  -22.7040 C   0  0  2  0  0  0
    5.0030    2.2030  -20.9840 C   0  0  0  0  0  0
   -2.4260    3.3800  -26.2470 C   0  0  0  0  0  0
   -1.6490    2.7420  -21.8600 C   0  0  0  0  0  0
   -0.6070    2.4380  -21.3500 C   0  0  0  0  0  0
   -1.0210    5.5850  -23.5730 F   0  0  0  0  0  0
   -3.8390    2.9990  -20.3320 F   0  0  0  0  0  0
    1.6140    5.9820  -23.1500 N   0  0  0  0  0  0
    3.8580    5.1230  -23.2080 N   0  0  0  0  0  0
    0.2080    2.4230  -24.8640 N   0  0  0  0  0  0
    4.3690    2.9250  -23.7820 N   0  0  0  0  0  0
    6.4520    1.2760  -22.6160 N   0  0  1  0  0  0
   -3.9620    3.4900  -28.0020 O   0  0  0  0  0  0
   -6.1088    3.4653  -21.3336 H   0  0  0  0  0  0
   -6.6020    3.7166  -23.7293 H   0  0  0  0  0  0
    5.4727    4.1664  -21.4911 H   0  0  0  0  0  0
    6.7610    3.2475  -20.5942 H   0  0  0  0  0  0
    6.2306    2.8240  -24.8292 H   0  0  0  0  0  0
    5.9340    4.3690  -23.9705 H   0  0  0  0  0  0
   -5.8094    3.7526  -26.0965 H   0  0  0  0  0  0
    2.1756    1.7438  -24.8300 H   0  0  0  0  0  0
    3.0633    1.3963  -22.9301 H   0  0  0  0  0  0
    4.2836    0.7656  -24.0993 H   0  0  0  0  0  0
    4.8571    0.1662  -21.7362 H   0  0  0  0  0  0
    7.6530    3.0417  -22.7595 H   0  0  0  0  0  0
    4.0050    2.6642  -20.9487 H   0  0  0  0  0  0
    5.3218    1.7197  -20.0487 H   0  0  0  0  0  0
   -1.6580    3.3670  -27.0119 H   0  0  0  0  0  0
    0.3103    2.1699  -20.9008 H   0  0  0  0  0  0
    7.1161    0.8140  -21.9005 H   0  0  0  0  0  0
   -3.1157    3.4187  -28.4276 H   0  0  0  0  0  0
    6.1040    8.8420  -21.4240 N   0  0  0  0  0  0
    7.1610    7.2190  -20.0240 N   0  0  0  0  0  0
    6.1800    9.7550  -22.4540 N   0  0  0  0  0  0
    4.0790    7.3860  -21.1630 C   0  0  0  0  0  0
    8.4070    8.3660  -21.7280 C   0  0  0  0  0  0
    3.4530    7.4280  -22.5700 C   0  0  0  0  0  0
    4.7950    8.6980  -20.7920 C   0  0  0  0  0  0
    7.3060    9.9750  -23.1020 C   0  0  0  0  0  0
    7.2070    8.1380  -21.0470 C   0  0  0  0  0  0
    8.4530    9.2720  -22.7430 C   0  0  0  0  0  0
    9.6960    7.6360  -21.3860 C   0  0  0  0  0  0
    8.0102    6.6999  -19.7589 H   0  0  0  0  0  0
    6.2764    7.0501  -19.5242 H   0  0  0  0  0  0
    4.7929    6.5511  -21.1060 H   0  0  0  0  0  0
    3.2955    7.1739  -20.4206 H   0  0  0  0  0  0
    4.2011    7.7830  -23.2941 H   0  0  0  0  0  0
    2.6264    8.1537  -22.5810 H   0  0  0  0  0  0
    4.1600    9.5521  -21.0700 H   0  0  0  0  0  0
    4.9081    8.7560  -19.6994 H   0  0  0  0  0  0
    7.3350   10.6991  -23.9081 H   0  0  0  0  0  0
    9.3832    9.4480  -23.2711 H   0  0  0  0  0  0
   10.5013    7.9791  -22.0522 H   0  0  0  0  0  0
    9.9708    7.8458  -20.3418 H   0  0  0  0  0  0
    9.5501    6.5534  -21.5150 H   0  0  0  0  0  0
  1  2  2  0  0  0
  1  3  1  0  0  0
  1 34  1  0  0  0
  2  6  1  0  0  0
  2 35  1  0  0  0
  3  5  2  0  0  0
  3 27  1  0  0  0
  4  5  1  0  0  0
  4  6  2  0  0  0
  4 18  1  0  0  0
  5 24  1  0  0  0
  6 10  1  0  0  0
  7 10  2  0  0  0
  7 23  1  0  0  0
  7 33  1  0  0  0
  8 21  1  0  0  0
  8 22  1  0  0  0
  8 36  1  0  0  0
  8 37  1  0  0  0
  9 21  1  0  0  0
  9 31  1  0  0  0
  9 38  1  0  0  0
  9 39  1  0  0  0
 10 40  1  0  0  0
 11 12  2  0  0  0
 11 14  1  0  0  0
 11 15  1  0  0  0
 12 17  1  0  0  0
 12 28  1  0  0  0
 13 28  2  0  0  0
 13 29  1  0  0  0
 13 57  1  0  0  0
 14 29  2  0  0  0
 14 31  1  0  0  0
 15 30  2  0  0  0
 15 41  1  0  0  0
 16 17  2  0  0  0
 16 18  1  0  0  0
 16 30  1  0  0  0
 17 26  1  0  0  0
 18 23  2  0  0  0
 19 20  1  0  0  0
 19 31  1  0  0  0
 19 42  1  0  0  0
 19 43  1  0  0  0
 20 22  1  0  0  0
 20 32  1  0  0  0
 20 44  1  0  0  0
 21 32  1  0  0  0
 21 45  1  0  0  0
 22 46  1  0  0  0
 22 47  1  0  0  0
 23 48  1  0  0  0
 24 25  3  0  0  0
 25 49  1  0  0  0
 32 50  1  0  0  0
 33 51  1  0  0  0
 52 54  1  0  0  0
 52 58  1  0  0  0
 52 60  1  0  0  0
 53 60  1  0  0  0
 53 63  1  0  0  0
 53 64  1  0  0  0
 54 59  2  0  0  0
 55 57  1  0  0  0
 55 58  1  0  0  0
 55 65  1  0  0  0
 55 66  1  0  0  0
 56 60  2  0  0  0
 56 61  1  0  0  0
 56 62  1  0  0  0
 57 67  1  0  0  0
 57 68  1  0  0  0
 58 69  1  0  0  0
 58 70  1  0  0  0
 59 61  1  0  0  0
 59 71  1  0  0  0
 61 72  1  0  0  0
 62 73  1  0  0  0
 62 74  1  0  0  0
 62 75  1  0  0  0
M  END
> <s_m_entry_id>
239

> <s_m_entry_name>
000000081.1

> <s_m_Source_Path>
/Users/zaksoul/Documents/3r_UNI/2nd_SEMESTER/BSC/FRAG_RECON/RESULTS/2

> <s_m_Source_File>
000000081.mol2

> <i_m_Source_File_Index>
1

$$$$
No_0_87
                    3D
 Schrodinger Suite 2022-4.
 75 81  0  0  1  0            999 V2000
   -5.4060    3.5200  -22.2750 C   0  0  0  0  0  0
   -5.6600    3.6720  -23.6180 C   0  0  0  0  0  0
   -4.1710    3.2730  -21.9170 C   0  0  0  0  0  0
   -3.2610    3.3350  -24.0770 C   0  0  0  0  0  0
   -3.1130    3.1300  -22.6490 C   0  0  0  0  0  0
   -4.6030    3.5870  -24.6170 C   0  0  0  0  0  0
   -3.8290    3.5440  -26.8080 C   0  0  0  0  0  0
    5.8520    2.9260  -21.4390 C   0  0  0  0  0  0
    5.7360    2.9970  -23.9920 C   0  0  0  0  0  0
   -4.8420    3.6780  -25.9580 C   0  0  0  0  0  0
    1.9530    3.5570  -24.0580 C   0  0  0  0  0  0
    1.1340    4.6760  -23.7980 C   0  0  0  0  0  0
    2.9300    5.8850  -23.1360 C   0  0  0  0  0  0
    3.3520    3.7520  -23.7380 C   0  0  0  0  0  0
    1.4090    2.4230  -24.6930 C   0  0  0  0  0  0
   -0.7160    3.2470  -24.6240 C   0  0  0  0  0  0
   -0.1900    4.4820  -24.0550 C   0  0  0  0  0  0
   -2.1660    3.2480  -24.9910 C   0  0  0  0  0  0
    3.9460    1.2610  -23.3710 C   0  0  0  0  0  0
    4.8680    0.9350  -22.2060 C   0  0  2  0  0  0
    6.4710    2.4540  -22.7720 C   0  0  2  0  0  0
    4.8430    1.9690  -21.0680 C   0  0  0  0  0  0
   -2.4790    3.3680  -26.4260 C   0  0  0  0  0  0
   -1.7760    2.7290  -22.0270 C   0  0  0  0  0  0
   -0.7510    2.3930  -21.5030 C   0  0  0  0  0  0
   -1.0310    5.5390  -23.7470 F   0  0  0  0  0  0
   -3.9740    3.0690  -20.5260 F   0  0  0  0  0  0
    1.6100    5.8480  -23.2950 N   0  0  0  0  0  0
    3.8250    4.9130  -23.3210 N   0  0  0  0  0  0
    0.1050    2.3300  -25.0070 N   0  0  0  0  0  0
    4.2670    2.6960  -23.8780 N   0  0  0  0  0  0
    6.2790    0.9830  -22.6780 N   0  0  1  0  0  0
   -3.9890    3.5200  -28.1990 O   0  0  0  0  0  0
   -6.2143    3.6074  -21.5580 H   0  0  0  0  0  0
   -6.6709    3.8617  -23.9603 H   0  0  0  0  0  0
    5.3857    3.9122  -21.5803 H   0  0  0  0  0  0
    6.6311    2.9553  -20.6630 H   0  0  0  0  0  0
    6.1366    2.5248  -24.9011 H   0  0  0  0  0  0
    5.8834    4.0853  -24.0546 H   0  0  0  0  0  0
   -5.8486    3.8566  -26.3183 H   0  0  0  0  0  0
    2.0477    1.5845  -24.9461 H   0  0  0  0  0  0
    2.9001    1.2176  -23.0331 H   0  0  0  0  0  0
    4.1125    0.5394  -24.1844 H   0  0  0  0  0  0
    4.6370   -0.0656  -21.8116 H   0  0  0  0  0  0
    7.5408    2.7063  -22.8164 H   0  0  0  0  0  0
    3.8607    2.4637  -21.0468 H   0  0  0  0  0  0
    5.1337    1.4805  -20.1263 H   0  0  0  0  0  0
   -1.7022    3.3238  -27.1807 H   0  0  0  0  0  0
    0.1510    2.0960  -21.0410 H   0  0  0  0  0  0
    6.9184    0.5029  -21.9520 H   0  0  0  0  0  0
   -3.1410    3.4171  -28.6146 H   0  0  0  0  0  0
    6.2340    8.6040  -21.7300 N   0  0  0  0  0  0
    7.3920    6.9340  -20.4730 N   0  0  0  0  0  0
    6.2310    9.5490  -22.7340 N   0  0  0  0  0  0
    4.2290    7.1460  -21.3520 C   0  0  0  0  0  0
    8.5030    8.1310  -22.2350 C   0  0  0  0  0  0
    3.4910    7.2350  -22.7010 C   0  0  0  0  0  0
    4.9800    8.4440  -20.9990 C   0  0  0  0  0  0
    7.3020    9.7860  -23.4640 C   0  0  0  0  0  0
    7.3610    7.8850  -21.4660 C   0  0  0  0  0  0
    8.4710    9.0690  -23.2220 C   0  0  0  0  0  0
    9.8110    7.3870  -22.0220 C   0  0  0  0  0  0
    8.2569    6.4041  -20.2940 H   0  0  0  0  0  0
    6.5509    6.7520  -19.9070 H   0  0  0  0  0  0
    4.9410    6.3080  -21.3790 H   0  0  0  0  0  0
    3.5072    6.9131  -20.5553 H   0  0  0  0  0  0
    4.1805    7.6103  -23.4716 H   0  0  0  0  0  0
    2.6701    7.9629  -22.6220 H   0  0  0  0  0  0
    4.3289    9.3082  -21.1970 H   0  0  0  0  0  0
    5.1820    8.4670  -19.9180 H   0  0  0  0  0  0
    7.2700   10.5350  -24.2470 H   0  0  0  0  0  0
    9.3563    9.2581  -23.8182 H   0  0  0  0  0  0
   10.5608    7.7489  -22.7408 H   0  0  0  0  0  0
   10.1711    7.5631  -20.9976 H   0  0  0  0  0  0
    9.6491    6.3095  -22.1729 H   0  0  0  0  0  0
  1  2  2  0  0  0
  1  3  1  0  0  0
  1 34  1  0  0  0
  2  6  1  0  0  0
  2 35  1  0  0  0
  3  5  2  0  0  0
  3 27  1  0  0  0
  4  5  1  0  0  0
  4  6  2  0  0  0
  4 18  1  0  0  0
  5 24  1  0  0  0
  6 10  1  0  0  0
  7 10  2  0  0  0
  7 23  1  0  0  0
  7 33  1  0  0  0
  8 21  1  0  0  0
  8 22  1  0  0  0
  8 36  1  0  0  0
  8 37  1  0  0  0
  9 21  1  0  0  0
  9 31  1  0  0  0
  9 38  1  0  0  0
  9 39  1  0  0  0
 10 40  1  0  0  0
 11 12  2  0  0  0
 11 14  1  0  0  0
 11 15  1  0  0  0
 12 17  1  0  0  0
 12 28  1  0  0  0
 13 28  2  0  0  0
 13 29  1  0  0  0
 13 57  1  0  0  0
 14 29  2  0  0  0
 14 31  1  0  0  0
 15 30  2  0  0  0
 15 41  1  0  0  0
 16 17  2  0  0  0
 16 18  1  0  0  0
 16 30  1  0  0  0
 17 26  1  0  0  0
 18 23  2  0  0  0
 19 20  1  0  0  0
 19 31  1  0  0  0
 19 42  1  0  0  0
 19 43  1  0  0  0
 20 22  1  0  0  0
 20 32  1  0  0  0
 20 44  1  0  0  0
 21 32  1  0  0  0
 21 45  1  0  0  0
 22 46  1  0  0  0
 22 47  1  0  0  0
 23 48  1  0  0  0
 24 25  3  0  0  0
 25 49  1  0  0  0
 32 50  1  0  0  0
 33 51  1  0  0  0
 52 54  1  0  0  0
 52 58  1  0  0  0
 52 60  1  0  0  0
 53 60  1  0  0  0
 53 63  1  0  0  0
 53 64  1  0  0  0
 54 59  2  0  0  0
 55 57  1  0  0  0
 55 58  1  0  0  0
 55 65  1  0  0  0
 55 66  1  0  0  0
 56 60  2  0  0  0
 56 61  1  0  0  0
 56 62  1  0  0  0
 57 67  1  0  0  0
 57 68  1  0  0  0
 58 69  1  0  0  0
 58 70  1  0  0  0
 59 61  1  0  0  0
 59 71  1  0  0  0
 61 72  1  0  0  0
 62 73  1  0  0  0
 62 74  1  0  0  0
 62 75  1  0  0  0
M  END
> <s_m_entry_id>
240

> <s_m_entry_name>
000000082.1

> <s_m_Source_Path>
/Users/zaksoul/Documents/3r_UNI/2nd_SEMESTER/BSC/FRAG_RECON/RESULTS/2

> <s_m_Source_File>
000000082.mol2

> <i_m_Source_File_Index>
1

$$$$
No_0_93
                    3D
 Schrodinger Suite 2022-4.
 70 76  0  0  1  0            999 V2000
   -5.1880    3.8970  -21.6430 C   0  0  0  0  0  0
   -5.4950    4.0510  -22.9750 C   0  0  0  0  0  0
   -3.9440    3.6320  -21.3350 C   0  0  0  0  0  0
   -3.1220    3.6800  -23.5310 C   0  0  0  0  0  0
   -2.9180    3.4750  -22.1100 C   0  0  0  0  0  0
   -4.4810    3.9510  -24.0160 C   0  0  0  0  0  0
   -3.7980    3.8960  -26.2370 C   0  0  0  0  0  0
    6.0850    3.1490  -21.2690 C   0  0  0  0  0  0
    5.8650    3.2190  -23.8150 C   0  0  0  0  0  0
   -4.7740    4.0440  -25.3460 C   0  0  0  0  0  0
    2.0920    3.8310  -23.7270 C   0  0  0  0  0  0
    1.2990    4.9620  -23.4340 C   0  0  0  0  0  0
    3.1370    6.1460  -22.8480 C   0  0  0  0  0  0
    3.5040    4.0070  -23.4650 C   0  0  0  0  0  0
    1.5060    2.7050  -24.3370 C   0  0  0  0  0  0
   -0.6030    3.5570  -24.1820 C   0  0  0  0  0  0
   -0.0380    4.7850  -23.6360 C   0  0  0  0  0  0
   -2.0670    3.5780  -24.4890 C   0  0  0  0  0  0
    4.0790    1.5090  -23.1190 C   0  0  0  0  0  0
    5.0440    1.1700  -21.9930 C   0  0  2  0  0  0
    6.6430    2.6670  -22.6260 C   0  0  2  0  0  0
    5.0800    2.2050  -20.8560 C   0  0  0  0  0  0
   -2.4360    3.7010  -25.9100 C   0  0  0  0  0  0
   -1.5620    3.0560  -21.5430 C   0  0  0  0  0  0
   -0.5210    2.7060  -21.0610 C   0  0  0  0  0  0
   -0.8510    5.8540  -23.2960 F   0  0  0  0  0  0
   -3.6920    3.4260  -19.9540 F   0  0  0  0  0  0
    1.8120    6.1270  -22.9530 N   0  0  0  0  0  0
    4.0100    5.1620  -23.0690 N   0  0  0  0  0  0
    0.1890    2.6290  -24.5970 N   0  0  0  0  0  0
    4.3990    2.9390  -23.6400 N   0  0  0  0  0  0
    6.4350    1.1990  -22.5220 N   0  0  1  0  0  0
   -4.0160    3.8730  -27.6210 O   0  0  0  0  0  0
   -5.9648    3.9944  -20.8933 H   0  0  0  0  0  0
   -6.5163    4.2539  -23.2763 H   0  0  0  0  0  0
    5.6267    4.1414  -21.3922 H   0  0  0  0  0  0
    6.8957    3.1682  -20.5258 H   0  0  0  0  0  0
    6.2222    2.7417  -24.7394 H   0  0  0  0  0  0
    6.0243    4.3052  -23.8846 H   0  0  0  0  0  0
   -5.7920    4.2358  -25.6653 H   0  0  0  0  0  0
    2.1219    1.8574  -24.6149 H   0  0  0  0  0  0
    3.0472    1.4798  -22.7388 H   0  0  0  0  0  0
    4.2021    0.7844  -23.9374 H   0  0  0  0  0  0
    4.8150    0.1734  -21.5875 H   0  0  0  0  0  0
    7.7132    2.9053  -22.7148 H   0  0  0  0  0  0
    4.1065    2.7135  -20.7955 H   0  0  0  0  0  0
    5.4021    1.7133  -19.9262 H   0  0  0  0  0  0
   -1.6924    3.6458  -26.6968 H   0  0  0  0  0  0
    0.3950    2.3970  -20.6360 H   0  0  0  0  0  0
    7.0973    0.7111  -21.8222 H   0  0  0  0  0  0
   -3.1868    3.7582  -28.0702 H   0  0  0  0  0  0
    6.1190    9.0800  -21.0880 N   0  0  0  0  0  0
    6.7220    8.1230  -21.8810 N   0  0  0  0  0  0
    4.1380    7.5360  -20.9520 C   0  0  0  0  0  0
    3.7330    7.4880  -22.4380 C   0  0  0  0  0  0
    4.7770    8.8810  -20.5620 C   0  0  0  0  0  0
    8.0400   10.4180  -21.2880 C   0  0  0  0  0  0
    7.9460    8.2980  -22.3690 C   0  0  0  0  0  0
    6.7800   10.2170  -20.7950 C   0  0  0  0  0  0
    8.6350    9.4610  -22.0800 C   0  0  0  0  0  0
    4.8447    6.7204  -20.7391 H   0  0  0  0  0  0
    3.2522    7.3560  -20.3251 H   0  0  0  0  0  0
    4.6116    7.7039  -23.0637 H   0  0  0  0  0  0
    3.0080    8.2890  -22.6450 H   0  0  0  0  0  0
    4.1282    9.7037  -20.8969 H   0  0  0  0  0  0
    4.7980    8.9699  -19.4658 H   0  0  0  0  0  0
    8.5743   11.3324  -21.0569 H   0  0  0  0  0  0
    8.3982    7.5317  -22.9882 H   0  0  0  0  0  0
    6.3131   10.9698  -20.1702 H   0  0  0  0  0  0
    9.6335    9.6241  -22.4692 H   0  0  0  0  0  0
  1  2  2  0  0  0
  1  3  1  0  0  0
  1 34  1  0  0  0
  2  6  1  0  0  0
  2 35  1  0  0  0
  3  5  2  0  0  0
  3 27  1  0  0  0
  4  5  1  0  0  0
  4  6  2  0  0  0
  4 18  1  0  0  0
  5 24  1  0  0  0
  6 10  1  0  0  0
  7 10  2  0  0  0
  7 23  1  0  0  0
  7 33  1  0  0  0
  8 21  1  0  0  0
  8 22  1  0  0  0
  8 36  1  0  0  0
  8 37  1  0  0  0
  9 21  1  0  0  0
  9 31  1  0  0  0
  9 38  1  0  0  0
  9 39  1  0  0  0
 10 40  1  0  0  0
 11 12  2  0  0  0
 11 14  1  0  0  0
 11 15  1  0  0  0
 12 17  1  0  0  0
 12 28  1  0  0  0
 13 28  2  0  0  0
 13 29  1  0  0  0
 13 55  1  0  0  0
 14 29  2  0  0  0
 14 31  1  0  0  0
 15 30  2  0  0  0
 15 41  1  0  0  0
 16 17  2  0  0  0
 16 18  1  0  0  0
 16 30  1  0  0  0
 17 26  1  0  0  0
 18 23  2  0  0  0
 19 20  1  0  0  0
 19 31  1  0  0  0
 19 42  1  0  0  0
 19 43  1  0  0  0
 20 22  1  0  0  0
 20 32  1  0  0  0
 20 44  1  0  0  0
 21 32  1  0  0  0
 21 45  1  0  0  0
 22 46  1  0  0  0
 22 47  1  0  0  0
 23 48  1  0  0  0
 24 25  3  0  0  0
 25 49  1  0  0  0
 32 50  1  0  0  0
 33 51  1  0  0  0
 52 53  1  0  0  0
 52 56  1  0  0  0
 52 59  1  0  0  0
 53 58  2  0  0  0
 54 55  1  0  0  0
 54 56  1  0  0  0
 54 61  1  0  0  0
 54 62  1  0  0  0
 55 63  1  0  0  0
 55 64  1  0  0  0
 56 65  1  0  0  0
 56 66  1  0  0  0
 57 59  2  0  0  0
 57 60  1  0  0  0
 57 67  1  0  0  0
 58 60  1  0  0  0
 58 68  1  0  0  0
 59 69  1  0  0  0
 60 70  1  0  0  0
M  END
> <s_m_entry_id>
241

> <s_m_entry_name>
000000083.1

> <s_m_Source_Path>
/Users/zaksoul/Documents/3r_UNI/2nd_SEMESTER/BSC/FRAG_RECON/RESULTS/2

> <s_m_Source_File>
000000083.mol2

> <i_m_Source_File_Index>
1

$$$$
No_0_94
                    3D
 Schrodinger Suite 2022-4.
 70 76  0  0  1  0            999 V2000
   -5.2050    3.4940  -21.9300 C   0  0  0  0  0  0
   -5.4750    3.6470  -23.2690 C   0  0  0  0  0  0
   -3.9610    3.2790  -21.5850 C   0  0  0  0  0  0
   -3.0730    3.3800  -23.7530 C   0  0  0  0  0  0
   -2.9060    3.1710  -22.3280 C   0  0  0  0  0  0
   -4.4260    3.5980  -24.2790 C   0  0  0  0  0  0
   -3.6720    3.5900  -26.4770 C   0  0  0  0  0  0
    6.0720    3.2090  -21.2030 C   0  0  0  0  0  0
    5.9300    3.2920  -23.7550 C   0  0  0  0  0  0
   -4.6810    3.6900  -25.6160 C   0  0  0  0  0  0
    2.1330    3.7470  -23.7820 C   0  0  0  0  0  0
    1.2850    4.8410  -23.5070 C   0  0  0  0  0  0
    3.0540    6.0950  -22.8540 C   0  0  0  0  0  0
    3.5290    3.9790  -23.4740 C   0  0  0  0  0  0
    1.6140    2.6030  -24.4180 C   0  0  0  0  0  0
   -0.5320    3.3660  -24.3240 C   0  0  0  0  0  0
   -0.0350    4.6120  -23.7520 C   0  0  0  0  0  0
   -1.9850    3.3290  -24.6780 C   0  0  0  0  0  0
    4.1950    1.5030  -23.1280 C   0  0  0  0  0  0
    5.1370    1.1960  -21.9740 C   0  0  2  0  0  0
    6.6920    2.7630  -22.5450 C   0  0  2  0  0  0
    5.0950    2.2210  -20.8290 C   0  0  0  0  0  0
   -2.3140    3.4490  -26.1090 C   0  0  0  0  0  0
   -1.5520    2.8030  -21.7210 C   0  0  0  0  0  0
   -0.5130    2.4920  -21.2080 C   0  0  0  0  0  0
   -0.9020    5.6430  -23.4300 F   0  0  0  0  0  0
   -3.7440    3.0720  -20.1980 F   0  0  0  0  0  0
    1.7340    6.0230  -23.0010 N   0  0  0  0  0  0
    3.9740    5.1500  -23.0540 N   0  0  0  0  0  0
    0.3100    2.4750  -24.7210 N   0  0  0  0  0  0
    4.4720    2.9500  -23.6290 N   0  0  0  0  0  0
    6.5420    1.2860  -22.4590 N   0  0  1  0  0  0
   -3.8450    3.5700  -27.8670 O   0  0  0  0  0  0
   -6.0080    3.5542  -21.2043 H   0  0  0  0  0  0
   -6.4939    3.8105  -23.6009 H   0  0  0  0  0  0
    5.5775    4.1828  -21.3342 H   0  0  0  0  0  0
    6.8582    3.2554  -20.4350 H   0  0  0  0  0  0
    6.3346    2.8370  -24.6711 H   0  0  0  0  0  0
    6.0460    4.3844  -23.8115 H   0  0  0  0  0  0
   -5.6955    3.8425  -25.9662 H   0  0  0  0  0  0
    2.2732    1.7843  -24.6829 H   0  0  0  0  0  0
    3.1538    1.4293  -22.7809 H   0  0  0  0  0  0
    4.3737    0.7914  -23.9476 H   0  0  0  0  0  0
    4.9382    0.1867  -21.5844 H   0  0  0  0  0  0
    7.7540    3.0446  -22.5985 H   0  0  0  0  0  0
    4.0998    2.6883  -20.7957 H   0  0  0  0  0  0
    5.4080    1.7353  -19.8930 H   0  0  0  0  0  0
   -1.5441    3.4319  -26.8719 H   0  0  0  0  0  0
    0.4018    2.2181  -20.7571 H   0  0  0  0  0  0
    7.2019    0.8197  -21.7424 H   0  0  0  0  0  0
   -2.9986    3.4938  -28.2917 H   0  0  0  0  0  0
    5.9920    9.1830  -21.2950 N   0  0  0  0  0  0
    6.5490    8.3590  -22.2540 N   0  0  0  0  0  0
    4.2080    7.4340  -21.0080 C   0  0  0  0  0  0
    3.5810    7.4580  -22.4150 C   0  0  0  0  0  0
    4.7740    8.8050  -20.5950 C   0  0  0  0  0  0
    7.7250   10.7280  -21.6560 C   0  0  0  0  0  0
    7.6590    8.6990  -22.9000 C   0  0  0  0  0  0
    6.5830   10.3580  -21.0000 C   0  0  0  0  0  0
    8.2740    9.9030  -22.6110 C   0  0  0  0  0  0
    5.0116    6.6834  -20.9790 H   0  0  0  0  0  0
    3.4519    7.1140  -20.2759 H   0  0  0  0  0  0
    4.3263    7.8122  -23.1423 H   0  0  0  0  0  0
    2.7611    8.1909  -22.4370 H   0  0  0  0  0  0
    4.0072    9.5778  -20.7529 H   0  0  0  0  0  0
    4.9591    8.8110  -19.5107 H   0  0  0  0  0  0
    8.2020   11.6731  -21.4230 H   0  0  0  0  0  0
    8.0761    8.0348  -23.6482 H   0  0  0  0  0  0
    6.1521   11.0069  -20.2461 H   0  0  0  0  0  0
    9.1788   10.1999  -23.1289 H   0  0  0  0  0  0
  1  2  2  0  0  0
  1  3  1  0  0  0
  1 34  1  0  0  0
  2  6  1  0  0  0
  2 35  1  0  0  0
  3  5  2  0  0  0
  3 27  1  0  0  0
  4  5  1  0  0  0
  4  6  2  0  0  0
  4 18  1  0  0  0
  5 24  1  0  0  0
  6 10  1  0  0  0
  7 10  2  0  0  0
  7 23  1  0  0  0
  7 33  1  0  0  0
  8 21  1  0  0  0
  8 22  1  0  0  0
  8 36  1  0  0  0
  8 37  1  0  0  0
  9 21  1  0  0  0
  9 31  1  0  0  0
  9 38  1  0  0  0
  9 39  1  0  0  0
 10 40  1  0  0  0
 11 12  2  0  0  0
 11 14  1  0  0  0
 11 15  1  0  0  0
 12 17  1  0  0  0
 12 28  1  0  0  0
 13 28  2  0  0  0
 13 29  1  0  0  0
 13 55  1  0  0  0
 14 29  2  0  0  0
 14 31  1  0  0  0
 15 30  2  0  0  0
 15 41  1  0  0  0
 16 17  2  0  0  0
 16 18  1  0  0  0
 16 30  1  0  0  0
 17 26  1  0  0  0
 18 23  2  0  0  0
 19 20  1  0  0  0
 19 31  1  0  0  0
 19 42  1  0  0  0
 19 43  1  0  0  0
 20 22  1  0  0  0
 20 32  1  0  0  0
 20 44  1  0  0  0
 21 32  1  0  0  0
 21 45  1  0  0  0
 22 46  1  0  0  0
 22 47  1  0  0  0
 23 48  1  0  0  0
 24 25  3  0  0  0
 25 49  1  0  0  0
 32 50  1  0  0  0
 33 51  1  0  0  0
 52 53  1  0  0  0
 52 56  1  0  0  0
 52 59  1  0  0  0
 53 58  2  0  0  0
 54 55  1  0  0  0
 54 56  1  0  0  0
 54 61  1  0  0  0
 54 62  1  0  0  0
 55 63  1  0  0  0
 55 64  1  0  0  0
 56 65  1  0  0  0
 56 66  1  0  0  0
 57 59  2  0  0  0
 57 60  1  0  0  0
 57 67  1  0  0  0
 58 60  1  0  0  0
 58 68  1  0  0  0
 59 69  1  0  0  0
 60 70  1  0  0  0
M  END
> <s_m_entry_id>
242

> <s_m_entry_name>
000000084.1

> <s_m_Source_Path>
/Users/zaksoul/Documents/3r_UNI/2nd_SEMESTER/BSC/FRAG_RECON/RESULTS/2

> <s_m_Source_File>
000000084.mol2

> <i_m_Source_File_Index>
1

$$$$
No_0_96
                    3D
 Schrodinger Suite 2022-4.
 73 79  0  0  1  0            999 V2000
   -4.8700    3.9360  -21.9660 C   0  0  0  0  0  0
   -5.1720    4.0980  -23.2980 C   0  0  0  0  0  0
   -3.6250    3.6810  -21.6540 C   0  0  0  0  0  0
   -2.7930    3.7520  -23.8460 C   0  0  0  0  0  0
   -2.5950    3.5380  -22.4250 C   0  0  0  0  0  0
   -4.1530    4.0140  -24.3350 C   0  0  0  0  0  0
   -3.4590    3.9810  -26.5530 C   0  0  0  0  0  0
    6.4070    3.2840  -21.5440 C   0  0  0  0  0  0
    6.1990    3.3720  -24.0910 C   0  0  0  0  0  0
   -4.4400    4.1140  -25.6660 C   0  0  0  0  0  0
    2.4190    3.9500  -24.0160 C   0  0  0  0  0  0
    1.6150    5.0710  -23.7190 C   0  0  0  0  0  0
    3.4410    6.2670  -23.1160 C   0  0  0  0  0  0
    3.8290    4.1360  -23.7460 C   0  0  0  0  0  0
    1.8460    2.8230  -24.6370 C   0  0  0  0  0  0
   -0.2710    3.6560  -24.4860 C   0  0  0  0  0  0
    0.2810    4.8850  -23.9290 C   0  0  0  0  0  0
   -1.7330    3.6660  -24.8000 C   0  0  0  0  0  0
    4.4240    1.6410  -23.4160 C   0  0  0  0  0  0
    5.3870    1.3020  -22.2880 C   0  0  2  0  0  0
    6.9750    2.8180  -22.9020 C   0  0  2  0  0  0
    5.4090    2.3290  -21.1430 C   0  0  0  0  0  0
   -2.0970    3.7960  -26.2210 C   0  0  0  0  0  0
   -1.2380    3.1270  -21.8550 C   0  0  0  0  0  0
   -0.1960    2.7820  -21.3710 C   0  0  0  0  0  0
   -0.5430    5.9440  -23.5840 F   0  0  0  0  0  0
   -3.3780    3.4670  -20.2730 F   0  0  0  0  0  0
    2.1160    6.2380  -23.2260 N   0  0  0  0  0  0
    4.3230    5.2930  -23.3390 N   0  0  0  0  0  0
    0.5310    2.7370  -24.9040 N   0  0  0  0  0  0
    4.7340    3.0770  -23.9250 N   0  0  0  0  0  0
    6.7800    1.3480  -22.8100 N   0  0  1  0  0  0
   -3.6700    3.9670  -27.9380 O   0  0  0  0  0  0
   -5.6510    4.0213  -21.2191 H   0  0  0  0  0  0
   -6.1939    4.2937  -23.6022 H   0  0  0  0  0  0
    5.9410    4.2734  -21.6620 H   0  0  0  0  0  0
    7.2144    3.3052  -20.7972 H   0  0  0  0  0  0
    6.5642    2.9039  -25.0170 H   0  0  0  0  0  0
    6.3494    4.4599  -24.1526 H   0  0  0  0  0  0
   -5.4583    4.2996  -25.9880 H   0  0  0  0  0  0
    2.4711    1.9832  -24.9180 H   0  0  0  0  0  0
    3.3908    1.5996  -23.0407 H   0  0  0  0  0  0
    4.5573    0.9232  -24.2388 H   0  0  0  0  0  0
    5.1649    0.3004  -21.8912 H   0  0  0  0  0  0
    8.0437    3.0653  -22.9837 H   0  0  0  0  0  0
    4.4306    2.8283  -21.0835 H   0  0  0  0  0  0
    5.7310    1.8333  -20.2153 H   0  0  0  0  0  0
   -1.3494    3.7539  -27.0048 H   0  0  0  0  0  0
    0.7208    2.4781  -20.9441 H   0  0  0  0  0  0
    7.4430    0.8604  -22.1107 H   0  0  0  0  0  0
   -2.8378    3.8631  -28.3843 H   0  0  0  0  0  0
    7.3440    8.0050  -19.8480 N   0  0  0  0  0  0
    9.7690    9.0550  -22.9940 N   0  0  0  0  0  0
    5.3070    8.9000  -20.8980 C   0  0  0  0  0  0
    4.0230    7.6120  -22.6930 C   0  0  0  0  0  0
    4.4260    7.6700  -21.2050 C   0  0  0  0  0  0
    6.8040    8.6300  -20.9370 C   0  0  0  0  0  0
    7.5880    8.9830  -21.9840 C   0  0  0  0  0  0
    8.9570    8.7050  -21.9430 C   0  0  3  0  0  0
    9.4920    8.0690  -20.8210 C   0  0  0  0  0  0
    8.6800    7.7290  -19.7920 C   0  0  0  0  0  0
    6.7423    7.7361  -19.0564 H   0  0  0  0  0  0
   10.7771    8.8472  -22.9570 H   0  0  0  0  0  0
    9.3700    9.5250  -23.8191 H   0  0  0  0  0  0
    5.0361    9.3039  -19.9113 H   0  0  0  0  0  0
    5.0639    9.7084  -21.6033 H   0  0  0  0  0  0
    4.8981    7.8430  -23.3181 H   0  0  0  0  0  0
    3.2939    8.4081  -22.9040 H   0  0  0  0  0  0
    3.5203    7.7020  -20.5815 H   0  0  0  0  0  0
    4.9719    6.7531  -20.9380 H   0  0  0  0  0  0
    7.1521    9.4769  -22.8449 H   0  0  0  0  0  0
   10.5525    7.8491  -20.7760 H   0  0  0  0  0  0
    9.0947    7.2353  -18.9206 H   0  0  0  0  0  0
  1  2  2  0  0  0
  1  3  1  0  0  0
  1 34  1  0  0  0
  2  6  1  0  0  0
  2 35  1  0  0  0
  3  5  2  0  0  0
  3 27  1  0  0  0
  4  5  1  0  0  0
  4  6  2  0  0  0
  4 18  1  0  0  0
  5 24  1  0  0  0
  6 10  1  0  0  0
  7 10  2  0  0  0
  7 23  1  0  0  0
  7 33  1  0  0  0
  8 21  1  0  0  0
  8 22  1  0  0  0
  8 36  1  0  0  0
  8 37  1  0  0  0
  9 21  1  0  0  0
  9 31  1  0  0  0
  9 38  1  0  0  0
  9 39  1  0  0  0
 10 40  1  0  0  0
 11 12  2  0  0  0
 11 14  1  0  0  0
 11 15  1  0  0  0
 12 17  1  0  0  0
 12 28  1  0  0  0
 13 28  2  0  0  0
 13 29  1  0  0  0
 13 55  1  0  0  0
 14 29  2  0  0  0
 14 31  1  0  0  0
 15 30  2  0  0  0
 15 41  1  0  0  0
 16 17  2  0  0  0
 16 18  1  0  0  0
 16 30  1  0  0  0
 17 26  1  0  0  0
 18 23  2  0  0  0
 19 20  1  0  0  0
 19 31  1  0  0  0
 19 42  1  0  0  0
 19 43  1  0  0  0
 20 22  1  0  0  0
 20 32  1  0  0  0
 20 44  1  0  0  0
 21 32  1  0  0  0
 21 45  1  0  0  0
 22 46  1  0  0  0
 22 47  1  0  0  0
 23 48  1  0  0  0
 24 25  3  0  0  0
 25 49  1  0  0  0
 32 50  1  0  0  0
 33 51  1  0  0  0
 52 57  1  0  0  0
 52 61  1  0  0  0
 52 62  1  0  0  0
 53 59  1  0  0  0
 53 63  1  0  0  0
 53 64  1  0  0  0
 54 56  1  0  0  0
 54 57  1  0  0  0
 54 65  1  0  0  0
 54 66  1  0  0  0
 55 56  1  0  0  0
 55 67  1  0  0  0
 55 68  1  0  0  0
 56 69  1  0  0  0
 56 70  1  0  0  0
 57 58  2  0  0  0
 58 59  1  0  0  0
 58 71  1  0  0  0
 59 60  1  0  0  0
 60 61  2  0  0  0
 60 72  1  0  0  0
 61 73  1  0  0  0
M  END
> <s_m_entry_id>
243

> <s_m_entry_name>
000000085.1

> <s_m_Source_Path>
/Users/zaksoul/Documents/3r_UNI/2nd_SEMESTER/BSC/FRAG_RECON/RESULTS/2

> <s_m_Source_File>
000000085.mol2

> <i_m_Source_File_Index>
1

$$$$
No_0_97
                    3D
 Schrodinger Suite 2022-4.
 73 79  0  0  1  0            999 V2000
   -5.1340    3.8170  -21.8030 C   0  0  0  0  0  0
   -5.4160    4.0030  -23.1360 C   0  0  0  0  0  0
   -3.8930    3.5630  -21.4760 C   0  0  0  0  0  0
   -3.0260    3.6830  -23.6520 C   0  0  0  0  0  0
   -2.8490    3.4410  -22.2330 C   0  0  0  0  0  0
   -4.3790    3.9460  -24.1580 C   0  0  0  0  0  0
   -3.6500    3.9610  -26.3650 C   0  0  0  0  0  0
    6.1390    3.2250  -21.2100 C   0  0  0  0  0  0
    5.9710    3.3620  -23.7580 C   0  0  0  0  0  0
   -4.6460    4.0700  -25.4910 C   0  0  0  0  0  0
    2.1870    3.9150  -23.7330 C   0  0  0  0  0  0
    1.3710    5.0260  -23.4280 C   0  0  0  0  0  0
    3.1790    6.2200  -22.7720 C   0  0  0  0  0  0
    3.5910    4.1050  -23.4370 C   0  0  0  0  0  0
    1.6310    2.7970  -24.3850 C   0  0  0  0  0  0
   -0.4930    3.6140  -24.2520 C   0  0  0  0  0  0
    0.0420    4.8350  -23.6630 C   0  0  0  0  0  0
   -1.9500    3.6210  -24.5900 C   0  0  0  0  0  0
    4.1960    1.6070  -23.1460 C   0  0  0  0  0  0
    5.1430    1.2520  -22.0090 C   0  0  2  0  0  0
    6.7320    2.7890  -22.5680 C   0  0  2  0  0  0
    5.1400    2.2570  -20.8440 C   0  0  0  0  0  0
   -2.2920    3.7780  -26.0140 C   0  0  0  0  0  0
   -1.4990    3.0280  -21.6490 C   0  0  0  0  0  0
   -0.4630    2.6800  -21.1540 C   0  0  0  0  0  0
   -0.7940    5.8820  -23.3110 F   0  0  0  0  0  0
   -3.6660    3.3240  -20.0960 F   0  0  0  0  0  0
    1.8560    6.1850  -22.9040 N   0  0  0  0  0  0
    4.0710    5.2560  -23.0000 N   0  0  0  0  0  0
    0.3210    2.7090  -24.6750 N   0  0  0  0  0  0
    4.5060    3.0550  -23.6220 N   0  0  0  0  0  0
    6.5440    1.3160  -22.5080 N   0  0  1  0  0  0
   -3.8390    3.9720  -27.7530 O   0  0  0  0  0  0
   -5.9276    3.8832  -21.0676 H   0  0  0  0  0  0
   -6.4339    4.1987  -23.4532 H   0  0  0  0  0  0
    5.6680    4.2133  -21.3169 H   0  0  0  0  0  0
    6.9337    3.2371  -20.4496 H   0  0  0  0  0  0
    6.3533    2.9141  -24.6871 H   0  0  0  0  0  0
    6.1153    4.4519  -23.7953 H   0  0  0  0  0  0
   -5.6600    4.2557  -25.8263 H   0  0  0  0  0  0
    2.2662    1.9671  -24.6730 H   0  0  0  0  0  0
    3.1574    1.5525  -22.7877 H   0  0  0  0  0  0
    4.3484    0.9067  -23.9805 H   0  0  0  0  0  0
    4.9209    0.2415  -21.6355 H   0  0  0  0  0  0
    7.8003    3.0445  -22.6276 H   0  0  0  0  0  0
    4.1575    2.7488  -20.7905 H   0  0  0  0  0  0
    5.4499    1.7443  -19.9215 H   0  0  0  0  0  0
   -1.5312    3.7549  -26.7858 H   0  0  0  0  0  0
    0.4490    2.3730  -20.7190 H   0  0  0  0  0  0
    7.1985    0.8187  -21.8075 H   0  0  0  0  0  0
   -2.9989    3.8820  -28.1874 H   0  0  0  0  0  0
    7.4750    7.9350  -20.0250 N   0  0  0  0  0  0
    9.2640    9.4480  -23.4010 N   0  0  0  0  0  0
    5.2400    8.7690  -20.6290 C   0  0  0  0  0  0
    3.7460    7.5600  -22.3130 C   0  0  0  0  0  0
    4.3930    7.5110  -20.9140 C   0  0  0  0  0  0
    6.7210    8.6160  -20.9410 C   0  0  0  0  0  0
    7.2940    9.1220  -22.0600 C   0  0  0  0  0  0
    8.6640    8.9440  -22.2730 C   0  0  3  0  0  0
    9.4180    8.2490  -21.3250 C   0  0  0  0  0  0
    8.8140    7.7560  -20.2170 C   0  0  0  0  0  0
    7.0329    7.5509  -19.1777 H   0  0  0  0  0  0
   10.2742    9.3140  -23.5510 H   0  0  0  0  0  0
    8.7030    9.9610  -24.0960 H   0  0  0  0  0  0
    5.1179    9.0602  -19.5753 H   0  0  0  0  0  0
    4.8341    9.6178  -21.1989 H   0  0  0  0  0  0
    4.4867    7.9129  -23.0457 H   0  0  0  0  0  0
    2.9465    8.3155  -22.3190 H   0  0  0  0  0  0
    3.6066    7.4181  -20.1505 H   0  0  0  0  0  0
    5.0279    6.6161  -20.8360 H   0  0  0  0  0  0
    6.6898    9.6591  -22.7822 H   0  0  0  0  0  0
   10.4815    8.1051  -21.4779 H   0  0  0  0  0  0
    9.4000    7.2160  -19.4821 H   0  0  0  0  0  0
  1  2  2  0  0  0
  1  3  1  0  0  0
  1 34  1  0  0  0
  2  6  1  0  0  0
  2 35  1  0  0  0
  3  5  2  0  0  0
  3 27  1  0  0  0
  4  5  1  0  0  0
  4  6  2  0  0  0
  4 18  1  0  0  0
  5 24  1  0  0  0
  6 10  1  0  0  0
  7 10  2  0  0  0
  7 23  1  0  0  0
  7 33  1  0  0  0
  8 21  1  0  0  0
  8 22  1  0  0  0
  8 36  1  0  0  0
  8 37  1  0  0  0
  9 21  1  0  0  0
  9 31  1  0  0  0
  9 38  1  0  0  0
  9 39  1  0  0  0
 10 40  1  0  0  0
 11 12  2  0  0  0
 11 14  1  0  0  0
 11 15  1  0  0  0
 12 17  1  0  0  0
 12 28  1  0  0  0
 13 28  2  0  0  0
 13 29  1  0  0  0
 13 55  1  0  0  0
 14 29  2  0  0  0
 14 31  1  0  0  0
 15 30  2  0  0  0
 15 41  1  0  0  0
 16 17  2  0  0  0
 16 18  1  0  0  0
 16 30  1  0  0  0
 17 26  1  0  0  0
 18 23  2  0  0  0
 19 20  1  0  0  0
 19 31  1  0  0  0
 19 42  1  0  0  0
 19 43  1  0  0  0
 20 22  1  0  0  0
 20 32  1  0  0  0
 20 44  1  0  0  0
 21 32  1  0  0  0
 21 45  1  0  0  0
 22 46  1  0  0  0
 22 47  1  0  0  0
 23 48  1  0  0  0
 24 25  3  0  0  0
 25 49  1  0  0  0
 32 50  1  0  0  0
 33 51  1  0  0  0
 52 57  1  0  0  0
 52 61  1  0  0  0
 52 62  1  0  0  0
 53 59  1  0  0  0
 53 63  1  0  0  0
 53 64  1  0  0  0
 54 56  1  0  0  0
 54 57  1  0  0  0
 54 65  1  0  0  0
 54 66  1  0  0  0
 55 56  1  0  0  0
 55 67  1  0  0  0
 55 68  1  0  0  0
 56 69  1  0  0  0
 56 70  1  0  0  0
 57 58  2  0  0  0
 58 59  1  0  0  0
 58 71  1  0  0  0
 59 60  1  0  0  0
 60 61  2  0  0  0
 60 72  1  0  0  0
 61 73  1  0  0  0
M  END
> <s_m_entry_id>
244

> <s_m_entry_name>
000000086.1

> <s_m_Source_Path>
/Users/zaksoul/Documents/3r_UNI/2nd_SEMESTER/BSC/FRAG_RECON/RESULTS/2

> <s_m_Source_File>
000000086.mol2

> <i_m_Source_File_Index>
1

$$$$
No_0_98
                    3D
 Schrodinger Suite 2022-4.
 73 79  0  0  1  0            999 V2000
   -5.1720    3.5190  -21.9190 C   0  0  0  0  0  0
   -5.4440    3.7180  -23.2520 C   0  0  0  0  0  0
   -3.9270    3.2950  -21.5830 C   0  0  0  0  0  0
   -3.0420    3.4740  -23.7470 C   0  0  0  0  0  0
   -2.8730    3.2150  -22.3300 C   0  0  0  0  0  0
   -4.3960    3.7070  -24.2640 C   0  0  0  0  0  0
   -3.6450    3.7780  -26.4620 C   0  0  0  0  0  0
    6.1070    3.2350  -21.2140 C   0  0  0  0  0  0
    5.9610    3.4080  -23.7620 C   0  0  0  0  0  0
   -4.6530    3.8450  -25.5970 C   0  0  0  0  0  0
    2.1630    3.8540  -23.7690 C   0  0  0  0  0  0
    1.3130    4.9360  -23.4540 C   0  0  0  0  0  0
    3.0790    6.1710  -22.7600 C   0  0  0  0  0  0
    3.5580    4.0780  -23.4540 C   0  0  0  0  0  0
    1.6460    2.7320  -24.4440 C   0  0  0  0  0  0
   -0.5020    3.4860  -24.3210 C   0  0  0  0  0  0
   -0.0070    4.7120  -23.7070 C   0  0  0  0  0  0
   -1.9550    3.4580  -24.6740 C   0  0  0  0  0  0
    4.2310    1.5940  -23.1960 C   0  0  0  0  0  0
    5.1750    1.2480  -22.0550 C   0  0  2  0  0  0
    6.7260    2.8380  -22.5720 C   0  0  2  0  0  0
    5.1320    2.2330  -20.8750 C   0  0  0  0  0  0
   -2.2860    3.6270  -26.1000 C   0  0  0  0  0  0
   -1.5170    2.8300  -21.7380 C   0  0  0  0  0  0
   -0.4770    2.5030  -21.2380 C   0  0  0  0  0  0
   -0.8760    5.7290  -23.3470 F   0  0  0  0  0  0
   -3.7080    3.0400  -20.2040 F   0  0  0  0  0  0
    1.7600    6.1000  -22.9080 N   0  0  0  0  0  0
    4.0010    5.2350  -22.9940 N   0  0  0  0  0  0
    0.3430    2.6110  -24.7500 N   0  0  0  0  0  0
    4.5040    3.0580  -23.6460 N   0  0  0  0  0  0
    6.5790    1.3590  -22.5380 N   0  0  1  0  0  0
   -3.8190    3.8060  -27.8510 O   0  0  0  0  0  0
   -5.9744    3.5511  -21.1909 H   0  0  0  0  0  0
   -6.4636    3.8906  -23.5771 H   0  0  0  0  0  0
    5.6097    4.2114  -21.3108 H   0  0  0  0  0  0
    6.8937    3.2572  -20.4455 H   0  0  0  0  0  0
    6.3667    2.9862  -24.6934 H   0  0  0  0  0  0
    6.0750    4.5019  -23.7802 H   0  0  0  0  0  0
   -5.6682    4.0077  -25.9404 H   0  0  0  0  0  0
    2.3069    1.9246  -24.7379 H   0  0  0  0  0  0
    3.1907    1.5052  -22.8499 H   0  0  0  0  0  0
    4.4107    0.9116  -24.0399 H   0  0  0  0  0  0
    4.9792    0.2255  -21.6997 H   0  0  0  0  0  0
    7.7870    3.1247  -22.6164 H   0  0  0  0  0  0
    4.1357    2.6963  -20.8235 H   0  0  0  0  0  0
    5.4468    1.7154  -19.9569 H   0  0  0  0  0  0
   -1.5170    3.6380  -26.8640 H   0  0  0  0  0  0
    0.4390    2.2160  -20.7980 H   0  0  0  0  0  0
    7.2410    0.8702  -21.8385 H   0  0  0  0  0  0
   -2.9727    3.7466  -28.2786 H   0  0  0  0  0  0
    7.4820    8.0100  -20.2750 N   0  0  0  0  0  0
    8.8920    9.8010  -23.6920 N   0  0  0  0  0  0
    5.1600    8.7310  -20.6510 C   0  0  0  0  0  0
    3.6030    7.5180  -22.2740 C   0  0  0  0  0  0
    4.3660    7.4380  -20.9360 C   0  0  0  0  0  0
    6.6160    8.6870  -21.0870 C   0  0  0  0  0  0
    7.0630    9.2840  -22.2190 C   0  0  0  0  0  0
    8.4190    9.2040  -22.5500 C   0  0  3  0  0  0
    9.2890    8.5100  -21.7060 C   0  0  0  0  0  0
    8.8090    7.9240  -20.5830 C   0  0  0  0  0  0
    7.1353    7.5564  -19.4177 H   0  0  0  0  0  0
    9.8921    9.7380  -23.9300 H   0  0  0  0  0  0
    8.2471   10.3129  -24.3109 H   0  0  0  0  0  0
    5.1080    8.9599  -19.5763 H   0  0  0  0  0  0
    4.6589    9.5811  -21.1371 H   0  0  0  0  0  0
    4.2588    7.9528  -23.0427 H   0  0  0  0  0  0
    2.7638    8.2221  -22.1740 H   0  0  0  0  0  0
    3.6525    7.2579  -20.1184 H   0  0  0  0  0  0
    5.0573    6.5827  -20.9600 H   0  0  0  0  0  0
    6.3713    9.8188  -22.8598 H   0  0  0  0  0  0
   10.3427    8.4420  -21.9512 H   0  0  0  0  0  0
    9.4839    7.3861  -19.9271 H   0  0  0  0  0  0
  1  2  2  0  0  0
  1  3  1  0  0  0
  1 34  1  0  0  0
  2  6  1  0  0  0
  2 35  1  0  0  0
  3  5  2  0  0  0
  3 27  1  0  0  0
  4  5  1  0  0  0
  4  6  2  0  0  0
  4 18  1  0  0  0
  5 24  1  0  0  0
  6 10  1  0  0  0
  7 10  2  0  0  0
  7 23  1  0  0  0
  7 33  1  0  0  0
  8 21  1  0  0  0
  8 22  1  0  0  0
  8 36  1  0  0  0
  8 37  1  0  0  0
  9 21  1  0  0  0
  9 31  1  0  0  0
  9 38  1  0  0  0
  9 39  1  0  0  0
 10 40  1  0  0  0
 11 12  2  0  0  0
 11 14  1  0  0  0
 11 15  1  0  0  0
 12 17  1  0  0  0
 12 28  1  0  0  0
 13 28  2  0  0  0
 13 29  1  0  0  0
 13 55  1  0  0  0
 14 29  2  0  0  0
 14 31  1  0  0  0
 15 30  2  0  0  0
 15 41  1  0  0  0
 16 17  2  0  0  0
 16 18  1  0  0  0
 16 30  1  0  0  0
 17 26  1  0  0  0
 18 23  2  0  0  0
 19 20  1  0  0  0
 19 31  1  0  0  0
 19 42  1  0  0  0
 19 43  1  0  0  0
 20 22  1  0  0  0
 20 32  1  0  0  0
 20 44  1  0  0  0
 21 32  1  0  0  0
 21 45  1  0  0  0
 22 46  1  0  0  0
 22 47  1  0  0  0
 23 48  1  0  0  0
 24 25  3  0  0  0
 25 49  1  0  0  0
 32 50  1  0  0  0
 33 51  1  0  0  0
 52 57  1  0  0  0
 52 61  1  0  0  0
 52 62  1  0  0  0
 53 59  1  0  0  0
 53 63  1  0  0  0
 53 64  1  0  0  0
 54 56  1  0  0  0
 54 57  1  0  0  0
 54 65  1  0  0  0
 54 66  1  0  0  0
 55 56  1  0  0  0
 55 67  1  0  0  0
 55 68  1  0  0  0
 56 69  1  0  0  0
 56 70  1  0  0  0
 57 58  2  0  0  0
 58 59  1  0  0  0
 58 71  1  0  0  0
 59 60  1  0  0  0
 60 61  2  0  0  0
 60 72  1  0  0  0
 61 73  1  0  0  0
M  END
> <s_m_entry_id>
245

> <s_m_entry_name>
000000087.1

> <s_m_Source_Path>
/Users/zaksoul/Documents/3r_UNI/2nd_SEMESTER/BSC/FRAG_RECON/RESULTS/2

> <s_m_Source_File>
000000087.mol2

> <i_m_Source_File_Index>
1

$$$$
No_0_99
                    3D
 Schrodinger Suite 2022-4.
 73 79  0  0  1  0            999 V2000
   -5.1810    3.6090  -21.8530 C   0  0  0  0  0  0
   -5.4520    3.8050  -23.1860 C   0  0  0  0  0  0
   -3.9420    3.3510  -21.5190 C   0  0  0  0  0  0
   -3.0590    3.4860  -23.6870 C   0  0  0  0  0  0
   -2.8930    3.2340  -22.2690 C   0  0  0  0  0  0
   -4.4090    3.7540  -24.2010 C   0  0  0  0  0  0
   -3.6630    3.7850  -26.4030 C   0  0  0  0  0  0
    6.0870    3.0010  -21.1820 C   0  0  0  0  0  0
    5.9380    3.1560  -23.7310 C   0  0  0  0  0  0
   -4.6650    3.8890  -25.5350 C   0  0  0  0  0  0
    2.1540    3.7130  -23.7290 C   0  0  0  0  0  0
    1.3370    4.8230  -23.4210 C   0  0  0  0  0  0
    3.1410    6.0110  -22.7430 C   0  0  0  0  0  0
    3.5570    3.8990  -23.4210 C   0  0  0  0  0  0
    1.6030    2.6010  -24.3930 C   0  0  0  0  0  0
   -0.5220    3.4190  -24.2700 C   0  0  0  0  0  0
    0.0100    4.6350  -23.6670 C   0  0  0  0  0  0
   -1.9770    3.4300  -24.6180 C   0  0  0  0  0  0
    4.1570    1.3990  -23.1440 C   0  0  0  0  0  0
    5.0950    1.0350  -22.0030 C   0  0  2  0  0  0
    6.6890    2.5740  -22.5390 C   0  0  2  0  0  0
    5.0840    2.0310  -20.8310 C   0  0  0  0  0  0
   -2.3080    3.5970  -26.0440 C   0  0  0  0  0  0
   -1.5470    2.8150  -21.6780 C   0  0  0  0  0  0
   -0.5150    2.4620  -21.1780 C   0  0  0  0  0  0
   -0.8280    5.6800  -23.3140 F   0  0  0  0  0  0
   -3.7260    3.1020  -20.1390 F   0  0  0  0  0  0
    1.8200    5.9780  -22.8860 N   0  0  0  0  0  0
    4.0350    5.0470  -22.9720 N   0  0  0  0  0  0
    0.2950    2.5160  -24.6930 N   0  0  0  0  0  0
    4.4710    2.8500  -23.6070 N   0  0  0  0  0  0
    6.5000    1.1010  -22.4910 N   0  0  1  0  0  0
   -3.8410    3.8060  -27.7920 O   0  0  0  0  0  0
   -5.9796    3.6712  -21.1226 H   0  0  0  0  0  0
   -6.4675    4.0037  -23.5091 H   0  0  0  0  0  0
    5.6179    3.9906  -21.2849 H   0  0  0  0  0  0
    6.8763    3.0060  -20.4159 H   0  0  0  0  0  0
    6.3275    2.7150  -24.6604 H   0  0  0  0  0  0
    6.0833    4.2460  -23.7593 H   0  0  0  0  0  0
   -5.6765    4.0776  -25.8762 H   0  0  0  0  0  0
    2.2385    1.7718  -24.6821 H   0  0  0  0  0  0
    3.1157    1.3435  -22.7939 H   0  0  0  0  0  0
    4.3144    0.7047  -23.9826 H   0  0  0  0  0  0
    4.8700    0.0218  -21.6387 H   0  0  0  0  0  0
    7.7578    2.8293  -22.5885 H   0  0  0  0  0  0
    4.1018    2.5236  -20.7805 H   0  0  0  0  0  0
    5.3877    1.5123  -19.9097 H   0  0  0  0  0  0
   -1.5411    3.5789  -26.8099 H   0  0  0  0  0  0
    0.3934    2.1519  -20.7378 H   0  0  0  0  0  0
    7.1492    0.5983  -21.7894 H   0  0  0  0  0  0
   -2.9984    3.7179  -28.2217 H   0  0  0  0  0  0
    7.9200    7.9220  -21.1760 N   0  0  0  0  0  0
    8.4160   10.0580  -24.6500 N   0  0  0  0  0  0
    5.5450    8.5240  -20.9440 C   0  0  0  0  0  0
    3.7060    7.3460  -22.2710 C   0  0  0  0  0  0
    4.7630    7.2100  -21.1560 C   0  0  0  0  0  0
    6.8600    8.6050  -21.7050 C   0  0  0  0  0  0
    7.0050    9.3150  -22.8500 C   0  0  0  0  0  0
    8.2480    9.3460  -23.4880 C   0  0  3  0  0  0
    9.3200    8.6430  -22.9320 C   0  0  0  0  0  0
    9.1400    7.9430  -21.7860 C   0  0  0  0  0  0
    7.8020    7.3819  -20.3069 H   0  0  0  0  0  0
    9.3349   10.0760  -25.1150 H   0  0  0  0  0  0
    7.6230   10.5750  -25.0560 H   0  0  0  0  0  0
    5.7370    8.6650  -19.8701 H   0  0  0  0  0  0
    4.9088    9.3762  -21.2251 H   0  0  0  0  0  0
    4.1449    7.8799  -23.1268 H   0  0  0  0  0  0
    2.8837    7.9862  -21.9189 H   0  0  0  0  0  0
    4.2690    6.9230  -20.2160 H   0  0  0  0  0  0
    5.4653    6.4037  -21.4141 H   0  0  0  0  0  0
    6.1607    9.8542  -23.2641 H   0  0  0  0  0  0
   10.2892    8.6600  -23.4171 H   0  0  0  0  0  0
    9.9721    7.3989  -21.3540 H   0  0  0  0  0  0
  1  2  2  0  0  0
  1  3  1  0  0  0
  1 34  1  0  0  0
  2  6  1  0  0  0
  2 35  1  0  0  0
  3  5  2  0  0  0
  3 27  1  0  0  0
  4  5  1  0  0  0
  4  6  2  0  0  0
  4 18  1  0  0  0
  5 24  1  0  0  0
  6 10  1  0  0  0
  7 10  2  0  0  0
  7 23  1  0  0  0
  7 33  1  0  0  0
  8 21  1  0  0  0
  8 22  1  0  0  0
  8 36  1  0  0  0
  8 37  1  0  0  0
  9 21  1  0  0  0
  9 31  1  0  0  0
  9 38  1  0  0  0
  9 39  1  0  0  0
 10 40  1  0  0  0
 11 12  2  0  0  0
 11 14  1  0  0  0
 11 15  1  0  0  0
 12 17  1  0  0  0
 12 28  1  0  0  0
 13 28  2  0  0  0
 13 29  1  0  0  0
 13 55  1  0  0  0
 14 29  2  0  0  0
 14 31  1  0  0  0
 15 30  2  0  0  0
 15 41  1  0  0  0
 16 17  2  0  0  0
 16 18  1  0  0  0
 16 30  1  0  0  0
 17 26  1  0  0  0
 18 23  2  0  0  0
 19 20  1  0  0  0
 19 31  1  0  0  0
 19 42  1  0  0  0
 19 43  1  0  0  0
 20 22  1  0  0  0
 20 32  1  0  0  0
 20 44  1  0  0  0
 21 32  1  0  0  0
 21 45  1  0  0  0
 22 46  1  0  0  0
 22 47  1  0  0  0
 23 48  1  0  0  0
 24 25  3  0  0  0
 25 49  1  0  0  0
 32 50  1  0  0  0
 33 51  1  0  0  0
 52 57  1  0  0  0
 52 61  1  0  0  0
 52 62  1  0  0  0
 53 59  1  0  0  0
 53 63  1  0  0  0
 53 64  1  0  0  0
 54 56  1  0  0  0
 54 57  1  0  0  0
 54 65  1  0  0  0
 54 66  1  0  0  0
 55 56  1  0  0  0
 55 67  1  0  0  0
 55 68  1  0  0  0
 56 69  1  0  0  0
 56 70  1  0  0  0
 57 58  2  0  0  0
 58 59  1  0  0  0
 58 71  1  0  0  0
 59 60  1  0  0  0
 60 61  2  0  0  0
 60 72  1  0  0  0
 61 73  1  0  0  0
M  END
> <s_m_entry_id>
246

> <s_m_entry_name>
000000088.1

> <s_m_Source_Path>
/Users/zaksoul/Documents/3r_UNI/2nd_SEMESTER/BSC/FRAG_RECON/RESULTS/2

> <s_m_Source_File>
000000088.mol2

> <i_m_Source_File_Index>
1

$$$$
No_0_100
                    3D
 Schrodinger Suite 2022-4.
 73 79  0  0  1  0            999 V2000
   -5.1170    3.8060  -22.0880 C   0  0  0  0  0  0
   -5.3620    3.9690  -23.4310 C   0  0  0  0  0  0
   -3.8910    3.5260  -21.7250 C   0  0  0  0  0  0
   -2.9700    3.5750  -23.8820 C   0  0  0  0  0  0
   -2.8340    3.3600  -22.4540 C   0  0  0  0  0  0
   -4.3030    3.8620  -24.4260 C   0  0  0  0  0  0
   -3.5210    3.8090  -26.6140 C   0  0  0  0  0  0
    6.1180    2.9300  -21.2070 C   0  0  0  0  0  0
    6.0150    3.0140  -23.7610 C   0  0  0  0  0  0
   -4.5340    3.9640  -25.7670 C   0  0  0  0  0  0
    2.2480    3.6670  -23.8400 C   0  0  0  0  0  0
    1.4550    4.8060  -23.5780 C   0  0  0  0  0  0
    3.2780    5.9660  -22.9040 C   0  0  0  0  0  0
    3.6490    3.8260  -23.5140 C   0  0  0  0  0  0
    1.6780    2.5500  -24.4820 C   0  0  0  0  0  0
   -0.4260    3.4260  -24.4180 C   0  0  0  0  0  0
    0.1280    4.6450  -23.8420 C   0  0  0  0  0  0
   -1.8740    3.4640  -24.7910 C   0  0  0  0  0  0
    4.1800    1.3200  -23.1540 C   0  0  0  0  0  0
    5.0890    0.9660  -21.9870 C   0  0  2  0  0  0
    6.7320    2.4480  -22.5400 C   0  0  2  0  0  0
    5.0850    1.9960  -20.8450 C   0  0  0  0  0  0
   -2.1770    3.5980  -26.2270 C   0  0  0  0  0  0
   -1.5090    2.9240  -21.8280 C   0  0  0  0  0  0
   -0.4950    2.5600  -21.3010 C   0  0  0  0  0  0
   -0.6880    5.7210  -23.5330 F   0  0  0  0  0  0
   -3.7040    3.3110  -20.3350 F   0  0  0  0  0  0
    1.9590    5.9630  -23.0690 N   0  0  0  0  0  0
    4.1500    4.9740  -23.0900 N   0  0  0  0  0  0
    0.3740    2.4900  -24.8020 N   0  0  0  0  0  0
    4.5390    2.7490  -23.6540 N   0  0  0  0  0  0
    6.5030    0.9820  -22.4530 N   0  0  1  0  0  0
   -3.6760    3.7950  -28.0060 O   0  0  0  0  0  0
   -5.9257    3.9093  -21.3736 H   0  0  0  0  0  0
   -6.3662    4.1849  -23.7774 H   0  0  0  0  0  0
    5.6770    3.9281  -21.3463 H   0  0  0  0  0  0
    6.8948    2.9371  -20.4282 H   0  0  0  0  0  0
    6.4076    2.5356  -24.6704 H   0  0  0  0  0  0
    6.1895    4.0985  -23.8185 H   0  0  0  0  0  0
   -5.5343    4.1687  -26.1312 H   0  0  0  0  0  0
    2.2972    1.6970  -24.7349 H   0  0  0  0  0  0
    3.1318    1.3018  -22.8211 H   0  0  0  0  0  0
    4.3325    0.5981  -23.9698 H   0  0  0  0  0  0
    4.8317   -0.0300  -21.5975 H   0  0  0  0  0  0
    7.8078    2.6741  -22.5794 H   0  0  0  0  0  0
    4.1152    2.5147  -20.8258 H   0  0  0  0  0  0
    5.3595    1.4964  -19.9043 H   0  0  0  0  0  0
   -1.3987    3.5377  -26.9792 H   0  0  0  0  0  0
    0.3977    2.2391  -20.8371 H   0  0  0  0  0  0
    7.1277    0.4835  -21.7266 H   0  0  0  0  0  0
   -2.8290    3.6733  -28.4186 H   0  0  0  0  0  0
    6.8830    7.9020  -19.8560 O   0  0  0  0  0  0
    9.9190    8.3840  -18.6270 N   0  3  0  0  0  0
    8.0840    8.9580  -21.2710 N   0  0  0  0  0  0
    3.8700    7.3000  -22.4610 C   0  0  0  0  0  0
    3.8510    7.4460  -20.9290 C   0  0  0  0  0  0
    4.5480    8.7350  -20.4770 C   0  0  0  0  0  0
    6.0510    8.6770  -20.6380 C   0  0  0  0  0  0
    9.3050    7.4810  -19.6670 C   0  0  0  0  0  0
    8.0650    8.1120  -20.2670 C   0  0  0  0  0  0
    6.7950    9.3260  -21.5220 C   0  0  0  0  0  0
   10.7407    7.9441  -18.2431 H   0  0  0  0  0  0
   10.1760    9.2611  -19.0521 H   0  0  0  0  0  0
    9.2519    8.5500  -17.8898 H   0  0  0  0  0  0
    4.9053    7.3800  -22.8241 H   0  0  0  0  0  0
    3.2972    8.1227  -22.9138 H   0  0  0  0  0  0
    4.3530    6.5800  -20.4730 H   0  0  0  0  0  0
    2.8099    7.4480  -20.5740 H   0  0  0  0  0  0
    4.3000    8.9340  -19.4240 H   0  0  0  0  0  0
    4.1512    9.5855  -21.0507 H   0  0  0  0  0  0
    9.0391    6.5183  -19.2061 H   0  0  0  0  0  0
   10.0385    7.2871  -20.4635 H   0  0  0  0  0  0
    6.5760   10.0260  -22.3270 H   0  0  0  0  0  0
  1  2  2  0  0  0
  1  3  1  0  0  0
  1 34  1  0  0  0
  2  6  1  0  0  0
  2 35  1  0  0  0
  3  5  2  0  0  0
  3 27  1  0  0  0
  4  5  1  0  0  0
  4  6  2  0  0  0
  4 18  1  0  0  0
  5 24  1  0  0  0
  6 10  1  0  0  0
  7 10  2  0  0  0
  7 23  1  0  0  0
  7 33  1  0  0  0
  8 21  1  0  0  0
  8 22  1  0  0  0
  8 36  1  0  0  0
  8 37  1  0  0  0
  9 21  1  0  0  0
  9 31  1  0  0  0
  9 38  1  0  0  0
  9 39  1  0  0  0
 10 40  1  0  0  0
 11 12  1  0  0  0
 11 14  2  0  0  0
 11 15  1  0  0  0
 12 17  1  0  0  0
 12 28  2  0  0  0
 13 28  1  0  0  0
 13 29  2  0  0  0
 13 55  1  0  0  0
 14 29  1  0  0  0
 14 31  1  0  0  0
 15 30  2  0  0  0
 15 41  1  0  0  0
 16 17  2  0  0  0
 16 18  1  0  0  0
 16 30  1  0  0  0
 17 26  1  0  0  0
 18 23  2  0  0  0
 19 20  1  0  0  0
 19 31  1  0  0  0
 19 42  1  0  0  0
 19 43  1  0  0  0
 20 22  1  0  0  0
 20 32  1  0  0  0
 20 44  1  0  0  0
 21 32  1  0  0  0
 21 45  1  0  0  0
 22 46  1  0  0  0
 22 47  1  0  0  0
 23 48  1  0  0  0
 24 25  3  0  0  0
 25 49  1  0  0  0
 32 50  1  0  0  0
 33 51  1  0  0  0
 52 58  1  0  0  0
 52 60  1  0  0  0
 53 59  1  0  0  0
 53 62  1  0  0  0
 53 63  1  0  0  0
 53 64  1  0  0  0
 54 60  2  0  0  0
 54 61  1  0  0  0
 55 56  1  0  0  0
 55 65  1  0  0  0
 55 66  1  0  0  0
 56 57  1  0  0  0
 56 67  1  0  0  0
 56 68  1  0  0  0
 57 58  1  0  0  0
 57 69  1  0  0  0
 57 70  1  0  0  0
 58 61  2  0  0  0
 59 60  1  0  0  0
 59 71  1  0  0  0
 59 72  1  0  0  0
 61 73  1  0  0  0
M  CHG  1  53   1
M  END
> <s_m_entry_id>
247

> <s_m_entry_name>
000000089.1

> <s_m_Source_Path>
/Users/zaksoul/Documents/3r_UNI/2nd_SEMESTER/BSC/FRAG_RECON/RESULTS/2

> <s_m_Source_File>
000000089.mol2

> <i_m_Source_File_Index>
1

$$$$
No_0_101
                    3D
 Schrodinger Suite 2022-4.
 73 79  0  0  1  0            999 V2000
   -5.1150    3.4960  -21.8050 C   0  0  0  0  0  0
   -5.4040    3.6390  -23.1410 C   0  0  0  0  0  0
   -3.8670    3.2800  -21.4750 C   0  0  0  0  0  0
   -3.0090    3.3590  -23.6570 C   0  0  0  0  0  0
   -2.8230    3.1620  -22.2320 C   0  0  0  0  0  0
   -4.3700    3.5770  -24.1650 C   0  0  0  0  0  0
   -3.6470    3.5480  -26.3740 C   0  0  0  0  0  0
    6.1700    3.1820  -21.2350 C   0  0  0  0  0  0
    5.9920    3.2430  -23.7850 C   0  0  0  0  0  0
   -4.6430    3.6590  -25.5000 C   0  0  0  0  0  0
    2.1970    3.7100  -23.7620 C   0  0  0  0  0  0
    1.3560    4.8090  -23.4840 C   0  0  0  0  0  0
    3.1370    6.0630  -22.8670 C   0  0  0  0  0  0
    3.5970    3.9400  -23.4760 C   0  0  0  0  0  0
    1.6650    2.5620  -24.3810 C   0  0  0  0  0  0
   -0.4770    3.3330  -24.2630 C   0  0  0  0  0  0
    0.0310    4.5820  -23.7090 C   0  0  0  0  0  0
   -1.9350    3.2970  -24.5960 C   0  0  0  0  0  0
    4.2610    1.4660  -23.1180 C   0  0  0  0  0  0
    5.2180    1.1650  -21.9750 C   0  0  2  0  0  0
    6.7690    2.7220  -22.5820 C   0  0  2  0  0  0
    5.1950    2.2000  -20.8390 C   0  0  0  0  0  0
   -2.2840    3.4060  -26.0230 C   0  0  0  0  0  0
   -1.4620    2.7950  -21.6410 C   0  0  0  0  0  0
   -0.4170    2.4850  -21.1410 C   0  0  0  0  0  0
   -0.8280    5.6190  -23.3840 F   0  0  0  0  0  0
   -3.6310    3.0840  -20.0900 F   0  0  0  0  0  0
    1.8150    5.9940  -22.9950 N   0  0  0  0  0  0
    4.0510    5.1140  -23.0720 N   0  0  0  0  0  0
    0.3570    2.4350  -24.6640 N   0  0  0  0  0  0
    4.5350    2.9070  -23.6350 N   0  0  0  0  0  0
    6.6160    1.2470  -22.4800 N   0  0  1  0  0  0
   -3.8400    3.5170  -27.7610 O   0  0  0  0  0  0
   -5.9076    3.5642  -21.0686 H   0  0  0  0  0  0
   -6.4272    3.8015  -23.4600 H   0  0  0  0  0  0
    5.6764    4.1561  -21.3672 H   0  0  0  0  0  0
    6.9669    3.2324  -20.4784 H   0  0  0  0  0  0
    6.3828    2.7795  -24.7029 H   0  0  0  0  0  0
    6.1110    4.3345  -23.8526 H   0  0  0  0  0  0
   -5.6621    3.8116  -25.8364 H   0  0  0  0  0  0
    2.3183    1.7392  -24.6479 H   0  0  0  0  0  0
    3.2246    1.3974  -22.7557 H   0  0  0  0  0  0
    4.4265    0.7465  -23.9334 H   0  0  0  0  0  0
    5.0212    0.1600  -21.5734 H   0  0  0  0  0  0
    7.8309    3.0003  -22.6516 H   0  0  0  0  0  0
    4.2020    2.6713  -20.7956 H   0  0  0  0  0  0
    5.5200    1.7216  -19.9033 H   0  0  0  0  0  0
   -1.5253    3.3799  -26.7968 H   0  0  0  0  0  0
    0.5029    2.2120  -20.7001 H   0  0  0  0  0  0
    7.2845    0.7849  -21.7687 H   0  0  0  0  0  0
   -2.9996    3.4339  -28.1960 H   0  0  0  0  0  0
    7.1790    8.2310  -20.6310 O   0  0  0  0  0  0
   10.3590    9.0200  -20.1570 N   0  3  0  0  0  0
    7.8450    9.5390  -22.1810 N   0  0  0  0  0  0
    3.6740    7.4280  -22.4480 C   0  0  0  0  0  0
    4.0410    7.4560  -20.9530 C   0  0  0  0  0  0
    4.6850    8.7900  -20.5560 C   0  0  0  0  0  0
    6.0910    8.9440  -21.0940 C   0  0  0  0  0  0
    9.5960    8.1230  -21.1000 C   0  0  0  0  0  0
    8.1820    8.6260  -21.3000 C   0  0  0  0  0  0
    6.5030    9.7500  -22.0620 C   0  0  0  0  0  0
   11.2957    8.6667  -20.0389 H   0  0  0  0  0  0
   10.3980    9.9525  -20.5378 H   0  0  0  0  0  0
    9.8932    9.0420  -19.2634 H   0  0  0  0  0  0
    4.5636    7.6709  -23.0477 H   0  0  0  0  0  0
    2.9165    8.1985  -22.6541 H   0  0  0  0  0  0
    4.7361    6.6329  -20.7310 H   0  0  0  0  0  0
    3.1345    7.2941  -20.3513 H   0  0  0  0  0  0
    4.7010    8.8760  -19.4595 H   0  0  0  0  0  0
    4.0615    9.6197  -20.9203 H   0  0  0  0  0  0
    9.5680    7.1024  -20.6907 H   0  0  0  0  0  0
   10.1131    8.0880  -22.0702 H   0  0  0  0  0  0
    6.0059   10.4721  -22.7081 H   0  0  0  0  0  0
  1  2  2  0  0  0
  1  3  1  0  0  0
  1 34  1  0  0  0
  2  6  1  0  0  0
  2 35  1  0  0  0
  3  5  2  0  0  0
  3 27  1  0  0  0
  4  5  1  0  0  0
  4  6  2  0  0  0
  4 18  1  0  0  0
  5 24  1  0  0  0
  6 10  1  0  0  0
  7 10  2  0  0  0
  7 23  1  0  0  0
  7 33  1  0  0  0
  8 21  1  0  0  0
  8 22  1  0  0  0
  8 36  1  0  0  0
  8 37  1  0  0  0
  9 21  1  0  0  0
  9 31  1  0  0  0
  9 38  1  0  0  0
  9 39  1  0  0  0
 10 40  1  0  0  0
 11 12  1  0  0  0
 11 14  2  0  0  0
 11 15  1  0  0  0
 12 17  1  0  0  0
 12 28  2  0  0  0
 13 28  1  0  0  0
 13 29  2  0  0  0
 13 55  1  0  0  0
 14 29  1  0  0  0
 14 31  1  0  0  0
 15 30  2  0  0  0
 15 41  1  0  0  0
 16 17  2  0  0  0
 16 18  1  0  0  0
 16 30  1  0  0  0
 17 26  1  0  0  0
 18 23  2  0  0  0
 19 20  1  0  0  0
 19 31  1  0  0  0
 19 42  1  0  0  0
 19 43  1  0  0  0
 20 22  1  0  0  0
 20 32  1  0  0  0
 20 44  1  0  0  0
 21 32  1  0  0  0
 21 45  1  0  0  0
 22 46  1  0  0  0
 22 47  1  0  0  0
 23 48  1  0  0  0
 24 25  3  0  0  0
 25 49  1  0  0  0
 32 50  1  0  0  0
 33 51  1  0  0  0
 52 58  1  0  0  0
 52 60  1  0  0  0
 53 59  1  0  0  0
 53 62  1  0  0  0
 53 63  1  0  0  0
 53 64  1  0  0  0
 54 60  2  0  0  0
 54 61  1  0  0  0
 55 56  1  0  0  0
 55 65  1  0  0  0
 55 66  1  0  0  0
 56 57  1  0  0  0
 56 67  1  0  0  0
 56 68  1  0  0  0
 57 58  1  0  0  0
 57 69  1  0  0  0
 57 70  1  0  0  0
 58 61  2  0  0  0
 59 60  1  0  0  0
 59 71  1  0  0  0
 59 72  1  0  0  0
 61 73  1  0  0  0
M  CHG  1  53   1
M  END
> <s_m_entry_id>
248

> <s_m_entry_name>
000000090.1

> <s_m_Source_Path>
/Users/zaksoul/Documents/3r_UNI/2nd_SEMESTER/BSC/FRAG_RECON/RESULTS/2

> <s_m_Source_File>
000000090.mol2

> <i_m_Source_File_Index>
1

$$$$
No_0_102
                    3D
 Schrodinger Suite 2022-4.
 73 79  0  0  1  0            999 V2000
   -5.0370    3.8260  -21.9190 C   0  0  0  0  0  0
   -5.3100    4.0190  -23.2530 C   0  0  0  0  0  0
   -3.7980    3.5660  -21.5860 C   0  0  0  0  0  0
   -2.9190    3.6920  -23.7570 C   0  0  0  0  0  0
   -2.7510    3.4440  -22.3380 C   0  0  0  0  0  0
   -4.2680    3.9620  -24.2690 C   0  0  0  0  0  0
   -3.5260    3.9840  -26.4720 C   0  0  0  0  0  0
    6.2300    3.1900  -21.2660 C   0  0  0  0  0  0
    6.0770    3.3380  -23.8140 C   0  0  0  0  0  0
   -4.5270    4.0930  -25.6030 C   0  0  0  0  0  0
    2.2950    3.9050  -23.8080 C   0  0  0  0  0  0
    1.4820    5.0180  -23.5020 C   0  0  0  0  0  0
    3.2900    6.2030  -22.8300 C   0  0  0  0  0  0
    3.6990    4.0890  -23.5030 C   0  0  0  0  0  0
    1.7390    2.7920  -24.4680 C   0  0  0  0  0  0
   -0.3830    3.6160  -24.3430 C   0  0  0  0  0  0
    0.1540    4.8330  -23.7450 C   0  0  0  0  0  0
   -1.8380    3.6310  -24.6890 C   0  0  0  0  0  0
    4.2930    1.5870  -23.2190 C   0  0  0  0  0  0
    5.2320    1.2240  -22.0790 C   0  0  2  0  0  0
    6.8290    2.7580  -22.6220 C   0  0  2  0  0  0
    5.2260    2.2240  -20.9100 C   0  0  0  0  0  0
   -2.1710    3.7940  -26.1150 C   0  0  0  0  0  0
   -1.4050    3.0230  -21.7480 C   0  0  0  0  0  0
   -0.3730    2.6690  -21.2490 C   0  0  0  0  0  0
   -0.6810    5.8820  -23.3940 F   0  0  0  0  0  0
   -3.5810    3.3200  -20.2060 F   0  0  0  0  0  0
    1.9680    6.1730  -22.9710 N   0  0  0  0  0  0
    4.1800    5.2360  -23.0580 N   0  0  0  0  0  0
    0.4310    2.7100  -24.7660 N   0  0  0  0  0  0
    4.6100    3.0360  -23.6870 N   0  0  0  0  0  0
    6.6360    1.2850  -22.5690 N   0  0  1  0  0  0
   -3.7070    4.0020  -27.8610 O   0  0  0  0  0  0
   -5.8345    3.8923  -21.1878 H   0  0  0  0  0  0
   -6.3254    4.2197  -23.5751 H   0  0  0  0  0  0
    5.7639    4.1808  -21.3709 H   0  0  0  0  0  0
    7.0208    3.1950  -20.5014 H   0  0  0  0  0  0
    6.4636    2.8929  -24.7426 H   0  0  0  0  0  0
    6.2253    4.4275  -23.8463 H   0  0  0  0  0  0
   -5.5381    4.2848  -25.9434 H   0  0  0  0  0  0
    2.3726    1.9606  -24.7552 H   0  0  0  0  0  0
    3.2519    1.5355  -22.8676 H   0  0  0  0  0  0
    4.4464    0.8896  -24.0557 H   0  0  0  0  0  0
    5.0049    0.2127  -21.7106 H   0  0  0  0  0  0
    7.8986    3.0093  -22.6745 H   0  0  0  0  0  0
    4.2452    2.7194  -20.8595 H   0  0  0  0  0  0
    5.5287    1.7064  -19.9878 H   0  0  0  0  0  0
   -1.4062    3.7719  -26.8828 H   0  0  0  0  0  0
    0.5352    2.3569  -20.8099 H   0  0  0  0  0  0
    7.2852    0.7823  -21.8674 H   0  0  0  0  0  0
   -2.8650    3.9110  -28.2914 H   0  0  0  0  0  0
    7.6850    8.3790  -21.4210 O   0  0  0  0  0  0
   10.8360    9.3590  -21.6770 N   0  3  0  0  0  0
    7.8490    9.9340  -22.8740 N   0  0  0  0  0  0
    3.8590    7.5380  -22.3630 C   0  0  0  0  0  0
    4.6140    7.3950  -21.0290 C   0  0  0  0  0  0
    5.2820    8.7130  -20.6160 C   0  0  0  0  0  0
    6.4830    9.0550  -21.4710 C   0  0  0  0  0  0
    9.8890    8.5370  -22.5140 C   0  0  0  0  0  0
    8.4520    8.9430  -22.2600 C   0  0  0  0  0  0
    6.5810   10.0150  -22.3790 C   0  0  0  0  0  0
   11.7843    9.0722  -21.8629 H   0  0  0  0  0  0
   10.7300   10.3342  -21.9090 H   0  0  0  0  0  0
   10.6290    9.2210  -20.7002 H   0  0  0  0  0  0
    4.5422    7.9331  -23.1292 H   0  0  0  0  0  0
    3.0410    8.2640  -22.2450 H   0  0  0  0  0  0
    5.3794    6.6106  -21.1230 H   0  0  0  0  0  0
    3.9117    7.0789  -20.2436 H   0  0  0  0  0  0
    5.5889    8.6510  -19.5615 H   0  0  0  0  0  0
    4.5468    9.5292  -20.6740 H   0  0  0  0  0  0
   10.0159    7.4715  -22.2721 H   0  0  0  0  0  0
   10.1261    8.6750  -23.5792 H   0  0  0  0  0  0
    5.8968   10.7742  -22.7551 H   0  0  0  0  0  0
  1  2  2  0  0  0
  1  3  1  0  0  0
  1 34  1  0  0  0
  2  6  1  0  0  0
  2 35  1  0  0  0
  3  5  2  0  0  0
  3 27  1  0  0  0
  4  5  1  0  0  0
  4  6  2  0  0  0
  4 18  1  0  0  0
  5 24  1  0  0  0
  6 10  1  0  0  0
  7 10  2  0  0  0
  7 23  1  0  0  0
  7 33  1  0  0  0
  8 21  1  0  0  0
  8 22  1  0  0  0
  8 36  1  0  0  0
  8 37  1  0  0  0
  9 21  1  0  0  0
  9 31  1  0  0  0
  9 38  1  0  0  0
  9 39  1  0  0  0
 10 40  1  0  0  0
 11 12  1  0  0  0
 11 14  2  0  0  0
 11 15  1  0  0  0
 12 17  1  0  0  0
 12 28  2  0  0  0
 13 28  1  0  0  0
 13 29  2  0  0  0
 13 55  1  0  0  0
 14 29  1  0  0  0
 14 31  1  0  0  0
 15 30  2  0  0  0
 15 41  1  0  0  0
 16 17  2  0  0  0
 16 18  1  0  0  0
 16 30  1  0  0  0
 17 26  1  0  0  0
 18 23  2  0  0  0
 19 20  1  0  0  0
 19 31  1  0  0  0
 19 42  1  0  0  0
 19 43  1  0  0  0
 20 22  1  0  0  0
 20 32  1  0  0  0
 20 44  1  0  0  0
 21 32  1  0  0  0
 21 45  1  0  0  0
 22 46  1  0  0  0
 22 47  1  0  0  0
 23 48  1  0  0  0
 24 25  3  0  0  0
 25 49  1  0  0  0
 32 50  1  0  0  0
 33 51  1  0  0  0
 52 58  1  0  0  0
 52 60  1  0  0  0
 53 59  1  0  0  0
 53 62  1  0  0  0
 53 63  1  0  0  0
 53 64  1  0  0  0
 54 60  2  0  0  0
 54 61  1  0  0  0
 55 56  1  0  0  0
 55 65  1  0  0  0
 55 66  1  0  0  0
 56 57  1  0  0  0
 56 67  1  0  0  0
 56 68  1  0  0  0
 57 58  1  0  0  0
 57 69  1  0  0  0
 57 70  1  0  0  0
 58 61  2  0  0  0
 59 60  1  0  0  0
 59 71  1  0  0  0
 59 72  1  0  0  0
 61 73  1  0  0  0
M  CHG  1  53   1
M  END
> <s_m_entry_id>
249

> <s_m_entry_name>
000000091.1

> <s_m_Source_Path>
/Users/zaksoul/Documents/3r_UNI/2nd_SEMESTER/BSC/FRAG_RECON/RESULTS/2

> <s_m_Source_File>
000000091.mol2

> <i_m_Source_File_Index>
1

$$$$
No_0_104
                    3D
 Schrodinger Suite 2022-4.
 74 80  0  0  1  0            999 V2000
   -5.2770    3.8490  -21.7600 C   0  0  0  0  0  0
   -5.5600    3.9780  -23.0990 C   0  0  0  0  0  0
   -4.0340    3.6140  -21.4230 C   0  0  0  0  0  0
   -3.1690    3.6460  -23.6030 C   0  0  0  0  0  0
   -2.9910    3.4650  -22.1750 C   0  0  0  0  0  0
   -4.5240    3.8820  -24.1190 C   0  0  0  0  0  0
   -3.7950    3.8080  -26.3250 C   0  0  0  0  0  0
    5.9980    3.3280  -21.1490 C   0  0  0  0  0  0
    5.8290    3.3570  -23.7000 C   0  0  0  0  0  0
   -4.7910    3.9500  -25.4550 C   0  0  0  0  0  0
    2.0430    3.8960  -23.6970 C   0  0  0  0  0  0
    1.2230    5.0150  -23.4370 C   0  0  0  0  0  0
    3.0260    6.2430  -22.8320 C   0  0  0  0  0  0
    3.4460    4.1030  -23.4090 C   0  0  0  0  0  0
    1.4920    2.7490  -24.3010 C   0  0  0  0  0  0
   -0.6360    3.5620  -24.2010 C   0  0  0  0  0  0
   -0.1060    4.8090  -23.6630 C   0  0  0  0  0  0
   -2.0940    3.5500  -24.5380 C   0  0  0  0  0  0
    4.0620    1.6220  -23.0140 C   0  0  0  0  0  0
    5.0100    1.3190  -21.8640 C   0  0  2  0  0  0
    6.5920    2.8380  -22.4870 C   0  0  2  0  0  0
    5.0030    2.3710  -20.7420 C   0  0  0  0  0  0
   -2.4360    3.6450  -25.9680 C   0  0  0  0  0  0
   -1.6390    3.0810  -21.5750 C   0  0  0  0  0  0
   -0.6010    2.7580  -21.0670 C   0  0  0  0  0  0
   -0.9460    5.8670  -23.3550 F   0  0  0  0  0  0
   -3.8070    3.4330  -20.0340 F   0  0  0  0  0  0
    1.7030    6.1970  -22.9630 N   0  0  0  0  0  0
    3.9220    5.2740  -23.0200 N   0  0  0  0  0  0
    0.1820    2.6440  -24.5860 N   0  0  0  0  0  0
    4.3650    3.0500  -23.5510 N   0  0  0  0  0  0
    6.4110    1.3680  -22.3660 N   0  0  1  0  0  0
   -3.9840    3.7610  -27.7110 O   0  0  0  0  0  0
   -6.0706    3.9423  -21.0276 H   0  0  0  0  0  0
   -6.5790    4.1557  -23.4233 H   0  0  0  0  0  0
    5.5235    4.3094  -21.2964 H   0  0  0  0  0  0
    6.7931    3.3744  -20.3902 H   0  0  0  0  0  0
    6.2133    2.8728  -24.6099 H   0  0  0  0  0  0
    5.9683    4.4449  -23.7838 H   0  0  0  0  0  0
   -5.8058    4.1176  -25.7973 H   0  0  0  0  0  0
    2.1296    1.9096  -24.5540 H   0  0  0  0  0  0
    3.0236    1.5786  -22.6537 H   0  0  0  0  0  0
    4.2164    0.8885  -23.8191 H   0  0  0  0  0  0
    4.7930    0.3236  -21.4491 H   0  0  0  0  0  0
    7.6591    3.0952  -22.5586 H   0  0  0  0  0  0
    4.0190    2.8615  -20.7087 H   0  0  0  0  0  0
    5.3160    1.8994  -19.7988 H   0  0  0  0  0  0
   -1.6754    3.5928  -26.7386 H   0  0  0  0  0  0
    0.3121    2.4740  -20.6190 H   0  0  0  0  0  0
    7.0679    0.9026  -21.6460 H   0  0  0  0  0  0
   -3.1443    3.6560  -28.1427 H   0  0  0  0  0  0
    8.3370    8.6170  -24.5600 N   0  3  0  0  0  0
    6.0500    9.0270  -20.9610 N   0  0  0  0  0  0
    6.5090    9.3310  -22.1990 N   0  0  0  0  0  0
    3.9590    7.6740  -20.9370 C   0  0  0  0  0  0
    3.5870    7.6030  -22.4310 C   0  0  0  0  0  0
    4.6360    9.0050  -20.5740 C   0  0  0  0  0  0
    7.8170    9.2770  -22.2200 C   0  0  0  0  0  0
    8.6500    9.5780  -23.4490 C   0  0  0  0  0  0
    8.2720    8.9110  -20.9480 C   0  0  0  0  0  0
    7.1580    8.7710  -20.2260 C   0  0  0  0  0  0
    8.9028    8.8369  -25.3647 H   0  0  0  0  0  0
    8.5360    7.6761  -24.2580 H   0  0  0  0  0  0
    7.3620    8.6910  -24.8050 H   0  0  0  0  0  0
    4.6330    6.8411  -20.6880 H   0  0  0  0  0  0
    3.0519    7.5470  -20.3279 H   0  0  0  0  0  0
    4.4761    7.8260  -23.0391 H   0  0  0  0  0  0
    2.8492    8.3858  -22.6609 H   0  0  0  0  0  0
    4.1074    9.8314  -21.0716 H   0  0  0  0  0  0
    4.5500    9.1760  -19.4908 H   0  0  0  0  0  0
    8.4479   10.6054  -23.7861 H   0  0  0  0  0  0
    9.7177    9.5070  -23.1941 H   0  0  0  0  0  0
    9.3350    8.8090  -20.7620 H   0  0  0  0  0  0
    7.0640    8.4931  -19.1824 H   0  0  0  0  0  0
  1  2  2  0  0  0
  1  3  1  0  0  0
  1 34  1  0  0  0
  2  6  1  0  0  0
  2 35  1  0  0  0
  3  5  2  0  0  0
  3 27  1  0  0  0
  4  5  1  0  0  0
  4  6  2  0  0  0
  4 18  1  0  0  0
  5 24  1  0  0  0
  6 10  1  0  0  0
  7 10  2  0  0  0
  7 23  1  0  0  0
  7 33  1  0  0  0
  8 21  1  0  0  0
  8 22  1  0  0  0
  8 36  1  0  0  0
  8 37  1  0  0  0
  9 21  1  0  0  0
  9 31  1  0  0  0
  9 38  1  0  0  0
  9 39  1  0  0  0
 10 40  1  0  0  0
 11 12  1  0  0  0
 11 14  2  0  0  0
 11 15  1  0  0  0
 12 17  1  0  0  0
 12 28  2  0  0  0
 13 28  1  0  0  0
 13 29  2  0  0  0
 13 56  1  0  0  0
 14 29  1  0  0  0
 14 31  1  0  0  0
 15 30  2  0  0  0
 15 41  1  0  0  0
 16 17  2  0  0  0
 16 18  1  0  0  0
 16 30  1  0  0  0
 17 26  1  0  0  0
 18 23  2  0  0  0
 19 20  1  0  0  0
 19 31  1  0  0  0
 19 42  1  0  0  0
 19 43  1  0  0  0
 20 22  1  0  0  0
 20 32  1  0  0  0
 20 44  1  0  0  0
 21 32  1  0  0  0
 21 45  1  0  0  0
 22 46  1  0  0  0
 22 47  1  0  0  0
 23 48  1  0  0  0
 24 25  3  0  0  0
 25 49  1  0  0  0
 32 50  1  0  0  0
 33 51  1  0  0  0
 52 59  1  0  0  0
 52 62  1  0  0  0
 52 63  1  0  0  0
 52 64  1  0  0  0
 53 54  1  0  0  0
 53 57  1  0  0  0
 53 61  1  0  0  0
 54 58  2  0  0  0
 55 56  1  0  0  0
 55 57  1  0  0  0
 55 65  1  0  0  0
 55 66  1  0  0  0
 56 67  1  0  0  0
 56 68  1  0  0  0
 57 69  1  0  0  0
 57 70  1  0  0  0
 58 59  1  0  0  0
 58 60  1  0  0  0
 59 71  1  0  0  0
 59 72  1  0  0  0
 60 61  2  0  0  0
 60 73  1  0  0  0
 61 74  1  0  0  0
M  CHG  1  52   1
M  END
> <s_m_entry_id>
250

> <s_m_entry_name>
000000092.1

> <s_m_Source_Path>
/Users/zaksoul/Documents/3r_UNI/2nd_SEMESTER/BSC/FRAG_RECON/RESULTS/2

> <s_m_Source_File>
000000092.mol2

> <i_m_Source_File_Index>
1

$$$$
No_0_105
                    3D
 Schrodinger Suite 2022-4.
 74 80  0  0  1  0            999 V2000
   -5.1680    3.5710  -21.8370 C   0  0  0  0  0  0
   -5.4570    3.7470  -23.1690 C   0  0  0  0  0  0
   -3.9240    3.3260  -21.5140 C   0  0  0  0  0  0
   -3.0680    3.4380  -23.6950 C   0  0  0  0  0  0
   -2.8830    3.2060  -22.2760 C   0  0  0  0  0  0
   -4.4250    3.6910  -24.1960 C   0  0  0  0  0  0
   -3.7070    3.6980  -26.4070 C   0  0  0  0  0  0
    6.1110    3.0490  -21.2960 C   0  0  0  0  0  0
    5.9300    3.1700  -23.8430 C   0  0  0  0  0  0
   -4.6990    3.8060  -25.5280 C   0  0  0  0  0  0
    2.1430    3.7010  -23.8030 C   0  0  0  0  0  0
    1.3220    4.8080  -23.4990 C   0  0  0  0  0  0
    3.1260    6.0170  -22.8590 C   0  0  0  0  0  0
    3.5470    3.9010  -23.5140 C   0  0  0  0  0  0
    1.5910    2.5760  -24.4460 C   0  0  0  0  0  0
   -0.5380    3.3810  -24.3080 C   0  0  0  0  0  0
   -0.0070    4.6090  -23.7270 C   0  0  0  0  0  0
   -1.9970    3.3780  -24.6380 C   0  0  0  0  0  0
    4.1690    1.4080  -23.2130 C   0  0  0  0  0  0
    5.1230    1.0650  -22.0790 C   0  0  2  0  0  0
    6.7000    2.6090  -22.6530 C   0  0  2  0  0  0
    5.1190    2.0760  -20.9190 C   0  0  0  0  0  0
   -2.3460    3.5250  -26.0620 C   0  0  0  0  0  0
   -1.5280    2.8030  -21.6960 C   0  0  0  0  0  0
   -0.4870    2.4640  -21.2040 C   0  0  0  0  0  0
   -0.8480    5.6530  -23.3770 F   0  0  0  0  0  0
   -3.6900    3.0950  -20.1340 F   0  0  0  0  0  0
    1.8020    5.9740  -22.9850 N   0  0  0  0  0  0
    4.0220    5.0570  -23.0860 N   0  0  0  0  0  0
    0.2800    2.4790  -24.7290 N   0  0  0  0  0  0
    4.4670    2.8550  -23.6980 N   0  0  0  0  0  0
    6.5210    1.1350  -22.5850 N   0  0  1  0  0  0
   -3.9020    3.7010  -27.7930 O   0  0  0  0  0  0
   -5.9588    3.6362  -21.0984 H   0  0  0  0  0  0
   -6.4775    3.9356  -23.4821 H   0  0  0  0  0  0
    5.6336    4.0340  -21.4050 H   0  0  0  0  0  0
    6.9091    3.0682  -20.5393 H   0  0  0  0  0  0
    6.3106    2.7198  -24.7717 H   0  0  0  0  0  0
    6.0673    4.2605  -23.8874 H   0  0  0  0  0  0
   -5.7158    3.9837  -25.8592 H   0  0  0  0  0  0
    2.2287    1.7475  -24.7322 H   0  0  0  0  0  0
    3.1323    1.3495  -22.8499 H   0  0  0  0  0  0
    4.3204    0.7033  -24.0439 H   0  0  0  0  0  0
    4.9091    0.0552  -21.6987 H   0  0  0  0  0  0
    7.7664    2.8705  -22.7196 H   0  0  0  0  0  0
    4.1340    2.5625  -20.8635 H   0  0  0  0  0  0
    5.4371    1.5711  -19.9950 H   0  0  0  0  0  0
   -1.5888    3.5019  -26.8373 H   0  0  0  0  0  0
    0.4290    2.1657  -20.7715 H   0  0  0  0  0  0
    7.1816    0.6454  -21.8848 H   0  0  0  0  0  0
   -3.0642    3.6130  -28.2322 H   0  0  0  0  0  0
    7.8840    8.9290  -25.2490 N   0  3  0  0  0  0
    6.3130    8.7920  -21.2650 N   0  0  0  0  0  0
    6.5100    9.2570  -22.5220 N   0  0  0  0  0  0
    4.3340    7.3000  -21.0140 C   0  0  0  0  0  0
    3.6870    7.3630  -22.4100 C   0  0  0  0  0  0
    5.0020    8.6290  -20.6280 C   0  0  0  0  0  0
    7.7910    9.2980  -22.7920 C   0  0  0  0  0  0
    8.3570    9.7860  -24.1090 C   0  0  0  0  0  0
    8.4990    8.8320  -21.6780 C   0  0  0  0  0  0
    7.5530    8.5380  -20.7830 C   0  0  0  0  0  0
    8.2730    9.2730  -26.1130 H   0  0  0  0  0  0
    8.1831    7.9778  -25.1010 H   0  0  0  0  0  0
    6.8777    8.9610  -25.2980 H   0  0  0  0  0  0
    5.0832    6.4948  -20.9940 H   0  0  0  0  0  0
    3.5679    7.0450  -20.2669 H   0  0  0  0  0  0
    4.4299    7.7109  -23.1429 H   0  0  0  0  0  0
    2.8812    8.1118  -22.4060 H   0  0  0  0  0  0
    4.3482    9.4648  -20.9179 H   0  0  0  0  0  0
    5.1181    8.6770  -19.5352 H   0  0  0  0  0  0
    8.0450   10.8270  -24.2790 H   0  0  0  0  0  0
    9.4560    9.7640  -24.0670 H   0  0  0  0  0  0
    9.5816    8.7850  -21.7050 H   0  0  0  0  0  0
    7.6750    8.1438  -19.7806 H   0  0  0  0  0  0
  1  2  2  0  0  0
  1  3  1  0  0  0
  1 34  1  0  0  0
  2  6  1  0  0  0
  2 35  1  0  0  0
  3  5  2  0  0  0
  3 27  1  0  0  0
  4  5  1  0  0  0
  4  6  2  0  0  0
  4 18  1  0  0  0
  5 24  1  0  0  0
  6 10  1  0  0  0
  7 10  2  0  0  0
  7 23  1  0  0  0
  7 33  1  0  0  0
  8 21  1  0  0  0
  8 22  1  0  0  0
  8 36  1  0  0  0
  8 37  1  0  0  0
  9 21  1  0  0  0
  9 31  1  0  0  0
  9 38  1  0  0  0
  9 39  1  0  0  0
 10 40  1  0  0  0
 11 12  1  0  0  0
 11 14  2  0  0  0
 11 15  1  0  0  0
 12 17  1  0  0  0
 12 28  2  0  0  0
 13 28  1  0  0  0
 13 29  2  0  0  0
 13 56  1  0  0  0
 14 29  1  0  0  0
 14 31  1  0  0  0
 15 30  2  0  0  0
 15 41  1  0  0  0
 16 17  2  0  0  0
 16 18  1  0  0  0
 16 30  1  0  0  0
 17 26  1  0  0  0
 18 23  2  0  0  0
 19 20  1  0  0  0
 19 31  1  0  0  0
 19 42  1  0  0  0
 19 43  1  0  0  0
 20 22  1  0  0  0
 20 32  1  0  0  0
 20 44  1  0  0  0
 21 32  1  0  0  0
 21 45  1  0  0  0
 22 46  1  0  0  0
 22 47  1  0  0  0
 23 48  1  0  0  0
 24 25  3  0  0  0
 25 49  1  0  0  0
 32 50  1  0  0  0
 33 51  1  0  0  0
 52 59  1  0  0  0
 52 62  1  0  0  0
 52 63  1  0  0  0
 52 64  1  0  0  0
 53 54  1  0  0  0
 53 57  1  0  0  0
 53 61  1  0  0  0
 54 58  2  0  0  0
 55 56  1  0  0  0
 55 57  1  0  0  0
 55 65  1  0  0  0
 55 66  1  0  0  0
 56 67  1  0  0  0
 56 68  1  0  0  0
 57 69  1  0  0  0
 57 70  1  0  0  0
 58 59  1  0  0  0
 58 60  1  0  0  0
 59 71  1  0  0  0
 59 72  1  0  0  0
 60 61  2  0  0  0
 60 73  1  0  0  0
 61 74  1  0  0  0
M  CHG  1  52   1
M  END
> <s_m_entry_id>
251

> <s_m_entry_name>
000000093.1

> <s_m_Source_Path>
/Users/zaksoul/Documents/3r_UNI/2nd_SEMESTER/BSC/FRAG_RECON/RESULTS/2

> <s_m_Source_File>
000000093.mol2

> <i_m_Source_File_Index>
1

$$$$
No_0_106
                    3D
 Schrodinger Suite 2022-4.
 71 77  0  0  1  0            999 V2000
   -5.3590    3.2930  -21.7930 C   0  0  0  0  0  0
   -5.6590    3.4950  -23.1200 C   0  0  0  0  0  0
   -4.1110    3.0500  -21.4840 C   0  0  0  0  0  0
   -3.2720    3.2140  -23.6680 C   0  0  0  0  0  0
   -3.0750    2.9540  -22.2550 C   0  0  0  0  0  0
   -4.6340    3.4660  -24.1550 C   0  0  0  0  0  0
   -3.9310    3.5240  -26.3690 C   0  0  0  0  0  0
    5.9270    2.8420  -21.3400 C   0  0  0  0  0  0
    5.7270    3.0140  -23.8840 C   0  0  0  0  0  0
   -4.9180    3.6070  -25.4820 C   0  0  0  0  0  0
    1.9370    3.5170  -23.8070 C   0  0  0  0  0  0
    1.1100    4.6120  -23.4750 C   0  0  0  0  0  0
    2.9090    5.8200  -22.8220 C   0  0  0  0  0  0
    3.3420    3.7200  -23.5240 C   0  0  0  0  0  0
    1.3880    2.4010  -24.4690 C   0  0  0  0  0  0
   -0.7450    3.1880  -24.2990 C   0  0  0  0  0  0
   -0.2190    4.4070  -23.6970 C   0  0  0  0  0  0
   -2.2060    3.1810  -24.6190 C   0  0  0  0  0  0
    3.9830    1.2270  -23.2770 C   0  0  0  0  0  0
    4.9470    0.8680  -22.1570 C   0  0  2  0  0  0
    6.5090    2.4340  -22.7110 C   0  0  2  0  0  0
    4.9450    1.8550  -20.9770 C   0  0  0  0  0  0
   -2.5670    3.3540  -26.0370 C   0  0  0  0  0  0
   -1.7120    2.5490  -21.6930 C   0  0  0  0  0  0
   -0.6660    2.2080  -21.2160 C   0  0  0  0  0  0
   -1.0650    5.4370  -23.3200 F   0  0  0  0  0  0
   -3.8650    2.7940  -20.1110 F   0  0  0  0  0  0
    1.5860    5.7700  -22.9400 N   0  0  0  0  0  0
    3.8120    4.8710  -23.0750 N   0  0  0  0  0  0
    0.0760    2.3000  -24.7450 N   0  0  0  0  0  0
    4.2680    2.6860  -23.7350 N   0  0  0  0  0  0
    6.3410    0.9580  -22.6710 N   0  0  1  0  0  0
   -4.1360    3.5540  -27.7540 O   0  0  0  0  0  0
   -6.1447    3.3372  -21.0475 H   0  0  0  0  0  0
   -6.6831    3.6818  -23.4222 H   0  0  0  0  0  0
    5.4418    3.8254  -21.4267 H   0  0  0  0  0  0
    6.7306    2.8531  -20.5889 H   0  0  0  0  0  0
    6.1046    2.5849  -24.8239 H   0  0  0  0  0  0
    5.8562    4.1062  -23.9062 H   0  0  0  0  0  0
   -5.9382    3.7847  -25.8023 H   0  0  0  0  0  0
    2.0305    1.5838  -24.7762 H   0  0  0  0  0  0
    2.9495    1.1533  -22.9076 H   0  0  0  0  0  0
    4.1333    0.5409  -24.1235 H   0  0  0  0  0  0
    4.7432   -0.1509  -21.7959 H   0  0  0  0  0  0
    7.5731    2.7046  -22.7786 H   0  0  0  0  0  0
    3.9571    2.3333  -20.9043 H   0  0  0  0  0  0
    5.2730    1.3333  -20.0658 H   0  0  0  0  0  0
   -1.8152    3.3520  -26.8179 H   0  0  0  0  0  0
    0.2546    1.9071  -20.7952 H   0  0  0  0  0  0
    7.0111    0.4600  -21.9859 H   0  0  0  0  0  0
   -3.3004    3.4808  -28.2000 H   0  0  0  0  0  0
    5.5310    8.4780  -22.1200 N   0  0  0  0  0  0
    6.3800   10.0230  -20.8470 N   0  3  0  0  0  0
    3.4640    7.1600  -22.3500 C   0  0  0  0  0  0
    6.1950   10.7250  -22.1080 C   0  0  0  0  0  0
    5.6040    9.6130  -23.0260 C   0  0  0  0  0  0
    5.9890    8.7600  -20.9070 C   0  0  0  0  0  0
    6.0720    7.8090  -19.7380 C   0  0  0  0  0  0
    4.9900    7.1960  -22.5370 C   0  0  0  0  0  0
    6.7647   10.4017  -19.9698 H   0  0  0  0  0  0
    3.0042    7.9726  -22.9317 H   0  0  0  0  0  0
    3.2219    7.3031  -21.2866 H   0  0  0  0  0  0
    7.1760   11.0340  -22.4980 H   0  0  0  0  0  0
    5.4458   11.5192  -21.9740 H   0  0  0  0  0  0
    4.5866    9.8991  -23.3311 H   0  0  0  0  0  0
    6.3208    9.3891  -23.8298 H   0  0  0  0  0  0
    6.4949    8.3329  -18.8681 H   0  0  0  0  0  0
    5.0651    7.4420  -19.4900 H   0  0  0  0  0  0
    6.7172    6.9578  -20.0011 H   0  0  0  0  0  0
    5.4501    6.3927  -21.9428 H   0  0  0  0  0  0
    5.2330    7.0230  -23.5958 H   0  0  0  0  0  0
  1  2  2  0  0  0
  1  3  1  0  0  0
  1 34  1  0  0  0
  2  6  1  0  0  0
  2 35  1  0  0  0
  3  5  2  0  0  0
  3 27  1  0  0  0
  4  5  1  0  0  0
  4  6  2  0  0  0
  4 18  1  0  0  0
  5 24  1  0  0  0
  6 10  1  0  0  0
  7 10  2  0  0  0
  7 23  1  0  0  0
  7 33  1  0  0  0
  8 21  1  0  0  0
  8 22  1  0  0  0
  8 36  1  0  0  0
  8 37  1  0  0  0
  9 21  1  0  0  0
  9 31  1  0  0  0
  9 38  1  0  0  0
  9 39  1  0  0  0
 10 40  1  0  0  0
 11 12  1  0  0  0
 11 14  2  0  0  0
 11 15  1  0  0  0
 12 17  1  0  0  0
 12 28  2  0  0  0
 13 28  1  0  0  0
 13 29  2  0  0  0
 13 54  1  0  0  0
 14 29  1  0  0  0
 14 31  1  0  0  0
 15 30  2  0  0  0
 15 41  1  0  0  0
 16 17  2  0  0  0
 16 18  1  0  0  0
 16 30  1  0  0  0
 17 26  1  0  0  0
 18 23  2  0  0  0
 19 20  1  0  0  0
 19 31  1  0  0  0
 19 42  1  0  0  0
 19 43  1  0  0  0
 20 22  1  0  0  0
 20 32  1  0  0  0
 20 44  1  0  0  0
 21 32  1  0  0  0
 21 45  1  0  0  0
 22 46  1  0  0  0
 22 47  1  0  0  0
 23 48  1  0  0  0
 24 25  3  0  0  0
 25 49  1  0  0  0
 32 50  1  0  0  0
 33 51  1  0  0  0
 52 56  1  0  0  0
 52 57  1  0  0  0
 52 59  1  0  0  0
 53 55  1  0  0  0
 53 57  2  0  0  0
 53 60  1  0  0  0
 54 59  1  0  0  0
 54 61  1  0  0  0
 54 62  1  0  0  0
 55 56  1  0  0  0
 55 63  1  0  0  0
 55 64  1  0  0  0
 56 65  1  0  0  0
 56 66  1  0  0  0
 57 58  1  0  0  0
 58 67  1  0  0  0
 58 68  1  0  0  0
 58 69  1  0  0  0
 59 70  1  0  0  0
 59 71  1  0  0  0
M  CHG  1  53   1
M  END
> <s_m_entry_id>
252

> <s_m_entry_name>
000000094.1

> <s_m_Source_Path>
/Users/zaksoul/Documents/3r_UNI/2nd_SEMESTER/BSC/FRAG_RECON/RESULTS/2

> <s_m_Source_File>
000000094.mol2

> <i_m_Source_File_Index>
1

$$$$
No_0_107
                    3D
 Schrodinger Suite 2022-4.
 71 77  0  0  1  0            999 V2000
   -5.2340    3.4340  -21.6370 C   0  0  0  0  0  0
   -5.5170    3.6750  -22.9600 C   0  0  0  0  0  0
   -3.9930    3.1620  -21.3230 C   0  0  0  0  0  0
   -3.1310    3.3650  -23.4950 C   0  0  0  0  0  0
   -2.9520    3.0660  -22.0870 C   0  0  0  0  0  0
   -4.4840    3.6550  -23.9870 C   0  0  0  0  0  0
   -3.7590    3.7550  -26.1930 C   0  0  0  0  0  0
    6.0380    2.7680  -21.0970 C   0  0  0  0  0  0
    5.8640    3.0070  -23.6370 C   0  0  0  0  0  0
   -4.7530    3.8340  -25.3130 C   0  0  0  0  0  0
    2.0830    3.5770  -23.5800 C   0  0  0  0  0  0
    1.2730    4.6780  -23.2270 C   0  0  0  0  0  0
    3.0880    5.8370  -22.5280 C   0  0  0  0  0  0
    3.4890    3.7480  -23.2790 C   0  0  0  0  0  0
    1.5210    2.4890  -24.2750 C   0  0  0  0  0  0
   -0.5990    3.3090  -24.1040 C   0  0  0  0  0  0
   -0.0570    4.5030  -23.4670 C   0  0  0  0  0  0
   -2.0570    3.3370  -24.4370 C   0  0  0  0  0  0
    4.0830    1.2370  -23.0910 C   0  0  0  0  0  0
    5.0310    0.8330  -21.9720 C   0  0  2  0  0  0
    6.6250    2.3840  -22.4720 C   0  0  2  0  0  0
    5.0350    1.7900  -20.7670 C   0  0  0  0  0  0
   -2.4010    3.5520  -25.8530 C   0  0  0  0  0  0
   -1.6020    2.6230  -21.5240 C   0  0  0  0  0  0
   -0.5660    2.2500  -21.0460 C   0  0  0  0  0  0
   -0.8880    5.5390  -23.0710 F   0  0  0  0  0  0
   -3.7640    2.8660  -19.9540 F   0  0  0  0  0  0
    1.7650    5.8130  -22.6590 N   0  0  0  0  0  0
    3.9750    4.8780  -22.7970 N   0  0  0  0  0  0
    0.2100    2.4180  -24.5650 N   0  0  0  0  0  0
    4.3980    2.7020  -23.5090 N   0  0  0  0  0  0
    6.4310    0.9110  -22.4710 N   0  0  1  0  0  0
   -3.9510    3.8240  -27.5780 O   0  0  0  0  0  0
   -6.0252    3.4742  -20.8971 H   0  0  0  0  0  0
   -6.5349    3.8878  -23.2662 H   0  0  0  0  0  0
    5.5717    3.7621  -21.1626 H   0  0  0  0  0  0
    6.8346    2.7448  -20.3388 H   0  0  0  0  0  0
    6.2436    2.5961  -24.5841 H   0  0  0  0  0  0
    6.0133    4.0968  -23.6299 H   0  0  0  0  0  0
   -5.7671    4.0378  -25.6373 H   0  0  0  0  0  0
    2.1508    1.6676  -24.5969 H   0  0  0  0  0  0
    3.0450    1.1734  -22.7325 H   0  0  0  0  0  0
    4.2295    0.5703  -23.9536 H   0  0  0  0  0  0
    4.8051   -0.1908  -21.6391 H   0  0  0  0  0  0
    7.6942    2.6372  -22.5245 H   0  0  0  0  0  0
    4.0549    2.2836  -20.6913 H   0  0  0  0  0  0
    5.3448    1.2390  -19.8668 H   0  0  0  0  0  0
   -1.6426    3.5570  -26.6275 H   0  0  0  0  0  0
    0.3454    1.9228  -20.6248 H   0  0  0  0  0  0
    7.0853    0.3829  -21.7932 H   0  0  0  0  0  0
   -3.1132    3.7468  -28.0192 H   0  0  0  0  0  0
    5.6570    8.5960  -22.0660 N   0  0  0  0  0  0
    6.6840   10.0490  -20.8150 N   0  3  0  0  0  0
    3.6620    7.1540  -22.0180 C   0  0  0  0  0  0
    6.1890   10.8720  -21.9080 C   0  0  0  0  0  0
    5.4690    9.8290  -22.8140 C   0  0  0  0  0  0
    6.3560    8.7740  -20.9530 C   0  0  0  0  0  0
    6.7450    7.7060  -19.9590 C   0  0  0  0  0  0
    5.1050    7.3310  -22.5190 C   0  0  0  0  0  0
    7.2330   10.3550  -19.9990 H   0  0  0  0  0  0
    3.0429    7.9881  -22.3800 H   0  0  0  0  0  0
    3.6540    7.1560  -20.9180 H   0  0  0  0  0  0
    7.0420   11.3000  -22.4550 H   0  0  0  0  0  0
    5.4481   11.5849  -21.5171 H   0  0  0  0  0  0
    4.3957   10.0661  -22.8570 H   0  0  0  0  0  0
    6.0017    9.7550  -23.7735 H   0  0  0  0  0  0
    7.3209    8.1599  -19.1391 H   0  0  0  0  0  0
    5.8381    7.2350  -19.5520 H   0  0  0  0  0  0
    7.3593    6.9436  -20.4603 H   0  0  0  0  0  0
    5.7271    6.5049  -22.1440 H   0  0  0  0  0  0
    5.1170    7.2990  -23.6185 H   0  0  0  0  0  0
  1  2  2  0  0  0
  1  3  1  0  0  0
  1 34  1  0  0  0
  2  6  1  0  0  0
  2 35  1  0  0  0
  3  5  2  0  0  0
  3 27  1  0  0  0
  4  5  1  0  0  0
  4  6  2  0  0  0
  4 18  1  0  0  0
  5 24  1  0  0  0
  6 10  1  0  0  0
  7 10  2  0  0  0
  7 23  1  0  0  0
  7 33  1  0  0  0
  8 21  1  0  0  0
  8 22  1  0  0  0
  8 36  1  0  0  0
  8 37  1  0  0  0
  9 21  1  0  0  0
  9 31  1  0  0  0
  9 38  1  0  0  0
  9 39  1  0  0  0
 10 40  1  0  0  0
 11 12  1  0  0  0
 11 14  2  0  0  0
 11 15  1  0  0  0
 12 17  1  0  0  0
 12 28  2  0  0  0
 13 28  1  0  0  0
 13 29  2  0  0  0
 13 54  1  0  0  0
 14 29  1  0  0  0
 14 31  1  0  0  0
 15 30  2  0  0  0
 15 41  1  0  0  0
 16 17  2  0  0  0
 16 18  1  0  0  0
 16 30  1  0  0  0
 17 26  1  0  0  0
 18 23  2  0  0  0
 19 20  1  0  0  0
 19 31  1  0  0  0
 19 42  1  0  0  0
 19 43  1  0  0  0
 20 22  1  0  0  0
 20 32  1  0  0  0
 20 44  1  0  0  0
 21 32  1  0  0  0
 21 45  1  0  0  0
 22 46  1  0  0  0
 22 47  1  0  0  0
 23 48  1  0  0  0
 24 25  3  0  0  0
 25 49  1  0  0  0
 32 50  1  0  0  0
 33 51  1  0  0  0
 52 56  1  0  0  0
 52 57  1  0  0  0
 52 59  1  0  0  0
 53 55  1  0  0  0
 53 57  2  0  0  0
 53 60  1  0  0  0
 54 59  1  0  0  0
 54 61  1  0  0  0
 54 62  1  0  0  0
 55 56  1  0  0  0
 55 63  1  0  0  0
 55 64  1  0  0  0
 56 65  1  0  0  0
 56 66  1  0  0  0
 57 58  1  0  0  0
 58 67  1  0  0  0
 58 68  1  0  0  0
 58 69  1  0  0  0
 59 70  1  0  0  0
 59 71  1  0  0  0
M  CHG  1  53   1
M  END
> <s_m_entry_id>
253

> <s_m_entry_name>
000000095.1

> <s_m_Source_Path>
/Users/zaksoul/Documents/3r_UNI/2nd_SEMESTER/BSC/FRAG_RECON/RESULTS/2

> <s_m_Source_File>
000000095.mol2

> <i_m_Source_File_Index>
1

$$$$
No_0_108
                    3D
 Schrodinger Suite 2022-4.
 71 77  0  0  1  0            999 V2000
   -5.2870    3.4640  -21.6080 C   0  0  0  0  0  0
   -5.5600    3.6660  -22.9410 C   0  0  0  0  0  0
   -4.0460    3.2150  -21.2760 C   0  0  0  0  0  0
   -3.1640    3.3710  -23.4430 C   0  0  0  0  0  0
   -2.9960    3.1120  -22.0260 C   0  0  0  0  0  0
   -4.5160    3.6310  -23.9560 C   0  0  0  0  0  0
   -3.7700    3.6820  -26.1570 C   0  0  0  0  0  0
    5.9860    2.9520  -20.9410 C   0  0  0  0  0  0
    5.8350    3.1220  -23.4880 C   0  0  0  0  0  0
   -4.7730    3.7710  -25.2890 C   0  0  0  0  0  0
    2.0470    3.6450  -23.4830 C   0  0  0  0  0  0
    1.2210    4.7450  -23.1680 C   0  0  0  0  0  0
    3.0140    5.9450  -22.4830 C   0  0  0  0  0  0
    3.4480    3.8420  -23.1740 C   0  0  0  0  0  0
    1.5050    2.5320  -24.1540 C   0  0  0  0  0  0
   -0.6270    3.3300  -24.0260 C   0  0  0  0  0  0
   -0.1050    4.5470  -23.4160 C   0  0  0  0  0  0
   -2.0810    3.3310  -24.3740 C   0  0  0  0  0  0
    4.0710    1.3450  -22.9120 C   0  0  0  0  0  0
    5.0110    0.9820  -21.7730 C   0  0  2  0  0  0
    6.5920    2.5390  -22.3000 C   0  0  2  0  0  0
    4.9920    1.9700  -20.5950 C   0  0  0  0  0  0
   -2.4140    3.5040  -25.7990 C   0  0  0  0  0  0
   -1.6460    2.7010  -21.4380 C   0  0  0  0  0  0
   -0.6110    2.3540  -20.9400 C   0  0  0  0  0  0
   -0.9520    5.5830  -23.0560 F   0  0  0  0  0  0
   -3.8280    2.9590  -19.8970 F   0  0  0  0  0  0
    1.6920    5.9010  -22.6260 N   0  0  0  0  0  0
    3.9160    4.9900  -22.7170 N   0  0  0  0  0  0
    0.1980    2.4370  -24.4550 N   0  0  0  0  0  0
    4.3720    2.8020  -23.3660 N   0  0  0  0  0  0
    6.4160    1.0640  -22.2610 N   0  0  1  0  0  0
   -3.9490    3.7110  -27.5460 O   0  0  0  0  0  0
   -6.0866    3.5142  -20.8778 H   0  0  0  0  0  0
   -6.5773    3.8578  -23.2624 H   0  0  0  0  0  0
    5.5085    3.9382  -21.0379 H   0  0  0  0  0  0
    6.7753    2.9591  -20.1749 H   0  0  0  0  0  0
    6.2287    2.6899  -24.4198 H   0  0  0  0  0  0
    5.9713    4.2133  -23.5092 H   0  0  0  0  0  0
   -5.7863    3.9536  -25.6281 H   0  0  0  0  0  0
    2.1481    1.7104  -24.4479 H   0  0  0  0  0  0
    3.0300    1.2774  -22.5630 H   0  0  0  0  0  0
    4.2335    0.6568  -23.7546 H   0  0  0  0  0  0
    4.7950   -0.0356  -21.4156 H   0  0  0  0  0  0
    7.6587    2.8034  -22.3484 H   0  0  0  0  0  0
    4.0058    2.4545  -20.5425 H   0  0  0  0  0  0
    5.2998    1.4483  -19.6768 H   0  0  0  0  0  0
   -1.6475    3.4980  -26.5655 H   0  0  0  0  0  0
    0.3001    2.0490  -20.5019 H   0  0  0  0  0  0
    7.0695    0.5624  -21.5626 H   0  0  0  0  0  0
   -3.1054    3.6328  -27.9757 H   0  0  0  0  0  0
    5.4090    8.8880  -22.3050 N   0  0  0  0  0  0
    6.5250   10.3660  -21.1650 N   0  3  0  0  0  0
    3.5670    7.2820  -22.0020 C   0  0  0  0  0  0
    5.7870   11.1920  -22.1090 C   0  0  0  0  0  0
    5.0010   10.1320  -22.9390 C   0  0  0  0  0  0
    6.2740    9.0750  -21.3170 C   0  0  0  0  0  0
    6.9090    8.0010  -20.4670 C   0  0  0  0  0  0
    4.8830    7.6020  -22.7290 C   0  0  0  0  0  0
    7.1820   10.6810  -20.4370 H   0  0  0  0  0  0
    2.8332    8.0757  -22.2059 H   0  0  0  0  0  0
    3.7490    7.2350  -20.9182 H   0  0  0  0  0  0
    6.4974   11.7133  -22.7674 H   0  0  0  0  0  0
    5.0731   11.8219  -21.5581 H   0  0  0  0  0  0
    3.9219   10.2800  -22.7850 H   0  0  0  0  0  0
    5.3641   10.1450  -23.9773 H   0  0  0  0  0  0
    7.5828    8.4659  -19.7322 H   0  0  0  0  0  0
    6.1248    7.4388  -19.9388 H   0  0  0  0  0  0
    7.4831    7.3159  -21.1081 H   0  0  0  0  0  0
    5.6208    6.8152  -22.5131 H   0  0  0  0  0  0
    4.7070    7.6190  -23.8147 H   0  0  0  0  0  0
  1  2  2  0  0  0
  1  3  1  0  0  0
  1 34  1  0  0  0
  2  6  1  0  0  0
  2 35  1  0  0  0
  3  5  2  0  0  0
  3 27  1  0  0  0
  4  5  1  0  0  0
  4  6  2  0  0  0
  4 18  1  0  0  0
  5 24  1  0  0  0
  6 10  1  0  0  0
  7 10  2  0  0  0
  7 23  1  0  0  0
  7 33  1  0  0  0
  8 21  1  0  0  0
  8 22  1  0  0  0
  8 36  1  0  0  0
  8 37  1  0  0  0
  9 21  1  0  0  0
  9 31  1  0  0  0
  9 38  1  0  0  0
  9 39  1  0  0  0
 10 40  1  0  0  0
 11 12  1  0  0  0
 11 14  2  0  0  0
 11 15  1  0  0  0
 12 17  1  0  0  0
 12 28  2  0  0  0
 13 28  1  0  0  0
 13 29  2  0  0  0
 13 54  1  0  0  0
 14 29  1  0  0  0
 14 31  1  0  0  0
 15 30  2  0  0  0
 15 41  1  0  0  0
 16 17  2  0  0  0
 16 18  1  0  0  0
 16 30  1  0  0  0
 17 26  1  0  0  0
 18 23  2  0  0  0
 19 20  1  0  0  0
 19 31  1  0  0  0
 19 42  1  0  0  0
 19 43  1  0  0  0
 20 22  1  0  0  0
 20 32  1  0  0  0
 20 44  1  0  0  0
 21 32  1  0  0  0
 21 45  1  0  0  0
 22 46  1  0  0  0
 22 47  1  0  0  0
 23 48  1  0  0  0
 24 25  3  0  0  0
 25 49  1  0  0  0
 32 50  1  0  0  0
 33 51  1  0  0  0
 52 56  1  0  0  0
 52 57  1  0  0  0
 52 59  1  0  0  0
 53 55  1  0  0  0
 53 57  2  0  0  0
 53 60  1  0  0  0
 54 59  1  0  0  0
 54 61  1  0  0  0
 54 62  1  0  0  0
 55 56  1  0  0  0
 55 63  1  0  0  0
 55 64  1  0  0  0
 56 65  1  0  0  0
 56 66  1  0  0  0
 57 58  1  0  0  0
 58 67  1  0  0  0
 58 68  1  0  0  0
 58 69  1  0  0  0
 59 70  1  0  0  0
 59 71  1  0  0  0
M  CHG  1  53   1
M  END
> <s_m_entry_id>
254

> <s_m_entry_name>
000000096.1

> <s_m_Source_Path>
/Users/zaksoul/Documents/3r_UNI/2nd_SEMESTER/BSC/FRAG_RECON/RESULTS/2

> <s_m_Source_File>
000000096.mol2

> <i_m_Source_File_Index>
1

$$$$
No_0_109
                    3D
 Schrodinger Suite 2022-4.
 72 78  0  0  1  0            999 V2000
   -5.0250    3.7770  -21.8130 C   0  0  0  0  0  0
   -5.3300    3.9260  -23.1450 C   0  0  0  0  0  0
   -3.7770    3.5340  -21.5010 C   0  0  0  0  0  0
   -2.9500    3.5960  -23.6950 C   0  0  0  0  0  0
   -2.7470    3.3930  -22.2730 C   0  0  0  0  0  0
   -4.3120    3.8430  -24.1840 C   0  0  0  0  0  0
   -3.6210    3.7990  -26.4030 C   0  0  0  0  0  0
    6.2580    3.2190  -21.4040 C   0  0  0  0  0  0
    6.0450    3.2850  -23.9510 C   0  0  0  0  0  0
   -4.6020    3.9310  -25.5140 C   0  0  0  0  0  0
    2.2610    3.8340  -23.8740 C   0  0  0  0  0  0
    1.4480    4.9510  -23.5840 C   0  0  0  0  0  0
    3.2650    6.1660  -22.9930 C   0  0  0  0  0  0
    3.6700    4.0330  -23.6080 C   0  0  0  0  0  0
    1.6960    2.6980  -24.4860 C   0  0  0  0  0  0
   -0.4280    3.5140  -24.3380 C   0  0  0  0  0  0
    0.1160    4.7520  -23.7910 C   0  0  0  0  0  0
   -1.8900    3.5100  -24.6490 C   0  0  0  0  0  0
    4.2850    1.5450  -23.2600 C   0  0  0  0  0  0
    5.2520    1.2230  -22.1310 C   0  0  2  0  0  0
    6.8280    2.7470  -22.7590 C   0  0  2  0  0  0
    5.2670    2.2590  -20.9940 C   0  0  0  0  0  0
   -2.2570    3.6280  -26.0710 C   0  0  0  0  0  0
   -1.3860    2.9980  -21.7020 C   0  0  0  0  0  0
   -0.3410    2.6650  -21.2160 C   0  0  0  0  0  0
   -0.7160    5.8070  -23.4530 F   0  0  0  0  0  0
   -3.5260    3.3320  -20.1190 F   0  0  0  0  0  0
    1.9400    6.1250  -23.1020 N   0  0  0  0  0  0
    4.1550    5.1970  -23.2110 N   0  0  0  0  0  0
    0.3810    2.5990  -24.7500 N   0  0  0  0  0  0
    4.5830    2.9800  -23.7810 N   0  0  0  0  0  0
    6.6440    1.2750  -22.6560 N   0  0  1  0  0  0
   -3.8350    3.7730  -27.7860 O   0  0  0  0  0  0
   -5.8055    3.8623  -21.0656 H   0  0  0  0  0  0
   -6.3538    4.1117  -23.4491 H   0  0  0  0  0  0
    5.7834    4.2034  -21.5292 H   0  0  0  0  0  0
    7.0661    3.2513  -20.6584 H   0  0  0  0  0  0
    6.4124    2.8137  -24.8745 H   0  0  0  0  0  0
    6.1863    4.3737  -24.0206 H   0  0  0  0  0  0
   -5.6222    4.1056  -25.8360 H   0  0  0  0  0  0
    2.3272    1.8611  -24.7620 H   0  0  0  0  0  0
    3.2528    1.4996  -22.8826 H   0  0  0  0  0  0
    4.4233    0.8223  -24.0776 H   0  0  0  0  0  0
    5.0390    0.2226  -21.7262 H   0  0  0  0  0  0
    7.8945    3.0025  -22.8448 H   0  0  0  0  0  0
    4.2847    2.7507  -20.9365 H   0  0  0  0  0  0
    5.5950    1.7726  -20.0635 H   0  0  0  0  0  0
   -1.5104    3.5849  -26.8557 H   0  0  0  0  0  0
    0.5792    2.3719  -20.7889 H   0  0  0  0  0  0
    7.3124    0.7980  -21.9545 H   0  0  0  0  0  0
   -3.0029    3.6721  -28.2332 H   0  0  0  0  0  0
    8.4740    8.7860  -20.4220 N   0  0  0  0  0  0
    4.8380    8.8700  -20.7240 N   0  0  0  0  0  0
    5.6590   10.3320  -22.9970 N   0  0  0  0  0  0
    3.8370    7.5180  -22.5810 C   0  0  0  0  0  0
    6.1970    9.0820  -20.9970 C   0  0  0  0  0  0
    4.2390    7.5790  -21.0940 C   0  0  0  0  0  0
    7.9510   10.0340  -22.3530 C   0  0  0  0  0  0
    6.5930    9.8250  -22.1210 C   0  0  3  0  0  0
    7.1490    8.5720  -20.1670 C   0  0  0  0  0  0
    8.8720    9.5140  -21.5030 C   0  0  0  0  0  0
    9.1901    8.3940  -19.7939 H   0  0  0  0  0  0
    4.2809    9.6102  -20.2739 H   0  0  0  0  0  0
    5.9632   10.8753  -23.8175 H   0  0  0  0  0  0
    4.6558   10.1680  -22.8310 H   0  0  0  0  0  0
    4.7120    7.7500  -23.2060 H   0  0  0  0  0  0
    3.0997    8.3063  -22.7931 H   0  0  0  0  0  0
    3.3538    7.3939  -20.4678 H   0  0  0  0  0  0
    4.9505    6.7695  -20.8739 H   0  0  0  0  0  0
    8.2720   10.6120  -23.2120 H   0  0  0  0  0  0
    6.8512    7.9943  -19.2995 H   0  0  0  0  0  0
    9.9273    9.6800  -21.6870 H   0  0  0  0  0  0
  1  2  2  0  0  0
  1  3  1  0  0  0
  1 34  1  0  0  0
  2  6  1  0  0  0
  2 35  1  0  0  0
  3  5  2  0  0  0
  3 27  1  0  0  0
  4  5  1  0  0  0
  4  6  2  0  0  0
  4 18  1  0  0  0
  5 24  1  0  0  0
  6 10  1  0  0  0
  7 10  2  0  0  0
  7 23  1  0  0  0
  7 33  1  0  0  0
  8 21  1  0  0  0
  8 22  1  0  0  0
  8 36  1  0  0  0
  8 37  1  0  0  0
  9 21  1  0  0  0
  9 31  1  0  0  0
  9 38  1  0  0  0
  9 39  1  0  0  0
 10 40  1  0  0  0
 11 12  2  0  0  0
 11 14  1  0  0  0
 11 15  1  0  0  0
 12 17  1  0  0  0
 12 28  1  0  0  0
 13 28  2  0  0  0
 13 29  1  0  0  0
 13 55  1  0  0  0
 14 29  2  0  0  0
 14 31  1  0  0  0
 15 30  2  0  0  0
 15 41  1  0  0  0
 16 17  2  0  0  0
 16 18  1  0  0  0
 16 30  1  0  0  0
 17 26  1  0  0  0
 18 23  2  0  0  0
 19 20  1  0  0  0
 19 31  1  0  0  0
 19 42  1  0  0  0
 19 43  1  0  0  0
 20 22  1  0  0  0
 20 32  1  0  0  0
 20 44  1  0  0  0
 21 32  1  0  0  0
 21 45  1  0  0  0
 22 46  1  0  0  0
 22 47  1  0  0  0
 23 48  1  0  0  0
 24 25  3  0  0  0
 25 49  1  0  0  0
 32 50  1  0  0  0
 33 51  1  0  0  0
 52 60  1  0  0  0
 52 61  1  0  0  0
 52 62  1  0  0  0
 53 56  1  0  0  0
 53 57  1  0  0  0
 53 63  1  0  0  0
 54 59  1  0  0  0
 54 64  1  0  0  0
 54 65  1  0  0  0
 55 57  1  0  0  0
 55 66  1  0  0  0
 55 67  1  0  0  0
 56 59  1  0  0  0
 56 60  2  0  0  0
 57 68  1  0  0  0
 57 69  1  0  0  0
 58 59  1  0  0  0
 58 61  2  0  0  0
 58 70  1  0  0  0
 60 71  1  0  0  0
 61 72  1  0  0  0
M  END
> <s_m_entry_id>
255

> <s_m_entry_name>
000000097.1

> <s_m_Source_Path>
/Users/zaksoul/Documents/3r_UNI/2nd_SEMESTER/BSC/FRAG_RECON/RESULTS/2

> <s_m_Source_File>
000000097.mol2

> <i_m_Source_File_Index>
1

$$$$
No_0_110
                    3D
 Schrodinger Suite 2022-4.
 72 78  0  0  1  0            999 V2000
   -5.1130    3.7740  -21.8480 C   0  0  0  0  0  0
   -5.3790    3.9580  -23.1840 C   0  0  0  0  0  0
   -3.8770    3.5070  -21.5080 C   0  0  0  0  0  0
   -2.9880    3.6090  -23.6760 C   0  0  0  0  0  0
   -2.8280    3.3710  -22.2540 C   0  0  0  0  0  0
   -4.3340    3.8850  -24.1960 C   0  0  0  0  0  0
   -3.5820    3.8830  -26.3950 C   0  0  0  0  0  0
    6.1470    3.0590  -21.1430 C   0  0  0  0  0  0
    6.0050    3.1870  -23.6930 C   0  0  0  0  0  0
   -4.5860    4.0070  -25.5320 C   0  0  0  0  0  0
    2.2280    3.7830  -23.7070 C   0  0  0  0  0  0
    1.4210    4.9030  -23.4130 C   0  0  0  0  0  0
    3.2360    6.0800  -22.7440 C   0  0  0  0  0  0
    3.6310    3.9580  -23.3980 C   0  0  0  0  0  0
    1.6660    2.6680  -24.3600 C   0  0  0  0  0  0
   -0.4510    3.5090  -24.2510 C   0  0  0  0  0  0
    0.0930    4.7270  -23.6610 C   0  0  0  0  0  0
   -1.9040    3.5320  -24.6030 C   0  0  0  0  0  0
    4.2050    1.4540  -23.0910 C   0  0  0  0  0  0
    5.1360    1.0940  -21.9440 C   0  0  2  0  0  0
    6.7480    2.6110  -22.4930 C   0  0  2  0  0  0
    5.1330    2.1020  -20.7830 C   0  0  0  0  0  0
   -2.2300    3.6860  -26.0310 C   0  0  0  0  0  0
   -1.4880    2.9440  -21.6550 C   0  0  0  0  0  0
   -0.4610    2.5870  -21.1490 C   0  0  0  0  0  0
   -0.7350    5.7840  -23.3210 F   0  0  0  0  0  0
   -3.6670    3.2710  -20.1240 F   0  0  0  0  0  0
    1.9140    6.0590  -22.8900 N   0  0  0  0  0  0
    4.1190    5.1050  -22.9600 N   0  0  0  0  0  0
    0.3580    2.5930  -24.6620 N   0  0  0  0  0  0
    4.5350    2.8970  -23.5700 N   0  0  0  0  0  0
    6.5430    1.1400  -22.4290 N   0  0  1  0  0  0
   -3.7580    3.8910  -27.7850 O   0  0  0  0  0  0
   -5.9123    3.8523  -21.1200 H   0  0  0  0  0  0
   -6.3917    4.1638  -23.5112 H   0  0  0  0  0  0
    5.6879    4.0520  -21.2580 H   0  0  0  0  0  0
    6.9343    3.0640  -20.3748 H   0  0  0  0  0  0
    6.3916    2.7317  -24.6167 H   0  0  0  0  0  0
    6.1614    4.2751  -23.7334 H   0  0  0  0  0  0
   -5.5947    4.2027  -25.8773 H   0  0  0  0  0  0
    2.2938    1.8293  -24.6382 H   0  0  0  0  0  0
    3.1624    1.4126  -22.7428 H   0  0  0  0  0  0
    4.3573    0.7488  -23.9213 H   0  0  0  0  0  0
    4.9000    0.0873  -21.5688 H   0  0  0  0  0  0
    7.8196    2.8542  -22.5435 H   0  0  0  0  0  0
    4.1560    2.6056  -20.7406 H   0  0  0  0  0  0
    5.4288    1.5902  -19.8553 H   0  0  0  0  0  0
   -1.4624    3.6519  -26.7956 H   0  0  0  0  0  0
    0.4429    2.2720  -20.7030 H   0  0  0  0  0  0
    7.1859    0.6383  -21.7209 H   0  0  0  0  0  0
   -2.9151    3.7901  -28.2114 H   0  0  0  0  0  0
    8.7260    8.7670  -20.9420 N   0  0  0  0  0  0
    5.1060    8.6160  -20.5070 N   0  0  0  0  0  0
    5.3710   10.3850  -22.6920 N   0  0  0  0  0  0
    3.8130    7.4150  -22.2860 C   0  0  0  0  0  0
    6.3680    8.9580  -21.0130 C   0  0  0  0  0  0
    4.5080    7.3360  -20.9120 C   0  0  0  0  0  0
    7.7580   10.1850  -22.5570 C   0  0  0  0  0  0
    6.4890    9.8520  -22.0900 C   0  0  3  0  0  0
    7.4940    8.4280  -20.4590 C   0  0  0  0  0  0
    8.8570    9.6410  -21.9790 C   0  0  0  0  0  0
    9.5736    8.3592  -20.5222 H   0  0  0  0  0  0
    4.6173    9.2566  -19.8654 H   0  0  0  0  0  0
    5.4740   11.0390  -23.4810 H   0  0  0  0  0  0
    4.4323   10.1291  -22.3541 H   0  0  0  0  0  0
    4.5293    7.7811  -23.0363 H   0  0  0  0  0  0
    3.0101    8.1659  -22.2460 H   0  0  0  0  0  0
    3.7800    7.0160  -20.1520 H   0  0  0  0  0  0
    5.2881    6.5609  -20.9400 H   0  0  0  0  0  0
    7.8670   10.8799  -23.3818 H   0  0  0  0  0  0
    7.4090    7.7343  -19.6304 H   0  0  0  0  0  0
    9.8429    9.9040  -22.3450 H   0  0  0  0  0  0
  1  2  2  0  0  0
  1  3  1  0  0  0
  1 34  1  0  0  0
  2  6  1  0  0  0
  2 35  1  0  0  0
  3  5  2  0  0  0
  3 27  1  0  0  0
  4  5  1  0  0  0
  4  6  2  0  0  0
  4 18  1  0  0  0
  5 24  1  0  0  0
  6 10  1  0  0  0
  7 10  2  0  0  0
  7 23  1  0  0  0
  7 33  1  0  0  0
  8 21  1  0  0  0
  8 22  1  0  0  0
  8 36  1  0  0  0
  8 37  1  0  0  0
  9 21  1  0  0  0
  9 31  1  0  0  0
  9 38  1  0  0  0
  9 39  1  0  0  0
 10 40  1  0  0  0
 11 12  2  0  0  0
 11 14  1  0  0  0
 11 15  1  0  0  0
 12 17  1  0  0  0
 12 28  1  0  0  0
 13 28  2  0  0  0
 13 29  1  0  0  0
 13 55  1  0  0  0
 14 29  2  0  0  0
 14 31  1  0  0  0
 15 30  2  0  0  0
 15 41  1  0  0  0
 16 17  2  0  0  0
 16 18  1  0  0  0
 16 30  1  0  0  0
 17 26  1  0  0  0
 18 23  2  0  0  0
 19 20  1  0  0  0
 19 31  1  0  0  0
 19 42  1  0  0  0
 19 43  1  0  0  0
 20 22  1  0  0  0
 20 32  1  0  0  0
 20 44  1  0  0  0
 21 32  1  0  0  0
 21 45  1  0  0  0
 22 46  1  0  0  0
 22 47  1  0  0  0
 23 48  1  0  0  0
 24 25  3  0  0  0
 25 49  1  0  0  0
 32 50  1  0  0  0
 33 51  1  0  0  0
 52 60  1  0  0  0
 52 61  1  0  0  0
 52 62  1  0  0  0
 53 56  1  0  0  0
 53 57  1  0  0  0
 53 63  1  0  0  0
 54 59  1  0  0  0
 54 64  1  0  0  0
 54 65  1  0  0  0
 55 57  1  0  0  0
 55 66  1  0  0  0
 55 67  1  0  0  0
 56 59  1  0  0  0
 56 60  2  0  0  0
 57 68  1  0  0  0
 57 69  1  0  0  0
 58 59  1  0  0  0
 58 61  2  0  0  0
 58 70  1  0  0  0
 60 71  1  0  0  0
 61 72  1  0  0  0
M  END
> <s_m_entry_id>
256

> <s_m_entry_name>
000000098.1

> <s_m_Source_Path>
/Users/zaksoul/Documents/3r_UNI/2nd_SEMESTER/BSC/FRAG_RECON/RESULTS/2

> <s_m_Source_File>
000000098.mol2

> <i_m_Source_File_Index>
1

$$$$
No_0_111
                    3D
 Schrodinger Suite 2022-4.
 72 78  0  0  1  0            999 V2000
   -5.1810    3.6090  -21.8530 C   0  0  0  0  0  0
   -5.4520    3.8050  -23.1860 C   0  0  0  0  0  0
   -3.9420    3.3510  -21.5190 C   0  0  0  0  0  0
   -3.0590    3.4860  -23.6870 C   0  0  0  0  0  0
   -2.8930    3.2340  -22.2690 C   0  0  0  0  0  0
   -4.4090    3.7540  -24.2010 C   0  0  0  0  0  0
   -3.6630    3.7850  -26.4030 C   0  0  0  0  0  0
    6.0870    3.0010  -21.1820 C   0  0  0  0  0  0
    5.9380    3.1560  -23.7310 C   0  0  0  0  0  0
   -4.6650    3.8890  -25.5350 C   0  0  0  0  0  0
    2.1540    3.7130  -23.7290 C   0  0  0  0  0  0
    1.3370    4.8230  -23.4210 C   0  0  0  0  0  0
    3.1410    6.0110  -22.7430 C   0  0  0  0  0  0
    3.5570    3.8990  -23.4210 C   0  0  0  0  0  0
    1.6030    2.6010  -24.3930 C   0  0  0  0  0  0
   -0.5220    3.4190  -24.2700 C   0  0  0  0  0  0
    0.0100    4.6350  -23.6670 C   0  0  0  0  0  0
   -1.9770    3.4300  -24.6180 C   0  0  0  0  0  0
    4.1570    1.3990  -23.1440 C   0  0  0  0  0  0
    5.0950    1.0350  -22.0030 C   0  0  2  0  0  0
    6.6890    2.5740  -22.5390 C   0  0  2  0  0  0
    5.0840    2.0310  -20.8310 C   0  0  0  0  0  0
   -2.3080    3.5970  -26.0440 C   0  0  0  0  0  0
   -1.5470    2.8150  -21.6780 C   0  0  0  0  0  0
   -0.5150    2.4620  -21.1780 C   0  0  0  0  0  0
   -0.8280    5.6800  -23.3140 F   0  0  0  0  0  0
   -3.7260    3.1020  -20.1390 F   0  0  0  0  0  0
    1.8200    5.9780  -22.8860 N   0  0  0  0  0  0
    4.0350    5.0470  -22.9720 N   0  0  0  0  0  0
    0.2950    2.5160  -24.6930 N   0  0  0  0  0  0
    4.4710    2.8500  -23.6070 N   0  0  0  0  0  0
    6.5000    1.1010  -22.4910 N   0  0  1  0  0  0
   -3.8410    3.8060  -27.7920 O   0  0  0  0  0  0
   -5.9796    3.6712  -21.1226 H   0  0  0  0  0  0
   -6.4675    4.0037  -23.5091 H   0  0  0  0  0  0
    5.6179    3.9906  -21.2849 H   0  0  0  0  0  0
    6.8763    3.0060  -20.4159 H   0  0  0  0  0  0
    6.3275    2.7150  -24.6604 H   0  0  0  0  0  0
    6.0833    4.2460  -23.7593 H   0  0  0  0  0  0
   -5.6765    4.0776  -25.8762 H   0  0  0  0  0  0
    2.2385    1.7718  -24.6821 H   0  0  0  0  0  0
    3.1157    1.3435  -22.7939 H   0  0  0  0  0  0
    4.3144    0.7047  -23.9826 H   0  0  0  0  0  0
    4.8700    0.0218  -21.6387 H   0  0  0  0  0  0
    7.7578    2.8293  -22.5885 H   0  0  0  0  0  0
    4.1018    2.5236  -20.7805 H   0  0  0  0  0  0
    5.3877    1.5123  -19.9097 H   0  0  0  0  0  0
   -1.5411    3.5789  -26.8099 H   0  0  0  0  0  0
    0.3934    2.1519  -20.7378 H   0  0  0  0  0  0
    7.1492    0.5983  -21.7894 H   0  0  0  0  0  0
   -2.9984    3.7179  -28.2217 H   0  0  0  0  0  0
    8.6820    8.9120  -21.5190 N   0  0  0  0  0  0
    5.1720    8.5070  -20.6030 N   0  0  0  0  0  0
    5.0310   10.4280  -22.6680 N   0  0  0  0  0  0
    3.7060    7.3460  -22.2710 C   0  0  0  0  0  0
    6.3300    8.9600  -21.2510 C   0  0  0  0  0  0
    4.5910    7.2210  -21.0150 C   0  0  0  0  0  0
    7.4210   10.3700  -22.8770 C   0  0  0  0  0  0
    6.2500    9.9280  -22.2660 C   0  0  3  0  0  0
    7.5500    8.4660  -20.8970 C   0  0  0  0  0  0
    8.6180    9.8590  -22.4960 C   0  0  0  0  0  0
    9.6006    8.5317  -21.2498 H   0  0  0  0  0  0
    4.7459    9.0722  -19.8548 H   0  0  0  0  0  0
    4.9870   11.1374  -23.4134 H   0  0  0  0  0  0
    4.1646   10.0919  -22.2238 H   0  0  0  0  0  0
    4.2889    7.8039  -23.0838 H   0  0  0  0  0  0
    2.8781    8.0409  -22.0670 H   0  0  0  0  0  0
    3.9958    6.8069  -20.1878 H   0  0  0  0  0  0
    5.3990    6.5000  -21.2080 H   0  0  0  0  0  0
    7.3750   11.1227  -23.6557 H   0  0  0  0  0  0
    7.6190    7.7152  -20.1182 H   0  0  0  0  0  0
    9.5270   10.2060  -22.9740 H   0  0  0  0  0  0
  1  2  2  0  0  0
  1  3  1  0  0  0
  1 34  1  0  0  0
  2  6  1  0  0  0
  2 35  1  0  0  0
  3  5  2  0  0  0
  3 27  1  0  0  0
  4  5  1  0  0  0
  4  6  2  0  0  0
  4 18  1  0  0  0
  5 24  1  0  0  0
  6 10  1  0  0  0
  7 10  2  0  0  0
  7 23  1  0  0  0
  7 33  1  0  0  0
  8 21  1  0  0  0
  8 22  1  0  0  0
  8 36  1  0  0  0
  8 37  1  0  0  0
  9 21  1  0  0  0
  9 31  1  0  0  0
  9 38  1  0  0  0
  9 39  1  0  0  0
 10 40  1  0  0  0
 11 12  2  0  0  0
 11 14  1  0  0  0
 11 15  1  0  0  0
 12 17  1  0  0  0
 12 28  1  0  0  0
 13 28  2  0  0  0
 13 29  1  0  0  0
 13 55  1  0  0  0
 14 29  2  0  0  0
 14 31  1  0  0  0
 15 30  2  0  0  0
 15 41  1  0  0  0
 16 17  2  0  0  0
 16 18  1  0  0  0
 16 30  1  0  0  0
 17 26  1  0  0  0
 18 23  2  0  0  0
 19 20  1  0  0  0
 19 31  1  0  0  0
 19 42  1  0  0  0
 19 43  1  0  0  0
 20 22  1  0  0  0
 20 32  1  0  0  0
 20 44  1  0  0  0
 21 32  1  0  0  0
 21 45  1  0  0  0
 22 46  1  0  0  0
 22 47  1  0  0  0
 23 48  1  0  0  0
 24 25  3  0  0  0
 25 49  1  0  0  0
 32 50  1  0  0  0
 33 51  1  0  0  0
 52 60  1  0  0  0
 52 61  1  0  0  0
 52 62  1  0  0  0
 53 56  1  0  0  0
 53 57  1  0  0  0
 53 63  1  0  0  0
 54 59  1  0  0  0
 54 64  1  0  0  0
 54 65  1  0  0  0
 55 57  1  0  0  0
 55 66  1  0  0  0
 55 67  1  0  0  0
 56 59  1  0  0  0
 56 60  2  0  0  0
 57 68  1  0  0  0
 57 69  1  0  0  0
 58 59  1  0  0  0
 58 61  2  0  0  0
 58 70  1  0  0  0
 60 71  1  0  0  0
 61 72  1  0  0  0
M  END
> <s_m_entry_id>
257

> <s_m_entry_name>
000000099.1

> <s_m_Source_Path>
/Users/zaksoul/Documents/3r_UNI/2nd_SEMESTER/BSC/FRAG_RECON/RESULTS/2

> <s_m_Source_File>
000000099.mol2

> <i_m_Source_File_Index>
1

$$$$
No_0_112
                    3D
 Schrodinger Suite 2022-4.
 72 78  0  0  1  0            999 V2000
   -5.2570    3.8530  -22.2990 C   0  0  0  0  0  0
   -5.4870    4.0120  -23.6450 C   0  0  0  0  0  0
   -4.0350    3.5750  -21.9210 C   0  0  0  0  0  0
   -3.0910    3.6160  -24.0680 C   0  0  0  0  0  0
   -2.9700    3.4070  -22.6370 C   0  0  0  0  0  0
   -4.4170    3.9010  -24.6280 C   0  0  0  0  0  0
   -3.6110    3.8400  -26.8070 C   0  0  0  0  0  0
    5.9680    2.9810  -21.2910 C   0  0  0  0  0  0
    5.8930    3.0560  -23.8460 C   0  0  0  0  0  0
   -4.6340    3.9980  -25.9720 C   0  0  0  0  0  0
    2.1270    3.7090  -23.9690 C   0  0  0  0  0  0
    1.3310    4.8480  -23.7210 C   0  0  0  0  0  0
    3.1470    6.0120  -23.0310 C   0  0  0  0  0  0
    3.5240    3.8690  -23.6280 C   0  0  0  0  0  0
    1.5640    2.5890  -24.6130 C   0  0  0  0  0  0
   -0.5410    3.4650  -24.5760 C   0  0  0  0  0  0
    0.0060    4.6860  -23.9980 C   0  0  0  0  0  0
   -1.9850    3.5020  -24.9650 C   0  0  0  0  0  0
    4.0510    1.3650  -23.2530 C   0  0  0  0  0  0
    4.9470    1.0150  -22.0750 C   0  0  2  0  0  0
    6.5960    2.4950  -22.6150 C   0  0  2  0  0  0
    4.9310    2.0490  -20.9370 C   0  0  0  0  0  0
   -2.2720    3.6300  -26.4040 C   0  0  0  0  0  0
   -1.6520    2.9730  -21.9960 C   0  0  0  0  0  0
   -0.6440    2.6110  -21.4560 C   0  0  0  0  0  0
   -0.8130    5.7640  -23.7020 F   0  0  0  0  0  0
   -3.8640    3.3660  -20.5290 F   0  0  0  0  0  0
    1.8290    6.0080  -23.2100 N   0  0  0  0  0  0
    4.0200    5.0180  -23.2030 N   0  0  0  0  0  0
    0.2630    2.5280  -24.9470 N   0  0  0  0  0  0
    4.4160    2.7910  -23.7540 N   0  0  0  0  0  0
    6.3660    1.0290  -22.5250 N   0  0  1  0  0  0
   -3.7510    3.8200  -28.2000 O   0  0  0  0  0  0
   -6.0734    3.9593  -21.5939 H   0  0  0  0  0  0
   -6.4878    4.2258  -24.0024 H   0  0  0  0  0  0
    5.5283    3.9783  -21.4392 H   0  0  0  0  0  0
    6.7361    2.9911  -20.5037 H   0  0  0  0  0  0
    6.2957    2.5746  -24.7493 H   0  0  0  0  0  0
    6.0677    4.1404  -23.9056 H   0  0  0  0  0  0
   -5.6304    4.2017  -26.3473 H   0  0  0  0  0  0
    2.1857    1.7352  -24.8571 H   0  0  0  0  0  0
    2.9993    1.3468  -22.9310 H   0  0  0  0  0  0
    4.2124    0.6397  -24.0641 H   0  0  0  0  0  0
    4.6857    0.0204  -21.6846 H   0  0  0  0  0  0
    7.6723    2.7202  -22.6433 H   0  0  0  0  0  0
    3.9610    2.5678  -20.9299 H   0  0  0  0  0  0
    5.1944    1.5525  -19.9914 H   0  0  0  0  0  0
   -1.4860    3.5678  -27.1479 H   0  0  0  0  0  0
    0.2434    2.2919  -20.9808 H   0  0  0  0  0  0
    6.9830    0.5329  -21.7904 H   0  0  0  0  0  0
   -2.8995    3.6972  -28.6030 H   0  0  0  0  0  0
    8.4300    7.5930  -20.2410 N   0  0  0  0  0  0
    4.9540    8.5650  -20.8200 N   0  0  0  0  0  0
   10.3810    7.8440  -21.5550 N   0  0  0  0  0  0
    3.7330    7.3470  -22.5860 C   0  0  0  0  0  0
    6.3340    8.3930  -21.0010 C   0  0  0  0  0  0
    4.0660    7.4220  -21.0810 C   0  0  0  0  0  0
    8.2880    8.6800  -22.3540 C   0  0  0  0  0  0
    7.0830    7.7650  -20.0540 C   0  0  0  0  0  0
    6.9530    8.8640  -22.1680 C   0  0  0  0  0  0
    9.0360    8.0340  -21.3750 C   0  0  0  0  0  0
    8.9952    7.1258  -19.5177 H   0  0  0  0  0  0
    4.5851    9.4757  -20.5111 H   0  0  0  0  0  0
   10.8377    8.1788  -22.4154 H   0  0  0  0  0  0
   10.9361    7.3660  -20.8309 H   0  0  0  0  0  0
    4.6399    7.5600  -23.1709 H   0  0  0  0  0  0
    3.0353    8.1567  -22.8459 H   0  0  0  0  0  0
    3.1359    7.5410  -20.5059 H   0  0  0  0  0  0
    4.5641    6.4919  -20.7700 H   0  0  0  0  0  0
    8.7629    9.0369  -23.2607 H   0  0  0  0  0  0
    6.6100    7.3990  -19.1499 H   0  0  0  0  0  0
    6.3670    9.3740  -22.9240 H   0  0  0  0  0  0
  1  2  2  0  0  0
  1  3  1  0  0  0
  1 34  1  0  0  0
  2  6  1  0  0  0
  2 35  1  0  0  0
  3  5  2  0  0  0
  3 27  1  0  0  0
  4  5  1  0  0  0
  4  6  2  0  0  0
  4 18  1  0  0  0
  5 24  1  0  0  0
  6 10  1  0  0  0
  7 10  2  0  0  0
  7 23  1  0  0  0
  7 33  1  0  0  0
  8 21  1  0  0  0
  8 22  1  0  0  0
  8 36  1  0  0  0
  8 37  1  0  0  0
  9 21  1  0  0  0
  9 31  1  0  0  0
  9 38  1  0  0  0
  9 39  1  0  0  0
 10 40  1  0  0  0
 11 12  2  0  0  0
 11 14  1  0  0  0
 11 15  1  0  0  0
 12 17  1  0  0  0
 12 28  1  0  0  0
 13 28  2  0  0  0
 13 29  1  0  0  0
 13 55  1  0  0  0
 14 29  2  0  0  0
 14 31  1  0  0  0
 15 30  2  0  0  0
 15 41  1  0  0  0
 16 17  2  0  0  0
 16 18  1  0  0  0
 16 30  1  0  0  0
 17 26  1  0  0  0
 18 23  2  0  0  0
 19 20  1  0  0  0
 19 31  1  0  0  0
 19 42  1  0  0  0
 19 43  1  0  0  0
 20 22  1  0  0  0
 20 32  1  0  0  0
 20 44  1  0  0  0
 21 32  1  0  0  0
 21 45  1  0  0  0
 22 46  1  0  0  0
 22 47  1  0  0  0
 23 48  1  0  0  0
 24 25  3  0  0  0
 25 49  1  0  0  0
 32 50  1  0  0  0
 33 51  1  0  0  0
 52 59  1  0  0  0
 52 61  1  0  0  0
 52 62  1  0  0  0
 53 56  1  0  0  0
 53 57  1  0  0  0
 53 63  1  0  0  0
 54 61  1  0  0  0
 54 64  1  0  0  0
 54 65  1  0  0  0
 55 57  1  0  0  0
 55 66  1  0  0  0
 55 67  1  0  0  0
 56 59  2  0  0  0
 56 60  1  0  0  0
 57 68  1  0  0  0
 57 69  1  0  0  0
 58 60  1  0  0  0
 58 61  2  0  0  0
 58 70  1  0  0  0
 59 71  1  0  0  0
 60 72  1  0  0  0
M  END
> <s_m_entry_id>
258

> <s_m_entry_name>
000000100.1

> <s_m_Source_Path>
/Users/zaksoul/Documents/3r_UNI/2nd_SEMESTER/BSC/FRAG_RECON/RESULTS/2

> <s_m_Source_File>
000000100.mol2

> <i_m_Source_File_Index>
1

$$$$
No_0_113
                    3D
 Schrodinger Suite 2022-4.
 72 78  0  0  1  0            999 V2000
   -5.3870    3.4490  -21.8820 C   0  0  0  0  0  0
   -5.6880    3.6130  -23.2130 C   0  0  0  0  0  0
   -4.1370    3.2200  -21.5670 C   0  0  0  0  0  0
   -3.3000    3.3280  -23.7550 C   0  0  0  0  0  0
   -3.1010    3.1070  -22.3350 C   0  0  0  0  0  0
   -4.6630    3.5610  -24.2470 C   0  0  0  0  0  0
   -3.9600    3.5620  -26.4630 C   0  0  0  0  0  0
    5.9010    3.0600  -21.4210 C   0  0  0  0  0  0
    5.7000    3.1620  -23.9680 C   0  0  0  0  0  0
   -4.9480    3.6650  -25.5780 C   0  0  0  0  0  0
    1.9070    3.6500  -23.9030 C   0  0  0  0  0  0
    1.0760    4.7500  -23.6010 C   0  0  0  0  0  0
    2.8700    5.9840  -22.9810 C   0  0  0  0  0  0
    3.3110    3.8670  -23.6260 C   0  0  0  0  0  0
    1.3640    2.5140  -24.5350 C   0  0  0  0  0  0
   -0.7730    3.2960  -24.3850 C   0  0  0  0  0  0
   -0.2520    4.5330  -23.8170 C   0  0  0  0  0  0
   -2.2340    3.2740  -24.7050 C   0  0  0  0  0  0
    3.9640    1.3840  -23.3120 C   0  0  0  0  0  0
    4.9300    1.0600  -22.1830 C   0  0  2  0  0  0
    6.4850    2.6170  -22.7800 C   0  0  2  0  0  0
    4.9230    2.0780  -21.0310 C   0  0  0  0  0  0
   -2.5960    3.4070  -26.1270 C   0  0  0  0  0  0
   -1.7370    2.7240  -21.7630 C   0  0  0  0  0  0
   -0.6890    2.4000  -21.2770 C   0  0  0  0  0  0
   -1.1020    5.5700  -23.4680 F   0  0  0  0  0  0
   -3.8910    3.0020  -20.1870 F   0  0  0  0  0  0
    1.5470    5.9240  -23.0980 N   0  0  0  0  0  0
    3.7770    5.0320  -23.2090 N   0  0  0  0  0  0
    0.0520    2.4000  -24.8070 N   0  0  0  0  0  0
    4.2420    2.8310  -23.8100 N   0  0  0  0  0  0
    6.3240    1.1420  -22.7000 N   0  0  1  0  0  0
   -4.1660    3.5530  -27.8480 O   0  0  0  0  0  0
   -6.1726    3.5102  -21.1376 H   0  0  0  0  0  0
   -6.7130    3.7867  -23.5202 H   0  0  0  0  0  0
    5.4116    4.0388  -21.5330 H   0  0  0  0  0  0
    6.7042    3.0943  -20.6702 H   0  0  0  0  0  0
    6.0794    2.7100  -24.8963 H   0  0  0  0  0  0
    5.8241    4.2537  -24.0205 H   0  0  0  0  0  0
   -5.9690    3.8286  -25.9033 H   0  0  0  0  0  0
    2.0100    1.6912  -24.8193 H   0  0  0  0  0  0
    2.9308    1.3164  -22.9407 H   0  0  0  0  0  0
    4.1174    0.6767  -24.1404 H   0  0  0  0  0  0
    4.7311    0.0504  -21.7943 H   0  0  0  0  0  0
    7.5478    2.8905  -22.8557 H   0  0  0  0  0  0
    3.9333    2.5542  -20.9705 H   0  0  0  0  0  0
    5.2539    1.5836  -20.1058 H   0  0  0  0  0  0
   -1.8443    3.3879  -26.9078 H   0  0  0  0  0  0
    0.2333    2.1149  -20.8489 H   0  0  0  0  0  0
    6.9957    0.6650  -22.0016 H   0  0  0  0  0  0
   -3.3304    3.4718  -28.2926 H   0  0  0  0  0  0
    8.4910    7.9320  -21.3060 N   0  0  0  0  0  0
    4.9020    8.5450  -20.9860 N   0  0  0  0  0  0
   10.0480    8.5030  -22.9930 N   0  0  0  0  0  0
    3.4190    7.3380  -22.5460 C   0  0  0  0  0  0
    6.2110    8.5450  -21.4890 C   0  0  0  0  0  0
    4.0870    7.3330  -21.1560 C   0  0  0  0  0  0
    7.7580    9.1570  -23.2110 C   0  0  0  0  0  0
    7.2150    7.9340  -20.8040 C   0  0  0  0  0  0
    6.4930    9.1730  -22.7120 C   0  0  0  0  0  0
    8.7720    8.5250  -22.4960 C   0  0  0  0  0  0
    9.2505    7.4763  -20.7803 H   0  0  0  0  0  0
    4.5340    9.3810  -20.5100 H   0  0  0  0  0  0
   10.2570    8.9540  -23.8951 H   0  0  0  0  0  0
   10.7986    8.0362  -22.4643 H   0  0  0  0  0  0
    4.1396    7.6968  -23.2956 H   0  0  0  0  0  0
    2.6080    8.0810  -22.5580 H   0  0  0  0  0  0
    3.3110    7.3010  -20.3770 H   0  0  0  0  0  0
    4.7279    6.4442  -21.0600 H   0  0  0  0  0  0
    7.9721    9.6342  -24.1605 H   0  0  0  0  0  0
    7.0039    7.4477  -19.8585 H   0  0  0  0  0  0
    5.7016    9.6712  -23.2603 H   0  0  0  0  0  0
  1  2  2  0  0  0
  1  3  1  0  0  0
  1 34  1  0  0  0
  2  6  1  0  0  0
  2 35  1  0  0  0
  3  5  2  0  0  0
  3 27  1  0  0  0
  4  5  1  0  0  0
  4  6  2  0  0  0
  4 18  1  0  0  0
  5 24  1  0  0  0
  6 10  1  0  0  0
  7 10  2  0  0  0
  7 23  1  0  0  0
  7 33  1  0  0  0
  8 21  1  0  0  0
  8 22  1  0  0  0
  8 36  1  0  0  0
  8 37  1  0  0  0
  9 21  1  0  0  0
  9 31  1  0  0  0
  9 38  1  0  0  0
  9 39  1  0  0  0
 10 40  1  0  0  0
 11 12  2  0  0  0
 11 14  1  0  0  0
 11 15  1  0  0  0
 12 17  1  0  0  0
 12 28  1  0  0  0
 13 28  2  0  0  0
 13 29  1  0  0  0
 13 55  1  0  0  0
 14 29  2  0  0  0
 14 31  1  0  0  0
 15 30  2  0  0  0
 15 41  1  0  0  0
 16 17  2  0  0  0
 16 18  1  0  0  0
 16 30  1  0  0  0
 17 26  1  0  0  0
 18 23  2  0  0  0
 19 20  1  0  0  0
 19 31  1  0  0  0
 19 42  1  0  0  0
 19 43  1  0  0  0
 20 22  1  0  0  0
 20 32  1  0  0  0
 20 44  1  0  0  0
 21 32  1  0  0  0
 21 45  1  0  0  0
 22 46  1  0  0  0
 22 47  1  0  0  0
 23 48  1  0  0  0
 24 25  3  0  0  0
 25 49  1  0  0  0
 32 50  1  0  0  0
 33 51  1  0  0  0
 52 59  1  0  0  0
 52 61  1  0  0  0
 52 62  1  0  0  0
 53 56  1  0  0  0
 53 57  1  0  0  0
 53 63  1  0  0  0
 54 61  1  0  0  0
 54 64  1  0  0  0
 54 65  1  0  0  0
 55 57  1  0  0  0
 55 66  1  0  0  0
 55 67  1  0  0  0
 56 59  2  0  0  0
 56 60  1  0  0  0
 57 68  1  0  0  0
 57 69  1  0  0  0
 58 60  1  0  0  0
 58 61  2  0  0  0
 58 70  1  0  0  0
 59 71  1  0  0  0
 60 72  1  0  0  0
M  END
> <s_m_entry_id>
259

> <s_m_entry_name>
000000101.1

> <s_m_Source_Path>
/Users/zaksoul/Documents/3r_UNI/2nd_SEMESTER/BSC/FRAG_RECON/RESULTS/2

> <s_m_Source_File>
000000101.mol2

> <i_m_Source_File_Index>
1

$$$$
No_0_114
                    3D
 Schrodinger Suite 2022-4.
 72 78  0  0  1  0            999 V2000
   -5.1810    3.6090  -21.8530 C   0  0  0  0  0  0
   -5.4520    3.8050  -23.1860 C   0  0  0  0  0  0
   -3.9420    3.3510  -21.5190 C   0  0  0  0  0  0
   -3.0590    3.4860  -23.6870 C   0  0  0  0  0  0
   -2.8930    3.2340  -22.2690 C   0  0  0  0  0  0
   -4.4090    3.7540  -24.2010 C   0  0  0  0  0  0
   -3.6630    3.7850  -26.4030 C   0  0  0  0  0  0
    6.0870    3.0010  -21.1820 C   0  0  0  0  0  0
    5.9380    3.1560  -23.7310 C   0  0  0  0  0  0
   -4.6650    3.8890  -25.5350 C   0  0  0  0  0  0
    2.1540    3.7130  -23.7290 C   0  0  0  0  0  0
    1.3370    4.8230  -23.4210 C   0  0  0  0  0  0
    3.1410    6.0110  -22.7430 C   0  0  0  0  0  0
    3.5570    3.8990  -23.4210 C   0  0  0  0  0  0
    1.6030    2.6010  -24.3930 C   0  0  0  0  0  0
   -0.5220    3.4190  -24.2700 C   0  0  0  0  0  0
    0.0100    4.6350  -23.6670 C   0  0  0  0  0  0
   -1.9770    3.4300  -24.6180 C   0  0  0  0  0  0
    4.1570    1.3990  -23.1440 C   0  0  0  0  0  0
    5.0950    1.0350  -22.0030 C   0  0  2  0  0  0
    6.6890    2.5740  -22.5390 C   0  0  2  0  0  0
    5.0840    2.0310  -20.8310 C   0  0  0  0  0  0
   -2.3080    3.5970  -26.0440 C   0  0  0  0  0  0
   -1.5470    2.8150  -21.6780 C   0  0  0  0  0  0
   -0.5150    2.4620  -21.1780 C   0  0  0  0  0  0
   -0.8280    5.6800  -23.3140 F   0  0  0  0  0  0
   -3.7260    3.1020  -20.1390 F   0  0  0  0  0  0
    1.8200    5.9780  -22.8860 N   0  0  0  0  0  0
    4.0350    5.0470  -22.9720 N   0  0  0  0  0  0
    0.2950    2.5160  -24.6930 N   0  0  0  0  0  0
    4.4710    2.8500  -23.6070 N   0  0  0  0  0  0
    6.5000    1.1010  -22.4910 N   0  0  1  0  0  0
   -3.8410    3.8060  -27.7920 O   0  0  0  0  0  0
   -5.9796    3.6712  -21.1226 H   0  0  0  0  0  0
   -6.4675    4.0037  -23.5091 H   0  0  0  0  0  0
    5.6179    3.9906  -21.2849 H   0  0  0  0  0  0
    6.8763    3.0060  -20.4159 H   0  0  0  0  0  0
    6.3275    2.7150  -24.6604 H   0  0  0  0  0  0
    6.0833    4.2460  -23.7593 H   0  0  0  0  0  0
   -5.6765    4.0776  -25.8762 H   0  0  0  0  0  0
    2.2385    1.7718  -24.6821 H   0  0  0  0  0  0
    3.1157    1.3435  -22.7939 H   0  0  0  0  0  0
    4.3144    0.7047  -23.9826 H   0  0  0  0  0  0
    4.8700    0.0218  -21.6387 H   0  0  0  0  0  0
    7.7578    2.8293  -22.5885 H   0  0  0  0  0  0
    4.1018    2.5236  -20.7805 H   0  0  0  0  0  0
    5.3877    1.5123  -19.9097 H   0  0  0  0  0  0
   -1.5411    3.5789  -26.8099 H   0  0  0  0  0  0
    0.3934    2.1519  -20.7378 H   0  0  0  0  0  0
    7.1492    0.5983  -21.7894 H   0  0  0  0  0  0
   -2.9984    3.7179  -28.2217 H   0  0  0  0  0  0
    8.8640    8.3290  -22.4800 N   0  0  0  0  0  0
    5.5120    8.4880  -21.0340 N   0  0  0  0  0  0
    9.7930    9.2960  -24.4300 N   0  0  0  0  0  0
    3.7060    7.3460  -22.2710 C   0  0  0  0  0  0
    6.6020    8.7020  -21.8890 C   0  0  0  0  0  0
    4.7650    7.2260  -21.1550 C   0  0  0  0  0  0
    7.5070    9.7120  -23.8620 C   0  0  0  0  0  0
    7.8050    8.1200  -21.6360 C   0  0  0  0  0  0
    6.4560    9.5180  -23.0210 C   0  0  0  0  0  0
    8.7300    9.1060  -23.5870 C   0  0  0  0  0  0
    9.7760    7.8940  -22.2800 H   0  0  0  0  0  0
    5.2508    9.2044  -20.3416 H   0  0  0  0  0  0
    9.6870    9.8863  -25.2674 H   0  0  0  0  0  0
   10.6978    8.8481  -24.2260 H   0  0  0  0  0  0
    4.1391    7.8822  -23.1283 H   0  0  0  0  0  0
    2.8827    7.9882  -21.9249 H   0  0  0  0  0  0
    4.2666    7.0018  -20.2003 H   0  0  0  0  0  0
    5.4613    6.4096  -21.3971 H   0  0  0  0  0  0
    7.3900   10.3352  -24.7412 H   0  0  0  0  0  0
    7.9240    7.4888  -20.7628 H   0  0  0  0  0  0
    5.5043    9.9948  -23.2259 H   0  0  0  0  0  0
  1  2  2  0  0  0
  1  3  1  0  0  0
  1 34  1  0  0  0
  2  6  1  0  0  0
  2 35  1  0  0  0
  3  5  2  0  0  0
  3 27  1  0  0  0
  4  5  1  0  0  0
  4  6  2  0  0  0
  4 18  1  0  0  0
  5 24  1  0  0  0
  6 10  1  0  0  0
  7 10  2  0  0  0
  7 23  1  0  0  0
  7 33  1  0  0  0
  8 21  1  0  0  0
  8 22  1  0  0  0
  8 36  1  0  0  0
  8 37  1  0  0  0
  9 21  1  0  0  0
  9 31  1  0  0  0
  9 38  1  0  0  0
  9 39  1  0  0  0
 10 40  1  0  0  0
 11 12  2  0  0  0
 11 14  1  0  0  0
 11 15  1  0  0  0
 12 17  1  0  0  0
 12 28  1  0  0  0
 13 28  2  0  0  0
 13 29  1  0  0  0
 13 55  1  0  0  0
 14 29  2  0  0  0
 14 31  1  0  0  0
 15 30  2  0  0  0
 15 41  1  0  0  0
 16 17  2  0  0  0
 16 18  1  0  0  0
 16 30  1  0  0  0
 17 26  1  0  0  0
 18 23  2  0  0  0
 19 20  1  0  0  0
 19 31  1  0  0  0
 19 42  1  0  0  0
 19 43  1  0  0  0
 20 22  1  0  0  0
 20 32  1  0  0  0
 20 44  1  0  0  0
 21 32  1  0  0  0
 21 45  1  0  0  0
 22 46  1  0  0  0
 22 47  1  0  0  0
 23 48  1  0  0  0
 24 25  3  0  0  0
 25 49  1  0  0  0
 32 50  1  0  0  0
 33 51  1  0  0  0
 52 59  1  0  0  0
 52 61  1  0  0  0
 52 62  1  0  0  0
 53 56  1  0  0  0
 53 57  1  0  0  0
 53 63  1  0  0  0
 54 61  1  0  0  0
 54 64  1  0  0  0
 54 65  1  0  0  0
 55 57  1  0  0  0
 55 66  1  0  0  0
 55 67  1  0  0  0
 56 59  2  0  0  0
 56 60  1  0  0  0
 57 68  1  0  0  0
 57 69  1  0  0  0
 58 60  1  0  0  0
 58 61  2  0  0  0
 58 70  1  0  0  0
 59 71  1  0  0  0
 60 72  1  0  0  0
M  END
> <s_m_entry_id>
260

> <s_m_entry_name>
000000102.1

> <s_m_Source_Path>
/Users/zaksoul/Documents/3r_UNI/2nd_SEMESTER/BSC/FRAG_RECON/RESULTS/2

> <s_m_Source_File>
000000102.mol2

> <i_m_Source_File_Index>
1

$$$$
No_0_115
                    3D
 Schrodinger Suite 2022-4.
 71 77  0  0  1  0            999 V2000
   -5.0940    3.5940  -22.0750 C   0  0  0  0  0  0
   -5.3790    3.7350  -23.4120 C   0  0  0  0  0  0
   -3.8500    3.3600  -21.7420 C   0  0  0  0  0  0
   -2.9880    3.4160  -23.9220 C   0  0  0  0  0  0
   -2.8070    3.2220  -22.4970 C   0  0  0  0  0  0
   -4.3440    3.6530  -24.4340 C   0  0  0  0  0  0
   -3.6190    3.6030  -26.6420 C   0  0  0  0  0  0
    6.1840    3.1070  -21.4860 C   0  0  0  0  0  0
    6.0110    3.1600  -24.0370 C   0  0  0  0  0  0
   -4.6140    3.7320  -25.7700 C   0  0  0  0  0  0
    2.2230    3.6850  -24.0220 C   0  0  0  0  0  0
    1.3990    4.7990  -23.7500 C   0  0  0  0  0  0
    3.1990    6.0280  -23.1360 C   0  0  0  0  0  0
    3.6260    3.8950  -23.7340 C   0  0  0  0  0  0
    1.6750    2.5430  -24.6360 C   0  0  0  0  0  0
   -0.4560    3.3470  -24.5250 C   0  0  0  0  0  0
    0.0710    4.5910  -23.9760 C   0  0  0  0  0  0
   -1.9140    3.3330  -24.8600 C   0  0  0  0  0  0
    4.2510    1.4120  -23.3640 C   0  0  0  0  0  0
    5.2020    1.1020  -22.2190 C   0  0  2  0  0  0
    6.7780    2.6320  -22.8300 C   0  0  2  0  0  0
    5.1930    2.1430  -21.0870 C   0  0  0  0  0  0
   -2.2590    3.4410  -26.2880 C   0  0  0  0  0  0
   -1.4530    2.8380  -21.9020 C   0  0  0  0  0  0
   -0.4130    2.5130  -21.3990 C   0  0  0  0  0  0
   -0.7720    5.6420  -23.6570 F   0  0  0  0  0  0
   -3.6200    3.1670  -20.3550 F   0  0  0  0  0  0
    1.8760    5.9780  -23.2650 N   0  0  0  0  0  0
    4.0980    5.0630  -23.3350 N   0  0  0  0  0  0
    0.3650    2.4350  -24.9210 N   0  0  0  0  0  0
    4.5480    2.8460  -23.8870 N   0  0  0  0  0  0
    6.6010    1.1600  -22.7220 N   0  0  1  0  0  0
   -3.8100    3.5680  -28.0290 O   0  0  0  0  0  0
   -5.8867    3.6783  -21.3405 H   0  0  0  0  0  0
   -6.3989    3.9127  -23.7332 H   0  0  0  0  0  0
    5.7056    4.0880  -21.6233 H   0  0  0  0  0  0
    6.9802    3.1484  -20.7281 H   0  0  0  0  0  0
    6.3957    2.6854  -24.9518 H   0  0  0  0  0  0
    6.1463    4.2492  -24.1097 H   0  0  0  0  0  0
   -5.6301    3.8997  -26.1084 H   0  0  0  0  0  0
    2.3151    1.7083  -24.8979 H   0  0  0  0  0  0
    3.2132    1.3616  -23.0029 H   0  0  0  0  0  0
    4.4064    0.6866  -24.1762 H   0  0  0  0  0  0
    4.9891    0.1023  -21.8125 H   0  0  0  0  0  0
    7.8442    2.8935  -22.8997 H   0  0  0  0  0  0
    4.2072    2.6293  -21.0466 H   0  0  0  0  0  0
    5.5087    1.6629  -20.1490 H   0  0  0  0  0  0
   -1.4996    3.3989  -27.0604 H   0  0  0  0  0  0
    0.5018    2.2281  -20.9551 H   0  0  0  0  0  0
    7.2616    0.6908  -22.0080 H   0  0  0  0  0  0
   -2.9704    3.4700  -28.4626 H   0  0  0  0  0  0
    4.7050    8.6980  -20.8040 O   0  0  0  0  0  0
    7.1270   10.4700  -22.7630 N   0  0  0  0  0  0
    7.1130    7.4330  -19.9840 N   0  0  0  0  0  0
    3.7560    7.3850  -22.7230 C   0  0  0  0  0  0
    5.8950    9.0580  -21.3150 C   0  0  0  0  0  0
    8.2930    8.8500  -21.5130 C   0  0  0  0  0  0
    7.0960    8.4330  -20.9310 C   0  0  3  0  0  0
    4.1300    7.4400  -21.2260 C   0  0  0  0  0  0
    5.9390   10.0760  -22.2180 C   0  0  0  0  0  0
    8.2940    9.8580  -22.4190 C   0  0  0  0  0  0
    7.1500   11.2404  -23.4463 H   0  0  0  0  0  0
    8.0042    6.9899  -19.7189 H   0  0  0  0  0  0
    6.2348    7.1289  -19.5399 H   0  0  0  0  0  0
    4.6437    7.6169  -23.3298 H   0  0  0  0  0  0
    3.0152    8.1678  -22.9429 H   0  0  0  0  0  0
    9.2244    8.3668  -21.2409 H   0  0  0  0  0  0
    3.2373    7.2251  -20.6202 H   0  0  0  0  0  0
    4.8292    6.6228  -20.9949 H   0  0  0  0  0  0
    5.0199   10.5751  -22.5030 H   0  0  0  0  0  0
    9.2274   10.1761  -22.8692 H   0  0  0  0  0  0
  1  2  2  0  0  0
  1  3  1  0  0  0
  1 34  1  0  0  0
  2  6  1  0  0  0
  2 35  1  0  0  0
  3  5  2  0  0  0
  3 27  1  0  0  0
  4  5  1  0  0  0
  4  6  2  0  0  0
  4 18  1  0  0  0
  5 24  1  0  0  0
  6 10  1  0  0  0
  7 10  2  0  0  0
  7 23  1  0  0  0
  7 33  1  0  0  0
  8 21  1  0  0  0
  8 22  1  0  0  0
  8 36  1  0  0  0
  8 37  1  0  0  0
  9 21  1  0  0  0
  9 31  1  0  0  0
  9 38  1  0  0  0
  9 39  1  0  0  0
 10 40  1  0  0  0
 11 12  2  0  0  0
 11 14  1  0  0  0
 11 15  1  0  0  0
 12 17  1  0  0  0
 12 28  1  0  0  0
 13 28  2  0  0  0
 13 29  1  0  0  0
 13 55  1  0  0  0
 14 29  2  0  0  0
 14 31  1  0  0  0
 15 30  2  0  0  0
 15 41  1  0  0  0
 16 17  2  0  0  0
 16 18  1  0  0  0
 16 30  1  0  0  0
 17 26  1  0  0  0
 18 23  2  0  0  0
 19 20  1  0  0  0
 19 31  1  0  0  0
 19 42  1  0  0  0
 19 43  1  0  0  0
 20 22  1  0  0  0
 20 32  1  0  0  0
 20 44  1  0  0  0
 21 32  1  0  0  0
 21 45  1  0  0  0
 22 46  1  0  0  0
 22 47  1  0  0  0
 23 48  1  0  0  0
 24 25  3  0  0  0
 25 49  1  0  0  0
 32 50  1  0  0  0
 33 51  1  0  0  0
 52 56  1  0  0  0
 52 59  1  0  0  0
 53 60  1  0  0  0
 53 61  1  0  0  0
 53 62  1  0  0  0
 54 58  1  0  0  0
 54 63  1  0  0  0
 54 64  1  0  0  0
 55 59  1  0  0  0
 55 65  1  0  0  0
 55 66  1  0  0  0
 56 58  1  0  0  0
 56 60  2  0  0  0
 57 58  1  0  0  0
 57 61  2  0  0  0
 57 67  1  0  0  0
 59 68  1  0  0  0
 59 69  1  0  0  0
 60 70  1  0  0  0
 61 71  1  0  0  0
M  END
> <s_m_entry_id>
261

> <s_m_entry_name>
000000103.1

> <s_m_Source_Path>
/Users/zaksoul/Documents/3r_UNI/2nd_SEMESTER/BSC/FRAG_RECON/RESULTS/2

> <s_m_Source_File>
000000103.mol2

> <i_m_Source_File_Index>
1

$$$$
No_0_116
                    3D
 Schrodinger Suite 2022-4.
 69 75  0  0  1  0            999 V2000
   -5.0950    3.5370  -22.1470 C   0  0  0  0  0  0
   -5.3630    3.6920  -23.4860 C   0  0  0  0  0  0
   -3.8520    3.3200  -21.8000 C   0  0  0  0  0  0
   -2.9600    3.4240  -23.9660 C   0  0  0  0  0  0
   -2.7960    3.2120  -22.5410 C   0  0  0  0  0  0
   -4.3120    3.6440  -24.4940 C   0  0  0  0  0  0
   -3.5540    3.6400  -26.6910 C   0  0  0  0  0  0
    6.1800    3.2400  -21.4000 C   0  0  0  0  0  0
    6.0430    3.3290  -23.9520 C   0  0  0  0  0  0
   -4.5640    3.7390  -25.8320 C   0  0  0  0  0  0
    2.2460    3.7870  -23.9850 C   0  0  0  0  0  0
    1.3990    4.8820  -23.7090 C   0  0  0  0  0  0
    3.1670    6.1330  -23.0510 C   0  0  0  0  0  0
    3.6410    4.0170  -23.6740 C   0  0  0  0  0  0
    1.7280    2.6440  -24.6250 C   0  0  0  0  0  0
   -0.4180    3.4090  -24.5330 C   0  0  0  0  0  0
    0.0780    4.6530  -23.9570 C   0  0  0  0  0  0
   -1.8710    3.3740  -24.8890 C   0  0  0  0  0  0
    4.3050    1.5400  -23.3320 C   0  0  0  0  0  0
    5.2450    1.2290  -22.1770 C   0  0  2  0  0  0
    6.8020    2.7960  -22.7420 C   0  0  2  0  0  0
    5.2010    2.2530  -21.0300 C   0  0  0  0  0  0
   -2.1970    3.4980  -26.3200 C   0  0  0  0  0  0
   -1.4430    2.8420  -21.9330 C   0  0  0  0  0  0
   -0.4060    2.5290  -21.4190 C   0  0  0  0  0  0
   -0.7890    5.6850  -23.6350 F   0  0  0  0  0  0
   -3.6380    3.1090  -20.4130 F   0  0  0  0  0  0
    1.8480    6.0620  -23.2000 N   0  0  0  0  0  0
    4.0860    5.1870  -23.2500 N   0  0  0  0  0  0
    0.4240    2.5180  -24.9300 N   0  0  0  0  0  0
    4.5840    2.9880  -23.8290 N   0  0  0  0  0  0
    6.6500    1.3200  -22.6590 N   0  0  1  0  0  0
   -3.7250    3.6240  -28.0810 O   0  0  0  0  0  0
   -5.9000    3.5952  -21.4233 H   0  0  0  0  0  0
   -6.3813    3.8565  -23.8191 H   0  0  0  0  0  0
    5.6867    4.2145  -21.5301 H   0  0  0  0  0  0
    6.9647    3.2844  -20.6304 H   0  0  0  0  0  0
    6.4488    2.8758  -24.8685 H   0  0  0  0  0  0
    6.1601    4.4214  -24.0065 H   0  0  0  0  0  0
   -5.5779    3.8934  -26.1830 H   0  0  0  0  0  0
    2.3867    1.8246  -24.8891 H   0  0  0  0  0  0
    3.2632    1.4663  -22.9867 H   0  0  0  0  0  0
    4.4847    0.8302  -24.1529 H   0  0  0  0  0  0
    5.0441    0.2194  -21.7893 H   0  0  0  0  0  0
    7.8641    3.0777  -22.7925 H   0  0  0  0  0  0
    4.2061    2.7212  -20.9977 H   0  0  0  0  0  0
    5.5118    1.7646  -20.0946 H   0  0  0  0  0  0
   -1.4261    3.4809  -27.0819 H   0  0  0  0  0  0
    0.5073    2.2532  -20.9663 H   0  0  0  0  0  0
    7.3082    0.8520  -21.9420 H   0  0  0  0  0  0
   -2.8777    3.5468  -28.5037 H   0  0  0  0  0  0
    7.4420   10.2570  -21.7510 O   0  0  0  0  0  0
    4.8480    8.7590  -20.7160 N   0  3  0  0  0  0
    6.7140    9.2330  -22.4260 C   0  0  0  0  0  0
    7.1010    9.8880  -20.4160 C   0  0  0  0  0  0
    4.0480    7.5430  -21.1070 C   0  0  0  0  0  0
    6.3200    8.7020  -21.0270 C   0  0  0  0  0  0
    3.6940    7.4940  -22.6080 C   0  0  0  0  0  0
    4.7231    8.9369  -19.7317 H   0  0  0  0  0  0
    4.4470    9.5751  -21.1510 H   0  0  0  0  0  0
    7.4512    8.5318  -22.8441 H   0  0  0  0  0  0
    5.8184    9.7028  -22.8588 H   0  0  0  0  0  0
    6.3583   10.6157  -20.0571 H   0  0  0  0  0  0
    8.0086    9.4742  -19.9522 H   0  0  0  0  0  0
    3.1229    7.5080  -20.5129 H   0  0  0  0  0  0
    4.6063    6.6355  -20.8338 H   0  0  0  0  0  0
    6.7711    7.7257  -20.7959 H   0  0  0  0  0  0
    4.5831    7.7520  -23.2021 H   0  0  0  0  0  0
    2.9437    8.2663  -22.8331 H   0  0  0  0  0  0
  1  2  2  0  0  0
  1  3  1  0  0  0
  1 34  1  0  0  0
  2  6  1  0  0  0
  2 35  1  0  0  0
  3  5  2  0  0  0
  3 27  1  0  0  0
  4  5  1  0  0  0
  4  6  2  0  0  0
  4 18  1  0  0  0
  5 24  1  0  0  0
  6 10  1  0  0  0
  7 10  2  0  0  0
  7 23  1  0  0  0
  7 33  1  0  0  0
  8 21  1  0  0  0
  8 22  1  0  0  0
  8 36  1  0  0  0
  8 37  1  0  0  0
  9 21  1  0  0  0
  9 31  1  0  0  0
  9 38  1  0  0  0
  9 39  1  0  0  0
 10 40  1  0  0  0
 11 12  1  0  0  0
 11 14  2  0  0  0
 11 15  1  0  0  0
 12 17  1  0  0  0
 12 28  2  0  0  0
 13 28  1  0  0  0
 13 29  2  0  0  0
 13 58  1  0  0  0
 14 29  1  0  0  0
 14 31  1  0  0  0
 15 30  2  0  0  0
 15 41  1  0  0  0
 16 17  2  0  0  0
 16 18  1  0  0  0
 16 30  1  0  0  0
 17 26  1  0  0  0
 18 23  2  0  0  0
 19 20  1  0  0  0
 19 31  1  0  0  0
 19 42  1  0  0  0
 19 43  1  0  0  0
 20 22  1  0  0  0
 20 32  1  0  0  0
 20 44  1  0  0  0
 21 32  1  0  0  0
 21 45  1  0  0  0
 22 46  1  0  0  0
 22 47  1  0  0  0
 23 48  1  0  0  0
 24 25  3  0  0  0
 25 49  1  0  0  0
 32 50  1  0  0  0
 33 51  1  0  0  0
 52 54  1  0  0  0
 52 55  1  0  0  0
 53 56  1  0  0  0
 53 57  1  0  0  0
 53 59  1  0  0  0
 53 60  1  0  0  0
 54 57  1  0  0  0
 54 61  1  0  0  0
 54 62  1  0  0  0
 55 57  1  0  0  0
 55 63  1  0  0  0
 55 64  1  0  0  0
 56 58  1  0  0  0
 56 65  1  0  0  0
 56 66  1  0  0  0
 57 67  1  0  0  0
 58 68  1  0  0  0
 58 69  1  0  0  0
M  CHG  1  53   1
M  END
> <s_m_entry_id>
262

> <s_m_entry_name>
000000104.1

> <s_m_Source_Path>
/Users/zaksoul/Documents/3r_UNI/2nd_SEMESTER/BSC/FRAG_RECON/RESULTS/2

> <s_m_Source_File>
000000104.mol2

> <i_m_Source_File_Index>
1

$$$$
No_0_117
                    3D
 Schrodinger Suite 2022-4.
 69 75  0  0  1  0            999 V2000
   -5.1360    3.6580  -21.8310 C   0  0  0  0  0  0
   -5.4070    3.8540  -23.1640 C   0  0  0  0  0  0
   -3.8960    3.4000  -21.4960 C   0  0  0  0  0  0
   -3.0140    3.5350  -23.6650 C   0  0  0  0  0  0
   -2.8480    3.2830  -22.2460 C   0  0  0  0  0  0
   -4.3630    3.8040  -24.1790 C   0  0  0  0  0  0
   -3.6170    3.8350  -26.3800 C   0  0  0  0  0  0
    6.1320    3.0520  -21.1600 C   0  0  0  0  0  0
    5.9830    3.2080  -23.7080 C   0  0  0  0  0  0
   -4.6200    3.9380  -25.5130 C   0  0  0  0  0  0
    2.2000    3.7640  -23.7060 C   0  0  0  0  0  0
    1.3830    4.8730  -23.3980 C   0  0  0  0  0  0
    3.1860    6.0610  -22.7200 C   0  0  0  0  0  0
    3.6020    3.9500  -23.3980 C   0  0  0  0  0  0
    1.6480    2.6520  -24.3710 C   0  0  0  0  0  0
   -0.4770    3.4690  -24.2470 C   0  0  0  0  0  0
    0.0550    4.6850  -23.6440 C   0  0  0  0  0  0
   -1.9310    3.4800  -24.5950 C   0  0  0  0  0  0
    4.2030    1.4500  -23.1210 C   0  0  0  0  0  0
    5.1410    1.0860  -21.9800 C   0  0  2  0  0  0
    6.7350    2.6260  -22.5160 C   0  0  2  0  0  0
    5.1300    2.0820  -20.8080 C   0  0  0  0  0  0
   -2.2620    3.6480  -26.0210 C   0  0  0  0  0  0
   -1.5020    2.8640  -21.6560 C   0  0  0  0  0  0
   -0.4700    2.5120  -21.1560 C   0  0  0  0  0  0
   -0.7830    5.7300  -23.2910 F   0  0  0  0  0  0
   -3.6810    3.1500  -20.1160 F   0  0  0  0  0  0
    1.8640    6.0280  -22.8630 N   0  0  0  0  0  0
    4.0800    5.0980  -22.9490 N   0  0  0  0  0  0
    0.3400    2.5670  -24.6710 N   0  0  0  0  0  0
    4.5170    2.9010  -23.5840 N   0  0  0  0  0  0
    6.5460    1.1530  -22.4690 N   0  0  1  0  0  0
   -3.7960    3.8570  -27.7690 O   0  0  0  0  0  0
   -5.9342    3.7192  -21.1001 H   0  0  0  0  0  0
   -6.4225    4.0527  -23.4871 H   0  0  0  0  0  0
    5.6637    4.0421  -21.2619 H   0  0  0  0  0  0
    6.9218    3.0570  -20.3944 H   0  0  0  0  0  0
    6.3725    2.7670  -24.6374 H   0  0  0  0  0  0
    6.1283    4.2980  -23.7363 H   0  0  0  0  0  0
   -5.6315    4.1278  -25.8535 H   0  0  0  0  0  0
    2.2841    1.8232  -24.6600 H   0  0  0  0  0  0
    3.1614    1.3935  -22.7718 H   0  0  0  0  0  0
    4.3604    0.7557  -23.9596 H   0  0  0  0  0  0
    4.9159    0.0725  -21.6166 H   0  0  0  0  0  0
    7.8038    2.8813  -22.5665 H   0  0  0  0  0  0
    4.1478    2.5746  -20.7575 H   0  0  0  0  0  0
    5.4327    1.5624  -19.8869 H   0  0  0  0  0  0
   -1.4961    3.6299  -26.7879 H   0  0  0  0  0  0
    0.4384    2.2012  -20.7163 H   0  0  0  0  0  0
    7.1949    0.6495  -21.7677 H   0  0  0  0  0  0
   -2.9531    3.7690  -28.1983 H   0  0  0  0  0  0
    7.4080   10.4040  -22.1710 O   0  0  0  0  0  0
    5.3880    8.5060  -20.6330 N   0  3  0  0  0  0
    6.5580    9.4100  -22.7420 C   0  0  0  0  0  0
    7.5470    9.8180  -20.8780 C   0  0  0  0  0  0
    4.5750    7.2760  -20.9480 C   0  0  0  0  0  0
    6.6770    8.6510  -21.3990 C   0  0  0  0  0  0
    3.7510    7.3970  -22.2470 C   0  0  0  0  0  0
    5.5841    8.5310  -19.6446 H   0  0  0  0  0  0
    4.8207    9.3265  -20.7781 H   0  0  0  0  0  0
    7.1561    8.8569  -23.4811 H   0  0  0  0  0  0
    5.5448    9.8361  -22.7850 H   0  0  0  0  0  0
    6.9234   10.4047  -20.1874 H   0  0  0  0  0  0
    8.5787    9.4447  -20.7989 H   0  0  0  0  0  0
    3.9005    7.0598  -20.1064 H   0  0  0  0  0  0
    5.2430    6.4050  -21.0190 H   0  0  0  0  0  0
    7.2342    7.7067  -21.4870 H   0  0  0  0  0  0
    4.3790    7.8290  -23.0400 H   0  0  0  0  0  0
    2.9261    8.1079  -22.0920 H   0  0  0  0  0  0
  1  2  2  0  0  0
  1  3  1  0  0  0
  1 34  1  0  0  0
  2  6  1  0  0  0
  2 35  1  0  0  0
  3  5  2  0  0  0
  3 27  1  0  0  0
  4  5  1  0  0  0
  4  6  2  0  0  0
  4 18  1  0  0  0
  5 24  1  0  0  0
  6 10  1  0  0  0
  7 10  2  0  0  0
  7 23  1  0  0  0
  7 33  1  0  0  0
  8 21  1  0  0  0
  8 22  1  0  0  0
  8 36  1  0  0  0
  8 37  1  0  0  0
  9 21  1  0  0  0
  9 31  1  0  0  0
  9 38  1  0  0  0
  9 39  1  0  0  0
 10 40  1  0  0  0
 11 12  1  0  0  0
 11 14  2  0  0  0
 11 15  1  0  0  0
 12 17  1  0  0  0
 12 28  2  0  0  0
 13 28  1  0  0  0
 13 29  2  0  0  0
 13 58  1  0  0  0
 14 29  1  0  0  0
 14 31  1  0  0  0
 15 30  2  0  0  0
 15 41  1  0  0  0
 16 17  2  0  0  0
 16 18  1  0  0  0
 16 30  1  0  0  0
 17 26  1  0  0  0
 18 23  2  0  0  0
 19 20  1  0  0  0
 19 31  1  0  0  0
 19 42  1  0  0  0
 19 43  1  0  0  0
 20 22  1  0  0  0
 20 32  1  0  0  0
 20 44  1  0  0  0
 21 32  1  0  0  0
 21 45  1  0  0  0
 22 46  1  0  0  0
 22 47  1  0  0  0
 23 48  1  0  0  0
 24 25  3  0  0  0
 25 49  1  0  0  0
 32 50  1  0  0  0
 33 51  1  0  0  0
 52 54  1  0  0  0
 52 55  1  0  0  0
 53 56  1  0  0  0
 53 57  1  0  0  0
 53 59  1  0  0  0
 53 60  1  0  0  0
 54 57  1  0  0  0
 54 61  1  0  0  0
 54 62  1  0  0  0
 55 57  1  0  0  0
 55 63  1  0  0  0
 55 64  1  0  0  0
 56 58  1  0  0  0
 56 65  1  0  0  0
 56 66  1  0  0  0
 57 67  1  0  0  0
 58 68  1  0  0  0
 58 69  1  0  0  0
M  CHG  1  53   1
M  END
> <s_m_entry_id>
263

> <s_m_entry_name>
000000105.1

> <s_m_Source_Path>
/Users/zaksoul/Documents/3r_UNI/2nd_SEMESTER/BSC/FRAG_RECON/RESULTS/2

> <s_m_Source_File>
000000105.mol2

> <i_m_Source_File_Index>
1

$$$$
No_0_118
                    3D
 Schrodinger Suite 2022-4.
 69 75  0  0  1  0            999 V2000
   -5.1810    3.6090  -21.8530 C   0  0  0  0  0  0
   -5.4520    3.8050  -23.1860 C   0  0  0  0  0  0
   -3.9420    3.3510  -21.5190 C   0  0  0  0  0  0
   -3.0590    3.4860  -23.6870 C   0  0  0  0  0  0
   -2.8930    3.2340  -22.2690 C   0  0  0  0  0  0
   -4.4090    3.7540  -24.2010 C   0  0  0  0  0  0
   -3.6630    3.7850  -26.4030 C   0  0  0  0  0  0
    6.0870    3.0010  -21.1820 C   0  0  0  0  0  0
    5.9380    3.1560  -23.7310 C   0  0  0  0  0  0
   -4.6650    3.8890  -25.5350 C   0  0  0  0  0  0
    2.1540    3.7130  -23.7290 C   0  0  0  0  0  0
    1.3370    4.8230  -23.4210 C   0  0  0  0  0  0
    3.1410    6.0110  -22.7430 C   0  0  0  0  0  0
    3.5570    3.8990  -23.4210 C   0  0  0  0  0  0
    1.6030    2.6010  -24.3930 C   0  0  0  0  0  0
   -0.5220    3.4190  -24.2700 C   0  0  0  0  0  0
    0.0100    4.6350  -23.6670 C   0  0  0  0  0  0
   -1.9770    3.4300  -24.6180 C   0  0  0  0  0  0
    4.1570    1.3990  -23.1440 C   0  0  0  0  0  0
    5.0950    1.0350  -22.0030 C   0  0  2  0  0  0
    6.6890    2.5740  -22.5390 C   0  0  2  0  0  0
    5.0840    2.0310  -20.8310 C   0  0  0  0  0  0
   -2.3080    3.5970  -26.0440 C   0  0  0  0  0  0
   -1.5470    2.8150  -21.6780 C   0  0  0  0  0  0
   -0.5150    2.4620  -21.1780 C   0  0  0  0  0  0
   -0.8280    5.6800  -23.3140 F   0  0  0  0  0  0
   -3.7260    3.1020  -20.1390 F   0  0  0  0  0  0
    1.8200    5.9780  -22.8860 N   0  0  0  0  0  0
    4.0350    5.0470  -22.9720 N   0  0  0  0  0  0
    0.2950    2.5160  -24.6930 N   0  0  0  0  0  0
    4.4710    2.8500  -23.6070 N   0  0  0  0  0  0
    6.5000    1.1010  -22.4910 N   0  0  1  0  0  0
   -3.8410    3.8060  -27.7920 O   0  0  0  0  0  0
   -5.9796    3.6712  -21.1226 H   0  0  0  0  0  0
   -6.4675    4.0037  -23.5091 H   0  0  0  0  0  0
    5.6179    3.9906  -21.2849 H   0  0  0  0  0  0
    6.8763    3.0060  -20.4159 H   0  0  0  0  0  0
    6.3275    2.7150  -24.6604 H   0  0  0  0  0  0
    6.0833    4.2460  -23.7593 H   0  0  0  0  0  0
   -5.6765    4.0776  -25.8762 H   0  0  0  0  0  0
    2.2385    1.7718  -24.6821 H   0  0  0  0  0  0
    3.1157    1.3435  -22.7939 H   0  0  0  0  0  0
    4.3144    0.7047  -23.9826 H   0  0  0  0  0  0
    4.8700    0.0218  -21.6387 H   0  0  0  0  0  0
    7.7578    2.8293  -22.5885 H   0  0  0  0  0  0
    4.1018    2.5236  -20.7805 H   0  0  0  0  0  0
    5.3877    1.5123  -19.9097 H   0  0  0  0  0  0
   -1.5411    3.5789  -26.8099 H   0  0  0  0  0  0
    0.3934    2.1519  -20.7378 H   0  0  0  0  0  0
    7.1492    0.5983  -21.7894 H   0  0  0  0  0  0
   -2.9984    3.7179  -28.2217 H   0  0  0  0  0  0
    7.1370   10.5930  -22.6050 O   0  0  0  0  0  0
    5.5480    8.4520  -20.8920 N   0  3  0  0  0  0
    6.2540    9.5840  -23.0940 C   0  0  0  0  0  0
    7.5450    9.9290  -21.4100 C   0  0  0  0  0  0
    4.7620    7.1930  -21.1560 C   0  0  0  0  0  0
    6.6620    8.7420  -21.8620 C   0  0  0  0  0  0
    3.7060    7.3460  -22.2710 C   0  0  0  0  0  0
    5.9201    8.4210  -19.9557 H   0  0  0  0  0  0
    4.9172    9.2377  -20.8640 H   0  0  0  0  0  0
    6.7360    9.1290  -23.9719 H   0  0  0  0  0  0
    5.2274    9.9382  -22.9189 H   0  0  0  0  0  0
    7.0268   10.4192  -20.5727 H   0  0  0  0  0  0
    8.5929    9.6250  -21.5500 H   0  0  0  0  0  0
    4.2679    6.8699  -20.2278 H   0  0  0  0  0  0
    5.4534    6.3786  -21.4181 H   0  0  0  0  0  0
    7.2460    7.8480  -22.1260 H   0  0  0  0  0  0
    4.1520    7.8770  -23.1249 H   0  0  0  0  0  0
    2.8850    7.9840  -21.9120 H   0  0  0  0  0  0
  1  2  2  0  0  0
  1  3  1  0  0  0
  1 34  1  0  0  0
  2  6  1  0  0  0
  2 35  1  0  0  0
  3  5  2  0  0  0
  3 27  1  0  0  0
  4  5  1  0  0  0
  4  6  2  0  0  0
  4 18  1  0  0  0
  5 24  1  0  0  0
  6 10  1  0  0  0
  7 10  2  0  0  0
  7 23  1  0  0  0
  7 33  1  0  0  0
  8 21  1  0  0  0
  8 22  1  0  0  0
  8 36  1  0  0  0
  8 37  1  0  0  0
  9 21  1  0  0  0
  9 31  1  0  0  0
  9 38  1  0  0  0
  9 39  1  0  0  0
 10 40  1  0  0  0
 11 12  1  0  0  0
 11 14  2  0  0  0
 11 15  1  0  0  0
 12 17  1  0  0  0
 12 28  2  0  0  0
 13 28  1  0  0  0
 13 29  2  0  0  0
 13 58  1  0  0  0
 14 29  1  0  0  0
 14 31  1  0  0  0
 15 30  2  0  0  0
 15 41  1  0  0  0
 16 17  2  0  0  0
 16 18  1  0  0  0
 16 30  1  0  0  0
 17 26  1  0  0  0
 18 23  2  0  0  0
 19 20  1  0  0  0
 19 31  1  0  0  0
 19 42  1  0  0  0
 19 43  1  0  0  0
 20 22  1  0  0  0
 20 32  1  0  0  0
 20 44  1  0  0  0
 21 32  1  0  0  0
 21 45  1  0  0  0
 22 46  1  0  0  0
 22 47  1  0  0  0
 23 48  1  0  0  0
 24 25  3  0  0  0
 25 49  1  0  0  0
 32 50  1  0  0  0
 33 51  1  0  0  0
 52 54  1  0  0  0
 52 55  1  0  0  0
 53 56  1  0  0  0
 53 57  1  0  0  0
 53 59  1  0  0  0
 53 60  1  0  0  0
 54 57  1  0  0  0
 54 61  1  0  0  0
 54 62  1  0  0  0
 55 57  1  0  0  0
 55 63  1  0  0  0
 55 64  1  0  0  0
 56 58  1  0  0  0
 56 65  1  0  0  0
 56 66  1  0  0  0
 57 67  1  0  0  0
 58 68  1  0  0  0
 58 69  1  0  0  0
M  CHG  1  53   1
M  END
> <s_m_entry_id>
264

> <s_m_entry_name>
000000106.1

> <s_m_Source_Path>
/Users/zaksoul/Documents/3r_UNI/2nd_SEMESTER/BSC/FRAG_RECON/RESULTS/2

> <s_m_Source_File>
000000106.mol2

> <i_m_Source_File_Index>
1

$$$$
No_0_119
                    3D
 Schrodinger Suite 2022-4.
 69 75  0  0  1  0            999 V2000
   -5.1810    3.6090  -21.8530 C   0  0  0  0  0  0
   -5.4520    3.8050  -23.1860 C   0  0  0  0  0  0
   -3.9420    3.3510  -21.5190 C   0  0  0  0  0  0
   -3.0590    3.4860  -23.6870 C   0  0  0  0  0  0
   -2.8930    3.2340  -22.2690 C   0  0  0  0  0  0
   -4.4090    3.7540  -24.2010 C   0  0  0  0  0  0
   -3.6630    3.7850  -26.4030 C   0  0  0  0  0  0
    6.0870    3.0010  -21.1820 C   0  0  0  0  0  0
    5.9380    3.1560  -23.7310 C   0  0  0  0  0  0
   -4.6650    3.8890  -25.5350 C   0  0  0  0  0  0
    2.1540    3.7130  -23.7290 C   0  0  0  0  0  0
    1.3370    4.8230  -23.4210 C   0  0  0  0  0  0
    3.1410    6.0110  -22.7430 C   0  0  0  0  0  0
    3.5570    3.8990  -23.4210 C   0  0  0  0  0  0
    1.6030    2.6010  -24.3930 C   0  0  0  0  0  0
   -0.5220    3.4190  -24.2700 C   0  0  0  0  0  0
    0.0100    4.6350  -23.6670 C   0  0  0  0  0  0
   -1.9770    3.4300  -24.6180 C   0  0  0  0  0  0
    4.1570    1.3990  -23.1440 C   0  0  0  0  0  0
    5.0950    1.0350  -22.0030 C   0  0  2  0  0  0
    6.6890    2.5740  -22.5390 C   0  0  2  0  0  0
    5.0840    2.0310  -20.8310 C   0  0  0  0  0  0
   -2.3080    3.5970  -26.0440 C   0  0  0  0  0  0
   -1.5470    2.8150  -21.6780 C   0  0  0  0  0  0
   -0.5150    2.4620  -21.1780 C   0  0  0  0  0  0
   -0.8280    5.6800  -23.3140 F   0  0  0  0  0  0
   -3.7260    3.1020  -20.1390 F   0  0  0  0  0  0
    1.8200    5.9780  -22.8860 N   0  0  0  0  0  0
    4.0350    5.0470  -22.9720 N   0  0  0  0  0  0
    0.2950    2.5160  -24.6930 N   0  0  0  0  0  0
    4.4710    2.8500  -23.6070 N   0  0  0  0  0  0
    6.5000    1.1010  -22.4910 N   0  0  1  0  0  0
   -3.8410    3.8060  -27.7920 O   0  0  0  0  0  0
   -5.9796    3.6712  -21.1226 H   0  0  0  0  0  0
   -6.4675    4.0037  -23.5091 H   0  0  0  0  0  0
    5.6179    3.9906  -21.2849 H   0  0  0  0  0  0
    6.8763    3.0060  -20.4159 H   0  0  0  0  0  0
    6.3275    2.7150  -24.6604 H   0  0  0  0  0  0
    6.0833    4.2460  -23.7593 H   0  0  0  0  0  0
   -5.6765    4.0776  -25.8762 H   0  0  0  0  0  0
    2.2385    1.7718  -24.6821 H   0  0  0  0  0  0
    3.1157    1.3435  -22.7939 H   0  0  0  0  0  0
    4.3144    0.7047  -23.9826 H   0  0  0  0  0  0
    4.8700    0.0218  -21.6387 H   0  0  0  0  0  0
    7.7578    2.8293  -22.5885 H   0  0  0  0  0  0
    4.1018    2.5236  -20.7805 H   0  0  0  0  0  0
    5.3877    1.5123  -19.9097 H   0  0  0  0  0  0
   -1.5411    3.5789  -26.8099 H   0  0  0  0  0  0
    0.3934    2.1519  -20.7378 H   0  0  0  0  0  0
    7.1492    0.5983  -21.7894 H   0  0  0  0  0  0
   -2.9984    3.7179  -28.2217 H   0  0  0  0  0  0
    6.7350   10.9090  -23.0180 O   0  0  0  0  0  0
    5.7350    8.4910  -21.2280 N   0  3  0  0  0  0
    5.8350    9.8700  -23.4010 C   0  0  0  0  0  0
    7.4520   10.1840  -22.0210 C   0  0  0  0  0  0
    4.9980    7.1940  -21.4420 C   0  0  0  0  0  0
    6.5730    8.9650  -22.3860 C   0  0  0  0  0  0
    3.7060    7.3460  -22.2710 C   0  0  0  0  0  0
    6.3149    8.4140  -20.4071 H   0  0  0  0  0  0
    5.0757    9.2113  -20.9779 H   0  0  0  0  0  0
    6.1310    9.5380  -24.4071 H   0  0  0  0  0  0
    4.8543   10.1129  -22.9661 H   0  0  0  0  0  0
    7.1090   10.5500  -21.0420 H   0  0  0  0  0  0
    8.4581    9.9900  -22.4211 H   0  0  0  0  0  0
    4.7551    6.7481  -20.4662 H   0  0  0  0  0  0
    5.6658    6.4722  -21.9349 H   0  0  0  0  0  0
    7.1412    8.1547  -22.8662 H   0  0  0  0  0  0
    3.9051    7.9872  -23.1423 H   0  0  0  0  0  0
    2.9480    7.8730  -21.6730 H   0  0  0  0  0  0
  1  2  2  0  0  0
  1  3  1  0  0  0
  1 34  1  0  0  0
  2  6  1  0  0  0
  2 35  1  0  0  0
  3  5  2  0  0  0
  3 27  1  0  0  0
  4  5  1  0  0  0
  4  6  2  0  0  0
  4 18  1  0  0  0
  5 24  1  0  0  0
  6 10  1  0  0  0
  7 10  2  0  0  0
  7 23  1  0  0  0
  7 33  1  0  0  0
  8 21  1  0  0  0
  8 22  1  0  0  0
  8 36  1  0  0  0
  8 37  1  0  0  0
  9 21  1  0  0  0
  9 31  1  0  0  0
  9 38  1  0  0  0
  9 39  1  0  0  0
 10 40  1  0  0  0
 11 12  1  0  0  0
 11 14  2  0  0  0
 11 15  1  0  0  0
 12 17  1  0  0  0
 12 28  2  0  0  0
 13 28  1  0  0  0
 13 29  2  0  0  0
 13 58  1  0  0  0
 14 29  1  0  0  0
 14 31  1  0  0  0
 15 30  2  0  0  0
 15 41  1  0  0  0
 16 17  2  0  0  0
 16 18  1  0  0  0
 16 30  1  0  0  0
 17 26  1  0  0  0
 18 23  2  0  0  0
 19 20  1  0  0  0
 19 31  1  0  0  0
 19 42  1  0  0  0
 19 43  1  0  0  0
 20 22  1  0  0  0
 20 32  1  0  0  0
 20 44  1  0  0  0
 21 32  1  0  0  0
 21 45  1  0  0  0
 22 46  1  0  0  0
 22 47  1  0  0  0
 23 48  1  0  0  0
 24 25  3  0  0  0
 25 49  1  0  0  0
 32 50  1  0  0  0
 33 51  1  0  0  0
 52 54  1  0  0  0
 52 55  1  0  0  0
 53 56  1  0  0  0
 53 57  1  0  0  0
 53 59  1  0  0  0
 53 60  1  0  0  0
 54 57  1  0  0  0
 54 61  1  0  0  0
 54 62  1  0  0  0
 55 57  1  0  0  0
 55 63  1  0  0  0
 55 64  1  0  0  0
 56 58  1  0  0  0
 56 65  1  0  0  0
 56 66  1  0  0  0
 57 67  1  0  0  0
 58 68  1  0  0  0
 58 69  1  0  0  0
M  CHG  1  53   1
M  END
> <s_m_entry_id>
265

> <s_m_entry_name>
000000107.1

> <s_m_Source_Path>
/Users/zaksoul/Documents/3r_UNI/2nd_SEMESTER/BSC/FRAG_RECON/RESULTS/2

> <s_m_Source_File>
000000107.mol2

> <i_m_Source_File_Index>
1

$$$$
No_0_120
                    3D
 Schrodinger Suite 2022-4.
 74 80  0  0  1  0            999 V2000
   -5.0880    3.9800  -22.1110 C   0  0  0  0  0  0
   -5.3550    4.1650  -23.4470 C   0  0  0  0  0  0
   -3.8530    3.7050  -21.7730 C   0  0  0  0  0  0
   -2.9680    3.8000  -23.9430 C   0  0  0  0  0  0
   -2.8070    3.5620  -22.5210 C   0  0  0  0  0  0
   -4.3120    4.0860  -24.4600 C   0  0  0  0  0  0
   -3.5650    4.0790  -26.6610 C   0  0  0  0  0  0
    6.1680    3.1900  -21.4280 C   0  0  0  0  0  0
    6.0220    3.3190  -23.9770 C   0  0  0  0  0  0
   -4.5660    4.2090  -25.7960 C   0  0  0  0  0  0
    2.2490    3.9400  -23.9840 C   0  0  0  0  0  0
    1.4510    5.0660  -23.6890 C   0  0  0  0  0  0
    3.2740    6.2310  -23.0240 C   0  0  0  0  0  0
    3.6540    4.1060  -23.6780 C   0  0  0  0  0  0
    1.6790    2.8290  -24.6360 C   0  0  0  0  0  0
   -0.4320    3.6840  -24.5230 C   0  0  0  0  0  0
    0.1200    4.8980  -23.9340 C   0  0  0  0  0  0
   -1.8860    3.7160  -24.8720 C   0  0  0  0  0  0
    4.2120    1.5980  -23.3720 C   0  0  0  0  0  0
    5.1430    1.2320  -22.2260 C   0  0  2  0  0  0
    6.7640    2.7380  -22.7790 C   0  0  2  0  0  0
    5.1490    2.2410  -21.0660 C   0  0  0  0  0  0
   -2.2140    3.8730  -26.3000 C   0  0  0  0  0  0
   -1.4680    3.1270  -21.9250 C   0  0  0  0  0  0
   -0.4430    2.7620  -21.4210 C   0  0  0  0  0  0
   -0.7000    5.9610  -23.5930 F   0  0  0  0  0  0
   -3.6420    3.4680  -20.3900 F   0  0  0  0  0  0
    1.9520    6.2190  -23.1670 N   0  0  0  0  0  0
    4.1510    5.2500  -23.2410 N   0  0  0  0  0  0
    0.3690    2.7630  -24.9360 N   0  0  0  0  0  0
    4.5510    3.0390  -23.8510 N   0  0  0  0  0  0
    6.5490    1.2690  -22.7140 N   0  0  1  0  0  0
   -3.7430    4.0880  -28.0510 O   0  0  0  0  0  0
   -5.8856    4.0633  -21.3816 H   0  0  0  0  0  0
   -6.3669    4.3778  -23.7723 H   0  0  0  0  0  0
    5.7162    4.1864  -21.5420 H   0  0  0  0  0  0
    6.9568    3.1900  -20.6614 H   0  0  0  0  0  0
    6.4044    2.8610  -24.9011 H   0  0  0  0  0  0
    6.1865    4.4058  -24.0184 H   0  0  0  0  0  0
   -5.5741    4.4116  -26.1391 H   0  0  0  0  0  0
    2.3008    1.9862  -24.9153 H   0  0  0  0  0  0
    3.1697    1.5647  -23.0219 H   0  0  0  0  0  0
    4.3574    0.8922  -24.2031 H   0  0  0  0  0  0
    4.9008    0.2268  -21.8506 H   0  0  0  0  0  0
    7.8371    2.9742  -22.8315 H   0  0  0  0  0  0
    4.1752    2.7506  -21.0216 H   0  0  0  0  0  0
    5.4426    1.7274  -20.1387 H   0  0  0  0  0  0
   -1.4480    3.8328  -27.0660 H   0  0  0  0  0  0
    0.4601    2.4420  -20.9770 H   0  0  0  0  0  0
    7.1897    0.7631  -22.0070 H   0  0  0  0  0  0
   -2.9015    3.9811  -28.4787 H   0  0  0  0  0  0
    4.8650    8.7670  -20.5760 N   0  3  0  0  0  0
    6.3810    9.0910  -23.1600 N   0  0  0  0  0  0
    8.0540   10.5900  -23.2720 N   0  0  0  0  0  0
    3.8610    7.5620  -22.5660 C   0  0  0  0  0  0
    6.3210    8.4330  -20.7780 C   0  0  0  0  0  0
    3.8840    7.7210  -21.0340 C   0  0  0  0  0  0
    6.8780    9.2210  -21.9390 C   0  0  0  0  0  0
    7.9620   10.1920  -22.0110 C   0  0  0  0  0  0
    7.0980    9.9190  -23.9420 C   0  0  0  0  0  0
    8.8940   10.7440  -20.9620 C   0  0  0  0  0  0
    4.6569    9.6404  -21.0342 H   0  0  0  0  0  0
    4.7019    8.9721  -19.6026 H   0  0  0  0  0  0
    8.7653   11.2843  -23.5421 H   0  0  0  0  0  0
    4.8829    7.6650  -22.9599 H   0  0  0  0  0  0
    3.2849    8.3872  -23.0101 H   0  0  0  0  0  0
    6.4260    7.3572  -20.9820 H   0  0  0  0  0  0
    6.8831    8.6781  -19.8648 H   0  0  0  0  0  0
    2.8768    7.9831  -20.6779 H   0  0  0  0  0  0
    4.1369    6.7562  -20.5701 H   0  0  0  0  0  0
    6.8770    9.9910  -25.0008 H   0  0  0  0  0  0
    8.6590   10.2920  -19.9871 H   0  0  0  0  0  0
    9.9337   10.5091  -21.2339 H   0  0  0  0  0  0
    8.7710   11.8353  -20.8990 H   0  0  0  0  0  0
  1  2  2  0  0  0
  1  3  1  0  0  0
  1 34  1  0  0  0
  2  6  1  0  0  0
  2 35  1  0  0  0
  3  5  2  0  0  0
  3 27  1  0  0  0
  4  5  1  0  0  0
  4  6  2  0  0  0
  4 18  1  0  0  0
  5 24  1  0  0  0
  6 10  1  0  0  0
  7 10  2  0  0  0
  7 23  1  0  0  0
  7 33  1  0  0  0
  8 21  1  0  0  0
  8 22  1  0  0  0
  8 36  1  0  0  0
  8 37  1  0  0  0
  9 21  1  0  0  0
  9 31  1  0  0  0
  9 38  1  0  0  0
  9 39  1  0  0  0
 10 40  1  0  0  0
 11 12  1  0  0  0
 11 14  2  0  0  0
 11 15  1  0  0  0
 12 17  1  0  0  0
 12 28  2  0  0  0
 13 28  1  0  0  0
 13 29  2  0  0  0
 13 55  1  0  0  0
 14 29  1  0  0  0
 14 31  1  0  0  0
 15 30  2  0  0  0
 15 41  1  0  0  0
 16 17  2  0  0  0
 16 18  1  0  0  0
 16 30  1  0  0  0
 17 26  1  0  0  0
 18 23  2  0  0  0
 19 20  1  0  0  0
 19 31  1  0  0  0
 19 42  1  0  0  0
 19 43  1  0  0  0
 20 22  1  0  0  0
 20 32  1  0  0  0
 20 44  1  0  0  0
 21 32  1  0  0  0
 21 45  1  0  0  0
 22 46  1  0  0  0
 22 47  1  0  0  0
 23 48  1  0  0  0
 24 25  3  0  0  0
 25 49  1  0  0  0
 32 50  1  0  0  0
 33 51  1  0  0  0
 52 56  1  0  0  0
 52 57  1  0  0  0
 52 62  1  0  0  0
 52 63  1  0  0  0
 53 58  1  0  0  0
 53 60  2  0  0  0
 54 59  1  0  0  0
 54 60  1  0  0  0
 54 64  1  0  0  0
 55 57  1  0  0  0
 55 65  1  0  0  0
 55 66  1  0  0  0
 56 58  1  0  0  0
 56 67  1  0  0  0
 56 68  1  0  0  0
 57 69  1  0  0  0
 57 70  1  0  0  0
 58 59  2  0  0  0
 59 61  1  0  0  0
 60 71  1  0  0  0
 61 72  1  0  0  0
 61 73  1  0  0  0
 61 74  1  0  0  0
M  CHG  1  52   1
M  END
> <s_m_entry_id>
266

> <s_m_entry_name>
000000108.1

> <s_m_Source_Path>
/Users/zaksoul/Documents/3r_UNI/2nd_SEMESTER/BSC/FRAG_RECON/RESULTS/2

> <s_m_Source_File>
000000108.mol2

> <i_m_Source_File_Index>
1

$$$$
No_0_121
                    3D
 Schrodinger Suite 2022-4.
 74 80  0  0  1  0            999 V2000
   -5.2160    3.8080  -21.9360 C   0  0  0  0  0  0
   -5.4960    3.9930  -23.2700 C   0  0  0  0  0  0
   -3.9740    3.5570  -21.6080 C   0  0  0  0  0  0
   -3.1050    3.6780  -23.7830 C   0  0  0  0  0  0
   -2.9300    3.4380  -22.3630 C   0  0  0  0  0  0
   -4.4580    3.9380  -24.2910 C   0  0  0  0  0  0
   -3.7260    3.9550  -26.4970 C   0  0  0  0  0  0
    6.0580    3.2430  -21.3310 C   0  0  0  0  0  0
    5.8930    3.3780  -23.8790 C   0  0  0  0  0  0
   -4.7240    4.0620  -25.6240 C   0  0  0  0  0  0
    2.1070    3.9230  -23.8580 C   0  0  0  0  0  0
    1.2890    5.0320  -23.5540 C   0  0  0  0  0  0
    3.0930    6.2310  -22.8960 C   0  0  0  0  0  0
    3.5110    4.1160  -23.5600 C   0  0  0  0  0  0
    1.5550    2.8040  -24.5110 C   0  0  0  0  0  0
   -0.5710    3.6160  -24.3800 C   0  0  0  0  0  0
   -0.0400    4.8380  -23.7900 C   0  0  0  0  0  0
   -2.0280    3.6190  -24.7200 C   0  0  0  0  0  0
    4.1220    1.6190  -23.2680 C   0  0  0  0  0  0
    5.0670    1.2670  -22.1300 C   0  0  2  0  0  0
    6.6530    2.8080  -22.6870 C   0  0  2  0  0  0
    5.0610    2.2720  -20.9660 C   0  0  0  0  0  0
   -2.3690    3.7750  -26.1440 C   0  0  0  0  0  0
   -1.5790    3.0270  -21.7780 C   0  0  0  0  0  0
   -0.5420    2.6820  -21.2820 C   0  0  0  0  0  0
   -0.8790    5.8830  -23.4400 F   0  0  0  0  0  0
   -3.7490    3.3190  -20.2270 F   0  0  0  0  0  0
    1.7700    6.1930  -23.0300 N   0  0  0  0  0  0
    3.9880    5.2680  -23.1230 N   0  0  0  0  0  0
    0.2460    2.7120  -24.8020 N   0  0  0  0  0  0
    4.4280    3.0680  -23.7440 N   0  0  0  0  0  0
    6.4690    1.3340  -22.6270 N   0  0  1  0  0  0
   -3.9130    3.9660  -27.8840 O   0  0  0  0  0  0
   -6.0102    3.8733  -21.2011 H   0  0  0  0  0  0
   -6.5140    4.1868  -23.5882 H   0  0  0  0  0  0
    5.5846    4.2301  -21.4380 H   0  0  0  0  0  0
    6.8522    3.2561  -20.5701 H   0  0  0  0  0  0
    6.2777    2.9317  -24.8079 H   0  0  0  0  0  0
    6.0342    4.4683  -23.9163 H   0  0  0  0  0  0
   -5.7380    4.2457  -25.9603 H   0  0  0  0  0  0
    2.1923    1.9751  -24.7970 H   0  0  0  0  0  0
    3.0828    1.5625  -22.9118 H   0  0  0  0  0  0
    4.2754    0.9194  -24.1029 H   0  0  0  0  0  0
    4.8480    0.2558  -21.7566 H   0  0  0  0  0  0
    7.7206    3.0663  -22.7455 H   0  0  0  0  0  0
    4.0773    2.7613  -20.9125 H   0  0  0  0  0  0
    5.3708    1.7604  -20.0428 H   0  0  0  0  0  0
   -1.6077    3.7539  -26.9154 H   0  0  0  0  0  0
    0.3700    2.3780  -20.8450 H   0  0  0  0  0  0
    7.1248    0.8387  -21.9263 H   0  0  0  0  0  0
   -3.0729    3.8769  -28.3184 H   0  0  0  0  0  0
    4.9980    8.6950  -20.6050 N   0  3  0  0  0  0
    5.8220    9.4140  -23.4130 N   0  0  0  0  0  0
    7.2860   11.0910  -23.7330 N   0  0  0  0  0  0
    3.6560    7.5720  -22.4370 C   0  0  0  0  0  0
    6.3870    8.5430  -21.1700 C   0  0  0  0  0  0
    4.0300    7.5940  -20.9420 C   0  0  0  0  0  0
    6.5830    9.4880  -22.3310 C   0  0  0  0  0  0
    7.5310   10.5740  -22.5390 C   0  0  0  0  0  0
    6.2590   10.3830  -24.2400 C   0  0  0  0  0  0
    8.6360   11.1290  -21.6740 C   0  0  0  0  0  0
    4.6133    9.5782  -20.9017 H   0  0  0  0  0  0
    5.0550    8.7931  -19.6034 H   0  0  0  0  0  0
    7.8509   11.8798  -24.0789 H   0  0  0  0  0  0
    4.5422    7.8211  -23.0391 H   0  0  0  0  0  0
    2.9219    8.3651  -22.6420 H   0  0  0  0  0  0
    6.5319    7.5078  -21.5127 H   0  0  0  0  0  0
    7.1275    8.7651  -20.3875 H   0  0  0  0  0  0
    3.1176    7.7110  -20.3388 H   0  0  0  0  0  0
    4.4659    6.6242  -20.6601 H   0  0  0  0  0  0
    5.7868   10.5251  -25.2054 H   0  0  0  0  0  0
    8.6790   10.5679  -20.7288 H   0  0  0  0  0  0
    9.5973   11.0340  -22.2002 H   0  0  0  0  0  0
    8.4380   12.1901  -21.4620 H   0  0  0  0  0  0
  1  2  2  0  0  0
  1  3  1  0  0  0
  1 34  1  0  0  0
  2  6  1  0  0  0
  2 35  1  0  0  0
  3  5  2  0  0  0
  3 27  1  0  0  0
  4  5  1  0  0  0
  4  6  2  0  0  0
  4 18  1  0  0  0
  5 24  1  0  0  0
  6 10  1  0  0  0
  7 10  2  0  0  0
  7 23  1  0  0  0
  7 33  1  0  0  0
  8 21  1  0  0  0
  8 22  1  0  0  0
  8 36  1  0  0  0
  8 37  1  0  0  0
  9 21  1  0  0  0
  9 31  1  0  0  0
  9 38  1  0  0  0
  9 39  1  0  0  0
 10 40  1  0  0  0
 11 12  1  0  0  0
 11 14  2  0  0  0
 11 15  1  0  0  0
 12 17  1  0  0  0
 12 28  2  0  0  0
 13 28  1  0  0  0
 13 29  2  0  0  0
 13 55  1  0  0  0
 14 29  1  0  0  0
 14 31  1  0  0  0
 15 30  2  0  0  0
 15 41  1  0  0  0
 16 17  2  0  0  0
 16 18  1  0  0  0
 16 30  1  0  0  0
 17 26  1  0  0  0
 18 23  2  0  0  0
 19 20  1  0  0  0
 19 31  1  0  0  0
 19 42  1  0  0  0
 19 43  1  0  0  0
 20 22  1  0  0  0
 20 32  1  0  0  0
 20 44  1  0  0  0
 21 32  1  0  0  0
 21 45  1  0  0  0
 22 46  1  0  0  0
 22 47  1  0  0  0
 23 48  1  0  0  0
 24 25  3  0  0  0
 25 49  1  0  0  0
 32 50  1  0  0  0
 33 51  1  0  0  0
 52 56  1  0  0  0
 52 57  1  0  0  0
 52 62  1  0  0  0
 52 63  1  0  0  0
 53 58  1  0  0  0
 53 60  2  0  0  0
 54 59  1  0  0  0
 54 60  1  0  0  0
 54 64  1  0  0  0
 55 57  1  0  0  0
 55 65  1  0  0  0
 55 66  1  0  0  0
 56 58  1  0  0  0
 56 67  1  0  0  0
 56 68  1  0  0  0
 57 69  1  0  0  0
 57 70  1  0  0  0
 58 59  2  0  0  0
 59 61  1  0  0  0
 60 71  1  0  0  0
 61 72  1  0  0  0
 61 73  1  0  0  0
 61 74  1  0  0  0
M  CHG  1  52   1
M  END
> <s_m_entry_id>
267

> <s_m_entry_name>
000000109.1

> <s_m_Source_Path>
/Users/zaksoul/Documents/3r_UNI/2nd_SEMESTER/BSC/FRAG_RECON/RESULTS/2

> <s_m_Source_File>
000000109.mol2

> <i_m_Source_File_Index>
1

$$$$
No_0_122
                    3D
 Schrodinger Suite 2022-4.
 68 73  0  0  1  0            999 V2000
   -5.0610    3.6400  -21.9410 C   0  0  0  0  0  0
   -5.3360    3.8240  -23.2760 C   0  0  0  0  0  0
   -3.8200    3.3910  -21.6070 C   0  0  0  0  0  0
   -2.9420    3.5130  -23.7780 C   0  0  0  0  0  0
   -2.7720    3.2740  -22.3580 C   0  0  0  0  0  0
   -4.2930    3.7710  -24.2920 C   0  0  0  0  0  0
   -3.5510    3.7880  -26.4950 C   0  0  0  0  0  0
    6.2110    3.0960  -21.2850 C   0  0  0  0  0  0
    6.0570    3.2300  -23.8340 C   0  0  0  0  0  0
   -4.5530    3.8930  -25.6260 C   0  0  0  0  0  0
    2.2710    3.7680  -23.8310 C   0  0  0  0  0  0
    1.4480    4.8750  -23.5300 C   0  0  0  0  0  0
    3.2470    6.0780  -22.8640 C   0  0  0  0  0  0
    3.6720    3.9640  -23.5260 C   0  0  0  0  0  0
    1.7230    2.6470  -24.4850 C   0  0  0  0  0  0
   -0.4050    3.4550  -24.3640 C   0  0  0  0  0  0
    0.1210    4.6790  -23.7720 C   0  0  0  0  0  0
   -1.8610    3.4560  -24.7100 C   0  0  0  0  0  0
    4.2860    1.4680  -23.2300 C   0  0  0  0  0  0
    5.2280    1.1190  -22.0880 C   0  0  2  0  0  0
    6.8130    2.6620  -22.6390 C   0  0  2  0  0  0
    5.2140    2.1230  -20.9240 C   0  0  0  0  0  0
   -2.1950    3.6100  -26.1370 C   0  0  0  0  0  0
   -1.4230    2.8660  -21.7660 C   0  0  0  0  0  0
   -0.3890    2.5230  -21.2660 C   0  0  0  0  0  0
   -0.7210    5.7230  -23.4260 F   0  0  0  0  0  0
   -3.6010    3.1540  -20.2260 F   0  0  0  0  0  0
    1.9250    6.0370  -23.0050 N   0  0  0  0  0  0
    4.1450    5.1170  -23.0870 N   0  0  0  0  0  0
    0.4150    2.5530  -24.7820 N   0  0  0  0  0  0
    4.5920    2.9180  -23.7060 N   0  0  0  0  0  0
    6.6310    1.1880  -22.5790 N   0  0  1  0  0  0
   -3.7320    3.7980  -27.8840 O   0  0  0  0  0  0
   -5.8591    3.7032  -21.2102 H   0  0  0  0  0  0
   -6.3531    4.0158  -23.5983 H   0  0  0  0  0  0
    5.7369    4.0825  -21.3949 H   0  0  0  0  0  0
    7.0013    3.1111  -20.5200 H   0  0  0  0  0  0
    6.4467    2.7838  -24.7608 H   0  0  0  0  0  0
    6.1962    4.3205  -23.8713 H   0  0  0  0  0  0
   -5.5657    4.0747  -25.9673 H   0  0  0  0  0  0
    2.3631    1.8192  -24.7679 H   0  0  0  0  0  0
    3.2452    1.4105  -22.8787 H   0  0  0  0  0  0
    4.4455    0.7685  -24.0638 H   0  0  0  0  0  0
    5.0081    0.1075  -21.7159 H   0  0  0  0  0  0
    7.8807    2.9213  -22.6925 H   0  0  0  0  0  0
    4.2294    2.6112  -20.8766 H   0  0  0  0  0  0
    5.5210    1.6130  -19.9990 H   0  0  0  0  0  0
   -1.4296    3.5909  -26.9044 H   0  0  0  0  0  0
    0.5216    2.2201  -20.8252 H   0  0  0  0  0  0
    7.2845    0.6939  -21.8753 H   0  0  0  0  0  0
   -2.8893    3.7109  -28.3138 H   0  0  0  0  0  0
    6.9680    8.5530  -22.1350 O   0  0  0  0  0  0
    4.1180    8.9620  -20.3750 N   0  3  0  0  0  0
    6.1670   10.6360  -21.7310 N   0  0  0  0  0  0
    3.4860    7.7090  -20.9230 C   0  0  0  0  0  0
    5.6110    8.9320  -20.1820 C   0  0  0  0  0  0
    3.8060    7.4200  -22.4040 C   0  0  0  0  0  0
    6.3180    9.3330  -21.4540 C   0  0  0  0  0  0
    3.6758    9.2021  -19.5016 H   0  0  0  0  0  0
    3.8749    9.7422  -20.9651 H   0  0  0  0  0  0
    5.6198   11.2152  -21.1268 H   0  0  0  0  0  0
    6.6019   11.0279  -22.5418 H   0  0  0  0  0  0
    2.3955    7.7630  -20.7889 H   0  0  0  0  0  0
    3.7921    6.8486  -20.3097 H   0  0  0  0  0  0
    5.9232    7.9174  -19.8938 H   0  0  0  0  0  0
    5.8899    9.6247  -19.3743 H   0  0  0  0  0  0
    4.8959    7.4330  -22.5520 H   0  0  0  0  0  0
    3.3910    8.2229  -23.0310 H   0  0  0  0  0  0
  1  2  2  0  0  0
  1  3  1  0  0  0
  1 34  1  0  0  0
  2  6  1  0  0  0
  2 35  1  0  0  0
  3  5  2  0  0  0
  3 27  1  0  0  0
  4  5  1  0  0  0
  4  6  2  0  0  0
  4 18  1  0  0  0
  5 24  1  0  0  0
  6 10  1  0  0  0
  7 10  2  0  0  0
  7 23  1  0  0  0
  7 33  1  0  0  0
  8 21  1  0  0  0
  8 22  1  0  0  0
  8 36  1  0  0  0
  8 37  1  0  0  0
  9 21  1  0  0  0
  9 31  1  0  0  0
  9 38  1  0  0  0
  9 39  1  0  0  0
 10 40  1  0  0  0
 11 12  1  0  0  0
 11 14  2  0  0  0
 11 15  1  0  0  0
 12 17  1  0  0  0
 12 28  2  0  0  0
 13 28  1  0  0  0
 13 29  2  0  0  0
 13 57  1  0  0  0
 14 29  1  0  0  0
 14 31  1  0  0  0
 15 30  2  0  0  0
 15 41  1  0  0  0
 16 17  2  0  0  0
 16 18  1  0  0  0
 16 30  1  0  0  0
 17 26  1  0  0  0
 18 23  2  0  0  0
 19 20  1  0  0  0
 19 31  1  0  0  0
 19 42  1  0  0  0
 19 43  1  0  0  0
 20 22  1  0  0  0
 20 32  1  0  0  0
 20 44  1  0  0  0
 21 32  1  0  0  0
 21 45  1  0  0  0
 22 46  1  0  0  0
 22 47  1  0  0  0
 23 48  1  0  0  0
 24 25  3  0  0  0
 25 49  1  0  0  0
 32 50  1  0  0  0
 33 51  1  0  0  0
 52 58  2  0  0  0
 53 55  1  0  0  0
 53 56  1  0  0  0
 53 59  1  0  0  0
 53 60  1  0  0  0
 54 58  1  0  0  0
 54 61  1  0  0  0
 54 62  1  0  0  0
 55 57  1  0  0  0
 55 63  1  0  0  0
 55 64  1  0  0  0
 56 58  1  0  0  0
 56 65  1  0  0  0
 56 66  1  0  0  0
 57 67  1  0  0  0
 57 68  1  0  0  0
M  CHG  1  53   1
M  END
> <s_m_entry_id>
268

> <s_m_entry_name>
000000110.1

> <s_m_Source_Path>
/Users/zaksoul/Documents/3r_UNI/2nd_SEMESTER/BSC/FRAG_RECON/RESULTS/2

> <s_m_Source_File>
000000110.mol2

> <i_m_Source_File_Index>
1

$$$$
No_0_123
                    3D
 Schrodinger Suite 2022-4.
 68 73  0  0  1  0            999 V2000
   -5.3570    3.4060  -22.3810 C   0  0  0  0  0  0
   -5.5990    3.5510  -23.7270 C   0  0  0  0  0  0
   -4.1210    3.1960  -22.0070 C   0  0  0  0  0  0
   -3.1850    3.2870  -24.1560 C   0  0  0  0  0  0
   -3.0500    3.0860  -22.7260 C   0  0  0  0  0  0
   -4.5280    3.4990  -24.7130 C   0  0  0  0  0  0
   -3.7250    3.4810  -26.8940 C   0  0  0  0  0  0
    5.9020    3.1550  -21.4050 C   0  0  0  0  0  0
    5.8150    3.2240  -23.9590 C   0  0  0  0  0  0
   -4.7530    3.5830  -26.0560 C   0  0  0  0  0  0
    2.0190    3.6680  -24.0720 C   0  0  0  0  0  0
    1.1620    4.7620  -23.8220 C   0  0  0  0  0  0
    2.9130    6.0240  -23.1370 C   0  0  0  0  0  0
    3.4060    3.9060  -23.7350 C   0  0  0  0  0  0
    1.5170    2.5190  -24.7140 C   0  0  0  0  0  0
   -0.6330    3.2770  -24.6710 C   0  0  0  0  0  0
   -0.1520    4.5270  -24.0950 C   0  0  0  0  0  0
   -2.0770    3.2340  -25.0560 C   0  0  0  0  0  0
    4.0720    1.4340  -23.3610 C   0  0  0  0  0  0
    4.9890    1.1350  -22.1850 C   0  0  2  0  0  0
    6.5520    2.7030  -22.7300 C   0  0  2  0  0  0
    4.9190    2.1670  -21.0470 C   0  0  0  0  0  0
   -2.3760    3.3460  -26.4950 C   0  0  0  0  0  0
   -1.7080    2.7260  -22.0880 C   0  0  0  0  0  0
   -0.6800    2.4200  -21.5510 C   0  0  0  0  0  0
   -1.0290    5.5580  -23.7980 F   0  0  0  0  0  0
   -3.9340    2.9970  -20.6150 F   0  0  0  0  0  0
    1.5970    5.9470  -23.3120 N   0  0  0  0  0  0
    3.8390    5.0800  -23.3110 N   0  0  0  0  0  0
    0.2210    2.3860  -25.0440 N   0  0  0  0  0  0
    4.3560    2.8780  -23.8630 N   0  0  0  0  0  0
    6.4040    1.2270  -22.6390 N   0  0  1  0  0  0
   -3.8680    3.4540  -28.2870 O   0  0  0  0  0  0
   -6.1760    3.4672  -21.6735 H   0  0  0  0  0  0
   -6.6111    3.7096  -24.0814 H   0  0  0  0  0  0
    5.4076    4.1267  -21.5513 H   0  0  0  0  0  0
    6.6703    3.2075  -20.6195 H   0  0  0  0  0  0
    6.2419    2.7658  -24.8633 H   0  0  0  0  0  0
    5.9301    4.3163  -24.0196 H   0  0  0  0  0  0
   -5.7601    3.7316  -26.4285 H   0  0  0  0  0  0
    2.1846    1.7008  -24.9589 H   0  0  0  0  0  0
    3.0238    1.3583  -23.0361 H   0  0  0  0  0  0
    4.2708    0.7184  -24.1724 H   0  0  0  0  0  0
    4.7840    0.1274  -21.7943 H   0  0  0  0  0  0
    7.6141    2.9877  -22.7613 H   0  0  0  0  0  0
    3.9218    2.6313  -21.0379 H   0  0  0  0  0  0
    5.2125    1.6869  -20.1019 H   0  0  0  0  0  0
   -1.5893    3.3269  -27.2405 H   0  0  0  0  0  0
    0.2250    2.1510  -21.0780 H   0  0  0  0  0  0
    7.0488    0.7661  -21.9054 H   0  0  0  0  0  0
   -3.0120    3.3768  -28.6917 H   0  0  0  0  0  0
    6.4550    8.8400  -22.9750 O   0  0  0  0  0  0
    4.0050    8.8390  -20.6550 N   0  3  0  0  0  0
    5.5630   10.7980  -22.2600 N   0  0  0  0  0  0
    3.3940    7.5590  -21.1620 C   0  0  0  0  0  0
    5.5010    8.9590  -20.7680 C   0  0  0  0  0  0
    3.4260    7.3900  -22.6940 C   0  0  0  0  0  0
    5.8900    9.5050  -22.1200 C   0  0  0  0  0  0
    3.7317    8.9801  -19.6951 H   0  0  0  0  0  0
    3.5732    9.6206  -21.1227 H   0  0  0  0  0  0
    5.1001   11.2799  -21.5161 H   0  0  0  0  0  0
    5.7830   11.2800  -23.1081 H   0  0  0  0  0  0
    2.3543    7.4870  -20.8101 H   0  0  0  0  0  0
    3.8991    6.7029  -20.6909 H   0  0  0  0  0  0
    5.9603    7.9695  -20.6269 H   0  0  0  0  0  0
    5.8749    9.6308  -19.9813 H   0  0  0  0  0  0
    4.4555    7.5289  -23.0558 H   0  0  0  0  0  0
    2.8179    8.1781  -23.1621 H   0  0  0  0  0  0
  1  2  2  0  0  0
  1  3  1  0  0  0
  1 34  1  0  0  0
  2  6  1  0  0  0
  2 35  1  0  0  0
  3  5  2  0  0  0
  3 27  1  0  0  0
  4  5  1  0  0  0
  4  6  2  0  0  0
  4 18  1  0  0  0
  5 24  1  0  0  0
  6 10  1  0  0  0
  7 10  2  0  0  0
  7 23  1  0  0  0
  7 33  1  0  0  0
  8 21  1  0  0  0
  8 22  1  0  0  0
  8 36  1  0  0  0
  8 37  1  0  0  0
  9 21  1  0  0  0
  9 31  1  0  0  0
  9 38  1  0  0  0
  9 39  1  0  0  0
 10 40  1  0  0  0
 11 12  1  0  0  0
 11 14  2  0  0  0
 11 15  1  0  0  0
 12 17  1  0  0  0
 12 28  2  0  0  0
 13 28  1  0  0  0
 13 29  2  0  0  0
 13 57  1  0  0  0
 14 29  1  0  0  0
 14 31  1  0  0  0
 15 30  2  0  0  0
 15 41  1  0  0  0
 16 17  2  0  0  0
 16 18  1  0  0  0
 16 30  1  0  0  0
 17 26  1  0  0  0
 18 23  2  0  0  0
 19 20  1  0  0  0
 19 31  1  0  0  0
 19 42  1  0  0  0
 19 43  1  0  0  0
 20 22  1  0  0  0
 20 32  1  0  0  0
 20 44  1  0  0  0
 21 32  1  0  0  0
 21 45  1  0  0  0
 22 46  1  0  0  0
 22 47  1  0  0  0
 23 48  1  0  0  0
 24 25  3  0  0  0
 25 49  1  0  0  0
 32 50  1  0  0  0
 33 51  1  0  0  0
 52 58  2  0  0  0
 53 55  1  0  0  0
 53 56  1  0  0  0
 53 59  1  0  0  0
 53 60  1  0  0  0
 54 58  1  0  0  0
 54 61  1  0  0  0
 54 62  1  0  0  0
 55 57  1  0  0  0
 55 63  1  0  0  0
 55 64  1  0  0  0
 56 58  1  0  0  0
 56 65  1  0  0  0
 56 66  1  0  0  0
 57 67  1  0  0  0
 57 68  1  0  0  0
M  CHG  1  53   1
M  END
> <s_m_entry_id>
269

> <s_m_entry_name>
000000111.1

> <s_m_Source_Path>
/Users/zaksoul/Documents/3r_UNI/2nd_SEMESTER/BSC/FRAG_RECON/RESULTS/2

> <s_m_Source_File>
000000111.mol2

> <i_m_Source_File_Index>
1

$$$$
No_0_124
                    3D
 Schrodinger Suite 2022-4.
 68 73  0  0  1  0            999 V2000
   -5.2650    3.6760  -22.3650 C   0  0  0  0  0  0
   -5.4890    3.8610  -23.7090 C   0  0  0  0  0  0
   -4.0350    3.4420  -21.9830 C   0  0  0  0  0  0
   -3.0740    3.5830  -24.1180 C   0  0  0  0  0  0
   -2.9570    3.3400  -22.6930 C   0  0  0  0  0  0
   -4.4080    3.8250  -24.6830 C   0  0  0  0  0  0
   -3.5800    3.8590  -26.8550 C   0  0  0  0  0  0
    5.9790    3.2720  -21.2700 C   0  0  0  0  0  0
    5.9230    3.4130  -23.8230 C   0  0  0  0  0  0
   -4.6160    3.9490  -26.0270 C   0  0  0  0  0  0
    2.1330    3.9030  -23.9660 C   0  0  0  0  0  0
    1.2850    4.9990  -23.6940 C   0  0  0  0  0  0
    3.0410    6.2210  -22.9550 C   0  0  0  0  0  0
    3.5190    4.1150  -23.6060 C   0  0  0  0  0  0
    1.6260    2.7780  -24.6450 C   0  0  0  0  0  0
   -0.5160    3.5580  -24.6050 C   0  0  0  0  0  0
   -0.0280    4.7860  -23.9890 C   0  0  0  0  0  0
   -1.9570    3.5420  -25.0070 C   0  0  0  0  0  0
    4.1530    1.6270  -23.2950 C   0  0  0  0  0  0
    5.0530    1.2850  -22.1180 C   0  0  2  0  0  0
    6.6390    2.8500  -22.6010 C   0  0  2  0  0  0
    4.9810    2.2850  -20.9520 C   0  0  0  0  0  0
   -2.2370    3.6970  -26.4450 C   0  0  0  0  0  0
   -1.6270    2.9470  -22.0500 C   0  0  0  0  0  0
   -0.6080    2.6150  -21.5110 C   0  0  0  0  0  0
   -0.8970    5.8180  -23.6720 F   0  0  0  0  0  0
   -3.8660    3.2020  -20.5950 F   0  0  0  0  0  0
    1.7270    6.1640  -23.1470 N   0  0  0  0  0  0
    3.9590    5.2730  -23.1450 N   0  0  0  0  0  0
    0.3320    2.6680  -24.9930 N   0  0  0  0  0  0
    4.4580    3.0810  -23.7530 N   0  0  0  0  0  0
    6.4740    1.3730  -22.5530 N   0  0  1  0  0  0
   -3.7070    3.8720  -28.2500 O   0  0  0  0  0  0
   -6.0913    3.7262  -21.6652 H   0  0  0  0  0  0
   -6.4952    4.0406  -24.0701 H   0  0  0  0  0  0
    5.4964    4.2524  -21.3962 H   0  0  0  0  0  0
    6.7393    3.2932  -20.4754 H   0  0  0  0  0  0
    6.3540    2.9750  -24.7354 H   0  0  0  0  0  0
    6.0502    4.5053  -23.8513 H   0  0  0  0  0  0
   -5.6172    4.1185  -26.4062 H   0  0  0  0  0  0
    2.2866    1.9588  -24.9050 H   0  0  0  0  0  0
    3.1006    1.5544  -22.9832 H   0  0  0  0  0  0
    4.3528    0.9316  -24.1236 H   0  0  0  0  0  0
    4.8322    0.2696  -21.7570 H   0  0  0  0  0  0
    7.7044    3.1234  -22.6121 H   0  0  0  0  0  0
    3.9890    2.7603  -20.9409 H   0  0  0  0  0  0
    5.2585    1.7754  -20.0175 H   0  0  0  0  0  0
   -1.4425    3.6900  -27.1824 H   0  0  0  0  0  0
    0.2882    2.3229  -21.0349 H   0  0  0  0  0  0
    7.1054    0.8850  -21.8253 H   0  0  0  0  0  0
   -2.8477    3.7968  -28.6480 H   0  0  0  0  0  0
    6.3700    9.2800  -23.2140 O   0  0  0  0  0  0
    4.5030    8.8310  -20.4400 N   0  3  0  0  0  0
    5.5540   11.0710  -22.0880 N   0  0  0  0  0  0
    3.8660    7.5680  -20.9560 C   0  0  0  0  0  0
    5.9280    9.0840  -20.8560 C   0  0  0  0  0  0
    3.5640    7.5690  -22.4690 C   0  0  0  0  0  0
    5.9740    9.8020  -22.1820 C   0  0  0  0  0  0
    4.4431    8.8460  -19.4339 H   0  0  0  0  0  0
    3.9350    9.6211  -20.7030 H   0  0  0  0  0  0
    5.2422   11.4308  -21.2086 H   0  0  0  0  0  0
    5.5510   11.6589  -22.8969 H   0  0  0  0  0  0
    2.9368    7.3750  -20.3999 H   0  0  0  0  0  0
    4.5101    6.7098  -20.7139 H   0  0  0  0  0  0
    6.4601    8.1249  -20.9400 H   0  0  0  0  0  0
    6.4301    9.6942  -20.0908 H   0  0  0  0  0  0
    4.4782    7.8281  -23.0231 H   0  0  0  0  0  0
    2.8245    8.3516  -22.6942 H   0  0  0  0  0  0
  1  2  2  0  0  0
  1  3  1  0  0  0
  1 34  1  0  0  0
  2  6  1  0  0  0
  2 35  1  0  0  0
  3  5  2  0  0  0
  3 27  1  0  0  0
  4  5  1  0  0  0
  4  6  2  0  0  0
  4 18  1  0  0  0
  5 24  1  0  0  0
  6 10  1  0  0  0
  7 10  2  0  0  0
  7 23  1  0  0  0
  7 33  1  0  0  0
  8 21  1  0  0  0
  8 22  1  0  0  0
  8 36  1  0  0  0
  8 37  1  0  0  0
  9 21  1  0  0  0
  9 31  1  0  0  0
  9 38  1  0  0  0
  9 39  1  0  0  0
 10 40  1  0  0  0
 11 12  1  0  0  0
 11 14  2  0  0  0
 11 15  1  0  0  0
 12 17  1  0  0  0
 12 28  2  0  0  0
 13 28  1  0  0  0
 13 29  2  0  0  0
 13 57  1  0  0  0
 14 29  1  0  0  0
 14 31  1  0  0  0
 15 30  2  0  0  0
 15 41  1  0  0  0
 16 17  2  0  0  0
 16 18  1  0  0  0
 16 30  1  0  0  0
 17 26  1  0  0  0
 18 23  2  0  0  0
 19 20  1  0  0  0
 19 31  1  0  0  0
 19 42  1  0  0  0
 19 43  1  0  0  0
 20 22  1  0  0  0
 20 32  1  0  0  0
 20 44  1  0  0  0
 21 32  1  0  0  0
 21 45  1  0  0  0
 22 46  1  0  0  0
 22 47  1  0  0  0
 23 48  1  0  0  0
 24 25  3  0  0  0
 25 49  1  0  0  0
 32 50  1  0  0  0
 33 51  1  0  0  0
 52 58  2  0  0  0
 53 55  1  0  0  0
 53 56  1  0  0  0
 53 59  1  0  0  0
 53 60  1  0  0  0
 54 58  1  0  0  0
 54 61  1  0  0  0
 54 62  1  0  0  0
 55 57  1  0  0  0
 55 63  1  0  0  0
 55 64  1  0  0  0
 56 58  1  0  0  0
 56 65  1  0  0  0
 56 66  1  0  0  0
 57 67  1  0  0  0
 57 68  1  0  0  0
M  CHG  1  53   1
M  END
> <s_m_entry_id>
270

> <s_m_entry_name>
000000112.1

> <s_m_Source_Path>
/Users/zaksoul/Documents/3r_UNI/2nd_SEMESTER/BSC/FRAG_RECON/RESULTS/2

> <s_m_Source_File>
000000112.mol2

> <i_m_Source_File_Index>
1

$$$$
No_0_125
                    3D
 Schrodinger Suite 2022-4.
 68 73  0  0  1  0            999 V2000
   -5.1810    3.6090  -21.8530 C   0  0  0  0  0  0
   -5.4520    3.8050  -23.1860 C   0  0  0  0  0  0
   -3.9420    3.3510  -21.5190 C   0  0  0  0  0  0
   -3.0590    3.4860  -23.6870 C   0  0  0  0  0  0
   -2.8930    3.2340  -22.2690 C   0  0  0  0  0  0
   -4.4090    3.7540  -24.2010 C   0  0  0  0  0  0
   -3.6630    3.7850  -26.4030 C   0  0  0  0  0  0
    6.0870    3.0010  -21.1820 C   0  0  0  0  0  0
    5.9380    3.1560  -23.7310 C   0  0  0  0  0  0
   -4.6650    3.8890  -25.5350 C   0  0  0  0  0  0
    2.1540    3.7130  -23.7290 C   0  0  0  0  0  0
    1.3370    4.8230  -23.4210 C   0  0  0  0  0  0
    3.1410    6.0110  -22.7430 C   0  0  0  0  0  0
    3.5570    3.8990  -23.4210 C   0  0  0  0  0  0
    1.6030    2.6010  -24.3930 C   0  0  0  0  0  0
   -0.5220    3.4190  -24.2700 C   0  0  0  0  0  0
    0.0100    4.6350  -23.6670 C   0  0  0  0  0  0
   -1.9770    3.4300  -24.6180 C   0  0  0  0  0  0
    4.1570    1.3990  -23.1440 C   0  0  0  0  0  0
    5.0950    1.0350  -22.0030 C   0  0  2  0  0  0
    6.6890    2.5740  -22.5390 C   0  0  2  0  0  0
    5.0840    2.0310  -20.8310 C   0  0  0  0  0  0
   -2.3080    3.5970  -26.0440 C   0  0  0  0  0  0
   -1.5470    2.8150  -21.6780 C   0  0  0  0  0  0
   -0.5150    2.4620  -21.1780 C   0  0  0  0  0  0
   -0.8280    5.6800  -23.3140 F   0  0  0  0  0  0
   -3.7260    3.1020  -20.1390 F   0  0  0  0  0  0
    1.8200    5.9780  -22.8860 N   0  0  0  0  0  0
    4.0350    5.0470  -22.9720 N   0  0  0  0  0  0
    0.2950    2.5160  -24.6930 N   0  0  0  0  0  0
    4.4710    2.8500  -23.6070 N   0  0  0  0  0  0
    6.5000    1.1010  -22.4910 N   0  0  1  0  0  0
   -3.8410    3.8060  -27.7920 O   0  0  0  0  0  0
   -5.9796    3.6712  -21.1226 H   0  0  0  0  0  0
   -6.4675    4.0037  -23.5091 H   0  0  0  0  0  0
    5.6179    3.9906  -21.2849 H   0  0  0  0  0  0
    6.8763    3.0060  -20.4159 H   0  0  0  0  0  0
    6.3275    2.7150  -24.6604 H   0  0  0  0  0  0
    6.0833    4.2460  -23.7593 H   0  0  0  0  0  0
   -5.6765    4.0776  -25.8762 H   0  0  0  0  0  0
    2.2385    1.7718  -24.6821 H   0  0  0  0  0  0
    3.1157    1.3435  -22.7939 H   0  0  0  0  0  0
    4.3144    0.7047  -23.9826 H   0  0  0  0  0  0
    4.8700    0.0218  -21.6387 H   0  0  0  0  0  0
    7.7578    2.8293  -22.5885 H   0  0  0  0  0  0
    4.1018    2.5236  -20.7805 H   0  0  0  0  0  0
    5.3877    1.5123  -19.9097 H   0  0  0  0  0  0
   -1.5411    3.5789  -26.8099 H   0  0  0  0  0  0
    0.3934    2.1519  -20.7378 H   0  0  0  0  0  0
    7.1492    0.5983  -21.7894 H   0  0  0  0  0  0
   -2.9984    3.7179  -28.2217 H   0  0  0  0  0  0
    5.5100    9.7020  -23.8680 O   0  0  0  0  0  0
    5.4440    8.4490  -20.7370 N   0  3  0  0  0  0
    5.2390   11.0860  -22.0930 N   0  0  0  0  0  0
    4.7590    7.1750  -21.1570 C   0  0  0  0  0  0
    6.4010    9.0560  -21.7280 C   0  0  0  0  0  0
    3.7060    7.3460  -22.2710 C   0  0  0  0  0  0
    5.6690    9.9640  -22.6850 C   0  0  0  0  0  0
    5.9235    8.2951  -19.8638 H   0  0  0  0  0  0
    4.7477    9.1333  -20.4859 H   0  0  0  0  0  0
    5.4050   11.2330  -21.1179 H   0  0  0  0  0  0
    4.7515   11.7773  -22.6264 H   0  0  0  0  0  0
    4.2878    6.7078  -20.2797 H   0  0  0  0  0  0
    5.5149    6.4441  -21.4800 H   0  0  0  0  0  0
    6.9007    8.2544  -22.2917 H   0  0  0  0  0  0
    7.1678    9.6328  -21.1901 H   0  0  0  0  0  0
    4.1579    7.8738  -23.1238 H   0  0  0  0  0  0
    2.8859    7.9811  -21.9049 H   0  0  0  0  0  0
  1  2  2  0  0  0
  1  3  1  0  0  0
  1 34  1  0  0  0
  2  6  1  0  0  0
  2 35  1  0  0  0
  3  5  2  0  0  0
  3 27  1  0  0  0
  4  5  1  0  0  0
  4  6  2  0  0  0
  4 18  1  0  0  0
  5 24  1  0  0  0
  6 10  1  0  0  0
  7 10  2  0  0  0
  7 23  1  0  0  0
  7 33  1  0  0  0
  8 21  1  0  0  0
  8 22  1  0  0  0
  8 36  1  0  0  0
  8 37  1  0  0  0
  9 21  1  0  0  0
  9 31  1  0  0  0
  9 38  1  0  0  0
  9 39  1  0  0  0
 10 40  1  0  0  0
 11 12  1  0  0  0
 11 14  2  0  0  0
 11 15  1  0  0  0
 12 17  1  0  0  0
 12 28  2  0  0  0
 13 28  1  0  0  0
 13 29  2  0  0  0
 13 57  1  0  0  0
 14 29  1  0  0  0
 14 31  1  0  0  0
 15 30  2  0  0  0
 15 41  1  0  0  0
 16 17  2  0  0  0
 16 18  1  0  0  0
 16 30  1  0  0  0
 17 26  1  0  0  0
 18 23  2  0  0  0
 19 20  1  0  0  0
 19 31  1  0  0  0
 19 42  1  0  0  0
 19 43  1  0  0  0
 20 22  1  0  0  0
 20 32  1  0  0  0
 20 44  1  0  0  0
 21 32  1  0  0  0
 21 45  1  0  0  0
 22 46  1  0  0  0
 22 47  1  0  0  0
 23 48  1  0  0  0
 24 25  3  0  0  0
 25 49  1  0  0  0
 32 50  1  0  0  0
 33 51  1  0  0  0
 52 58  2  0  0  0
 53 55  1  0  0  0
 53 56  1  0  0  0
 53 59  1  0  0  0
 53 60  1  0  0  0
 54 58  1  0  0  0
 54 61  1  0  0  0
 54 62  1  0  0  0
 55 57  1  0  0  0
 55 63  1  0  0  0
 55 64  1  0  0  0
 56 58  1  0  0  0
 56 65  1  0  0  0
 56 66  1  0  0  0
 57 67  1  0  0  0
 57 68  1  0  0  0
M  CHG  1  53   1
M  END
> <s_m_entry_id>
271

> <s_m_entry_name>
000000113.1

> <s_m_Source_Path>
/Users/zaksoul/Documents/3r_UNI/2nd_SEMESTER/BSC/FRAG_RECON/RESULTS/2

> <s_m_Source_File>
000000113.mol2

> <i_m_Source_File_Index>
1

$$$$
No_0_126
                    3D
 Schrodinger Suite 2022-4.
 68 73  0  0  1  0            999 V2000
   -5.1810    3.6090  -21.8530 C   0  0  0  0  0  0
   -5.4520    3.8050  -23.1860 C   0  0  0  0  0  0
   -3.9420    3.3510  -21.5190 C   0  0  0  0  0  0
   -3.0590    3.4860  -23.6870 C   0  0  0  0  0  0
   -2.8930    3.2340  -22.2690 C   0  0  0  0  0  0
   -4.4090    3.7540  -24.2010 C   0  0  0  0  0  0
   -3.6630    3.7850  -26.4030 C   0  0  0  0  0  0
    6.0870    3.0010  -21.1820 C   0  0  0  0  0  0
    5.9380    3.1560  -23.7310 C   0  0  0  0  0  0
   -4.6650    3.8890  -25.5350 C   0  0  0  0  0  0
    2.1540    3.7130  -23.7290 C   0  0  0  0  0  0
    1.3370    4.8230  -23.4210 C   0  0  0  0  0  0
    3.1410    6.0110  -22.7430 C   0  0  0  0  0  0
    3.5570    3.8990  -23.4210 C   0  0  0  0  0  0
    1.6030    2.6010  -24.3930 C   0  0  0  0  0  0
   -0.5220    3.4190  -24.2700 C   0  0  0  0  0  0
    0.0100    4.6350  -23.6670 C   0  0  0  0  0  0
   -1.9770    3.4300  -24.6180 C   0  0  0  0  0  0
    4.1570    1.3990  -23.1440 C   0  0  0  0  0  0
    5.0950    1.0350  -22.0030 C   0  0  2  0  0  0
    6.6890    2.5740  -22.5390 C   0  0  2  0  0  0
    5.0840    2.0310  -20.8310 C   0  0  0  0  0  0
   -2.3080    3.5970  -26.0440 C   0  0  0  0  0  0
   -1.5470    2.8150  -21.6780 C   0  0  0  0  0  0
   -0.5150    2.4620  -21.1780 C   0  0  0  0  0  0
   -0.8280    5.6800  -23.3140 F   0  0  0  0  0  0
   -3.7260    3.1020  -20.1390 F   0  0  0  0  0  0
    1.8200    5.9780  -22.8860 N   0  0  0  0  0  0
    4.0350    5.0470  -22.9720 N   0  0  0  0  0  0
    0.2950    2.5160  -24.6930 N   0  0  0  0  0  0
    4.4710    2.8500  -23.6070 N   0  0  0  0  0  0
    6.5000    1.1010  -22.4910 N   0  0  1  0  0  0
   -3.8410    3.8060  -27.7920 O   0  0  0  0  0  0
   -5.9796    3.6712  -21.1226 H   0  0  0  0  0  0
   -6.4675    4.0037  -23.5091 H   0  0  0  0  0  0
    5.6179    3.9906  -21.2849 H   0  0  0  0  0  0
    6.8763    3.0060  -20.4159 H   0  0  0  0  0  0
    6.3275    2.7150  -24.6604 H   0  0  0  0  0  0
    6.0833    4.2460  -23.7593 H   0  0  0  0  0  0
   -5.6765    4.0776  -25.8762 H   0  0  0  0  0  0
    2.2385    1.7718  -24.6821 H   0  0  0  0  0  0
    3.1157    1.3435  -22.7939 H   0  0  0  0  0  0
    4.3144    0.7047  -23.9826 H   0  0  0  0  0  0
    4.8700    0.0218  -21.6387 H   0  0  0  0  0  0
    7.7578    2.8293  -22.5885 H   0  0  0  0  0  0
    4.1018    2.5236  -20.7805 H   0  0  0  0  0  0
    5.3877    1.5123  -19.9097 H   0  0  0  0  0  0
   -1.5411    3.5789  -26.8099 H   0  0  0  0  0  0
    0.3934    2.1519  -20.7378 H   0  0  0  0  0  0
    7.1492    0.5983  -21.7894 H   0  0  0  0  0  0
   -2.9984    3.7179  -28.2217 H   0  0  0  0  0  0
    4.9260    9.9860  -23.9730 O   0  0  0  0  0  0
    5.6710    8.4660  -21.0550 N   0  3  0  0  0  0
    4.9760   11.1810  -22.0470 N   0  0  0  0  0  0
    4.9970    7.1760  -21.4440 C   0  0  0  0  0  0
    6.3290    9.2410  -22.1650 C   0  0  0  0  0  0
    3.7060    7.3460  -22.2710 C   0  0  0  0  0  0
    5.3350   10.1580  -22.8350 C   0  0  0  0  0  0
    6.3483    8.2809  -20.3317 H   0  0  0  0  0  0
    5.0050    9.0590  -20.5850 H   0  0  0  0  0  0
    5.3522   11.2570  -21.1236 H   0  0  0  0  0  0
    4.3329   11.8691  -22.3831 H   0  0  0  0  0  0
    4.7739    6.5938  -20.5377 H   0  0  0  0  0  0
    5.7070    6.5480  -22.0020 H   0  0  0  0  0  0
    6.7387    8.5404  -22.9075 H   0  0  0  0  0  0
    7.1582    9.8362  -21.7549 H   0  0  0  0  0  0
    3.9119    7.9847  -23.1426 H   0  0  0  0  0  0
    2.9508    7.8701  -21.6669 H   0  0  0  0  0  0
  1  2  2  0  0  0
  1  3  1  0  0  0
  1 34  1  0  0  0
  2  6  1  0  0  0
  2 35  1  0  0  0
  3  5  2  0  0  0
  3 27  1  0  0  0
  4  5  1  0  0  0
  4  6  2  0  0  0
  4 18  1  0  0  0
  5 24  1  0  0  0
  6 10  1  0  0  0
  7 10  2  0  0  0
  7 23  1  0  0  0
  7 33  1  0  0  0
  8 21  1  0  0  0
  8 22  1  0  0  0
  8 36  1  0  0  0
  8 37  1  0  0  0
  9 21  1  0  0  0
  9 31  1  0  0  0
  9 38  1  0  0  0
  9 39  1  0  0  0
 10 40  1  0  0  0
 11 12  1  0  0  0
 11 14  2  0  0  0
 11 15  1  0  0  0
 12 17  1  0  0  0
 12 28  2  0  0  0
 13 28  1  0  0  0
 13 29  2  0  0  0
 13 57  1  0  0  0
 14 29  1  0  0  0
 14 31  1  0  0  0
 15 30  2  0  0  0
 15 41  1  0  0  0
 16 17  2  0  0  0
 16 18  1  0  0  0
 16 30  1  0  0  0
 17 26  1  0  0  0
 18 23  2  0  0  0
 19 20  1  0  0  0
 19 31  1  0  0  0
 19 42  1  0  0  0
 19 43  1  0  0  0
 20 22  1  0  0  0
 20 32  1  0  0  0
 20 44  1  0  0  0
 21 32  1  0  0  0
 21 45  1  0  0  0
 22 46  1  0  0  0
 22 47  1  0  0  0
 23 48  1  0  0  0
 24 25  3  0  0  0
 25 49  1  0  0  0
 32 50  1  0  0  0
 33 51  1  0  0  0
 52 58  2  0  0  0
 53 55  1  0  0  0
 53 56  1  0  0  0
 53 59  1  0  0  0
 53 60  1  0  0  0
 54 58  1  0  0  0
 54 61  1  0  0  0
 54 62  1  0  0  0
 55 57  1  0  0  0
 55 63  1  0  0  0
 55 64  1  0  0  0
 56 58  1  0  0  0
 56 65  1  0  0  0
 56 66  1  0  0  0
 57 67  1  0  0  0
 57 68  1  0  0  0
M  CHG  1  53   1
M  END
> <s_m_entry_id>
272

> <s_m_entry_name>
000000114.1

> <s_m_Source_Path>
/Users/zaksoul/Documents/3r_UNI/2nd_SEMESTER/BSC/FRAG_RECON/RESULTS/2

> <s_m_Source_File>
000000114.mol2

> <i_m_Source_File_Index>
1

$$$$
No_0_127
                    3D
 Schrodinger Suite 2022-4.
 68 73  0  0  1  0            999 V2000
   -5.1810    3.6090  -21.8530 C   0  0  0  0  0  0
   -5.4520    3.8050  -23.1860 C   0  0  0  0  0  0
   -3.9420    3.3510  -21.5190 C   0  0  0  0  0  0
   -3.0590    3.4860  -23.6870 C   0  0  0  0  0  0
   -2.8930    3.2340  -22.2690 C   0  0  0  0  0  0
   -4.4090    3.7540  -24.2010 C   0  0  0  0  0  0
   -3.6630    3.7850  -26.4030 C   0  0  0  0  0  0
    6.0870    3.0010  -21.1820 C   0  0  0  0  0  0
    5.9380    3.1560  -23.7310 C   0  0  0  0  0  0
   -4.6650    3.8890  -25.5350 C   0  0  0  0  0  0
    2.1540    3.7130  -23.7290 C   0  0  0  0  0  0
    1.3370    4.8230  -23.4210 C   0  0  0  0  0  0
    3.1410    6.0110  -22.7430 C   0  0  0  0  0  0
    3.5570    3.8990  -23.4210 C   0  0  0  0  0  0
    1.6030    2.6010  -24.3930 C   0  0  0  0  0  0
   -0.5220    3.4190  -24.2700 C   0  0  0  0  0  0
    0.0100    4.6350  -23.6670 C   0  0  0  0  0  0
   -1.9770    3.4300  -24.6180 C   0  0  0  0  0  0
    4.1570    1.3990  -23.1440 C   0  0  0  0  0  0
    5.0950    1.0350  -22.0030 C   0  0  2  0  0  0
    6.6890    2.5740  -22.5390 C   0  0  2  0  0  0
    5.0840    2.0310  -20.8310 C   0  0  0  0  0  0
   -2.3080    3.5970  -26.0440 C   0  0  0  0  0  0
   -1.5470    2.8150  -21.6780 C   0  0  0  0  0  0
   -0.5150    2.4620  -21.1780 C   0  0  0  0  0  0
   -0.8280    5.6800  -23.3140 F   0  0  0  0  0  0
   -3.7260    3.1020  -20.1390 F   0  0  0  0  0  0
    1.8200    5.9780  -22.8860 N   0  0  0  0  0  0
    4.0350    5.0470  -22.9720 N   0  0  0  0  0  0
    0.2950    2.5160  -24.6930 N   0  0  0  0  0  0
    4.4710    2.8500  -23.6070 N   0  0  0  0  0  0
    6.5000    1.1010  -22.4910 N   0  0  1  0  0  0
   -3.8410    3.8060  -27.7920 O   0  0  0  0  0  0
   -5.9796    3.6712  -21.1226 H   0  0  0  0  0  0
   -6.4675    4.0037  -23.5091 H   0  0  0  0  0  0
    5.6179    3.9906  -21.2849 H   0  0  0  0  0  0
    6.8763    3.0060  -20.4159 H   0  0  0  0  0  0
    6.3275    2.7150  -24.6604 H   0  0  0  0  0  0
    6.0833    4.2460  -23.7593 H   0  0  0  0  0  0
   -5.6765    4.0776  -25.8762 H   0  0  0  0  0  0
    2.2385    1.7718  -24.6821 H   0  0  0  0  0  0
    3.1157    1.3435  -22.7939 H   0  0  0  0  0  0
    4.3144    0.7047  -23.9826 H   0  0  0  0  0  0
    4.8700    0.0218  -21.6387 H   0  0  0  0  0  0
    7.7578    2.8293  -22.5885 H   0  0  0  0  0  0
    4.1018    2.5236  -20.7805 H   0  0  0  0  0  0
    5.3877    1.5123  -19.9097 H   0  0  0  0  0  0
   -1.5411    3.5789  -26.8099 H   0  0  0  0  0  0
    0.3934    2.1519  -20.7378 H   0  0  0  0  0  0
    7.1492    0.5983  -21.7894 H   0  0  0  0  0  0
   -2.9984    3.7179  -28.2217 H   0  0  0  0  0  0
    4.3150   10.2240  -23.9150 O   0  0  0  0  0  0
    5.8160    8.5310  -21.4120 N   0  3  0  0  0  0
    4.7260   11.2470  -21.9340 N   0  0  0  0  0  0
    5.1610    7.2230  -21.7750 C   0  0  0  0  0  0
    6.1460    9.4560  -22.5540 C   0  0  0  0  0  0
    3.7060    7.3460  -22.2710 C   0  0  0  0  0  0
    4.9630   10.3330  -22.8850 C   0  0  0  0  0  0
    6.6533    8.3469  -20.8818 H   0  0  0  0  0  0
    5.2376    9.0183  -20.7456 H   0  0  0  0  0  0
    5.2983   11.2770  -21.1145 H   0  0  0  0  0  0
    3.9764   11.8997  -22.0439 H   0  0  0  0  0  0
    5.1940    6.5469  -20.9079 H   0  0  0  0  0  0
    5.7650    6.7130  -22.5400 H   0  0  0  0  0  0
    6.4211    8.8627  -23.4385 H   0  0  0  0  0  0
    7.0034   10.0873  -22.2779 H   0  0  0  0  0  0
    3.6610    8.0737  -23.0947 H   0  0  0  0  0  0
    3.0759    7.7440  -21.4619 H   0  0  0  0  0  0
  1  2  2  0  0  0
  1  3  1  0  0  0
  1 34  1  0  0  0
  2  6  1  0  0  0
  2 35  1  0  0  0
  3  5  2  0  0  0
  3 27  1  0  0  0
  4  5  1  0  0  0
  4  6  2  0  0  0
  4 18  1  0  0  0
  5 24  1  0  0  0
  6 10  1  0  0  0
  7 10  2  0  0  0
  7 23  1  0  0  0
  7 33  1  0  0  0
  8 21  1  0  0  0
  8 22  1  0  0  0
  8 36  1  0  0  0
  8 37  1  0  0  0
  9 21  1  0  0  0
  9 31  1  0  0  0
  9 38  1  0  0  0
  9 39  1  0  0  0
 10 40  1  0  0  0
 11 12  1  0  0  0
 11 14  2  0  0  0
 11 15  1  0  0  0
 12 17  1  0  0  0
 12 28  2  0  0  0
 13 28  1  0  0  0
 13 29  2  0  0  0
 13 57  1  0  0  0
 14 29  1  0  0  0
 14 31  1  0  0  0
 15 30  2  0  0  0
 15 41  1  0  0  0
 16 17  2  0  0  0
 16 18  1  0  0  0
 16 30  1  0  0  0
 17 26  1  0  0  0
 18 23  2  0  0  0
 19 20  1  0  0  0
 19 31  1  0  0  0
 19 42  1  0  0  0
 19 43  1  0  0  0
 20 22  1  0  0  0
 20 32  1  0  0  0
 20 44  1  0  0  0
 21 32  1  0  0  0
 21 45  1  0  0  0
 22 46  1  0  0  0
 22 47  1  0  0  0
 23 48  1  0  0  0
 24 25  3  0  0  0
 25 49  1  0  0  0
 32 50  1  0  0  0
 33 51  1  0  0  0
 52 58  2  0  0  0
 53 55  1  0  0  0
 53 56  1  0  0  0
 53 59  1  0  0  0
 53 60  1  0  0  0
 54 58  1  0  0  0
 54 61  1  0  0  0
 54 62  1  0  0  0
 55 57  1  0  0  0
 55 63  1  0  0  0
 55 64  1  0  0  0
 56 58  1  0  0  0
 56 65  1  0  0  0
 56 66  1  0  0  0
 57 67  1  0  0  0
 57 68  1  0  0  0
M  CHG  1  53   1
M  END
> <s_m_entry_id>
273

> <s_m_entry_name>
000000115.1

> <s_m_Source_Path>
/Users/zaksoul/Documents/3r_UNI/2nd_SEMESTER/BSC/FRAG_RECON/RESULTS/2

> <s_m_Source_File>
000000115.mol2

> <i_m_Source_File_Index>
1

$$$$
No_0_128
                    3D
 Schrodinger Suite 2022-4.
 68 73  0  0  1  0            999 V2000
   -5.3440    3.3400  -21.9360 C   0  0  0  0  0  0
   -5.5990    3.5380  -23.2720 C   0  0  0  0  0  0
   -4.1040    3.1120  -21.5830 C   0  0  0  0  0  0
   -3.1910    3.2850  -23.7360 C   0  0  0  0  0  0
   -3.0410    3.0280  -22.3170 C   0  0  0  0  0  0
   -4.5380    3.5220  -24.2700 C   0  0  0  0  0  0
   -3.7590    3.5890  -26.4590 C   0  0  0  0  0  0
    5.9240    3.0210  -21.0880 C   0  0  0  0  0  0
    5.8110    3.1910  -23.6370 C   0  0  0  0  0  0
   -4.7770    3.6600  -25.6070 C   0  0  0  0  0  0
    2.0150    3.6490  -23.6920 C   0  0  0  0  0  0
    1.1640    4.7350  -23.3900 C   0  0  0  0  0  0
    2.9260    5.9640  -22.6740 C   0  0  0  0  0  0
    3.4070    3.8700  -23.3600 C   0  0  0  0  0  0
    1.5030    2.5280  -24.3730 C   0  0  0  0  0  0
   -0.6440    3.2890  -24.2780 C   0  0  0  0  0  0
   -0.1540    4.5140  -23.6590 C   0  0  0  0  0  0
   -2.0930    3.2650  -24.6500 C   0  0  0  0  0  0
    4.0680    1.3830  -23.0910 C   0  0  0  0  0  0
    4.9970    1.0360  -21.9380 C   0  0  2  0  0  0
    6.5590    2.6200  -22.4370 C   0  0  2  0  0  0
    4.9410    2.0220  -20.7590 C   0  0  0  0  0  0
   -2.4050    3.4340  -26.0790 C   0  0  0  0  0  0
   -1.6940    2.6390  -21.7080 C   0  0  0  0  0  0
   -0.6620    2.3100  -21.1940 C   0  0  0  0  0  0
   -1.0240    5.5350  -23.3120 F   0  0  0  0  0  0
   -3.9040    2.8580  -20.2020 F   0  0  0  0  0  0
    1.6080    5.8980  -22.8390 N   0  0  0  0  0  0
    3.8470    5.0260  -22.8950 N   0  0  0  0  0  0
    0.2030    2.4110  -24.6950 N   0  0  0  0  0  0
    4.3510    2.8460  -23.5390 N   0  0  0  0  0  0
    6.4070    1.1420  -22.4030 N   0  0  1  0  0  0
   -3.9160    3.6160  -27.8500 O   0  0  0  0  0  0
   -6.1558    3.3751  -21.2185 H   0  0  0  0  0  0
   -6.6139    3.7127  -23.6103 H   0  0  0  0  0  0
    5.4306    3.9987  -21.1909 H   0  0  0  0  0  0
    6.7002    3.0412  -20.3088 H   0  0  0  0  0  0
    6.2270    2.7670  -24.5628 H   0  0  0  0  0  0
    5.9280    4.2846  -23.6552 H   0  0  0  0  0  0
   -5.7873    3.8255  -25.9632 H   0  0  0  0  0  0
    2.1653    1.7182  -24.6570 H   0  0  0  0  0  0
    3.0231    1.2982  -22.7578 H   0  0  0  0  0  0
    4.2568    0.6995  -23.9320 H   0  0  0  0  0  0
    4.7922    0.0149  -21.5838 H   0  0  0  0  0  0
    7.6213    2.9038  -22.4683 H   0  0  0  0  0  0
    3.9459    2.4893  -20.7217 H   0  0  0  0  0  0
    5.2428    1.5043  -19.8366 H   0  0  0  0  0  0
   -1.6266    3.4420  -26.8334 H   0  0  0  0  0  0
    0.2471    2.0203  -20.7415 H   0  0  0  0  0  0
    7.0579    0.6514  -21.6944 H   0  0  0  0  0  0
   -3.0644    3.5537  -28.2664 H   0  0  0  0  0  0
    3.4030   10.3730  -23.5880 O   0  0  0  0  0  0
    5.5690    8.6560  -21.6530 N   0  3  0  0  0  0
    4.1340   11.2600  -21.6330 N   0  0  0  0  0  0
    4.9800    7.3170  -22.0150 C   0  0  0  0  0  0
    5.5510    9.7100  -22.7280 C   0  0  0  0  0  0
    3.4480    7.3100  -22.1840 C   0  0  0  0  0  0
    4.2460   10.4670  -22.7080 C   0  0  0  0  0  0
    6.5150    8.5260  -21.3300 H   0  0  0  0  0  0
    5.1048    9.0111  -20.8317 H   0  0  0  0  0  0
    4.8655   11.2850  -20.9516 H   0  0  0  0  0  0
    3.3182   11.8258  -21.5130 H   0  0  0  0  0  0
    5.2662    6.5755  -21.2545 H   0  0  0  0  0  0
    5.4499    6.9511  -22.9398 H   0  0  0  0  0  0
    5.6841    9.2337  -23.7106 H   0  0  0  0  0  0
    6.3836   10.4106  -22.5671 H   0  0  0  0  0  0
    3.1540    8.0970  -22.8940 H   0  0  0  0  0  0
    2.9732    7.5589  -21.2235 H   0  0  0  0  0  0
  1  2  2  0  0  0
  1  3  1  0  0  0
  1 34  1  0  0  0
  2  6  1  0  0  0
  2 35  1  0  0  0
  3  5  2  0  0  0
  3 27  1  0  0  0
  4  5  1  0  0  0
  4  6  2  0  0  0
  4 18  1  0  0  0
  5 24  1  0  0  0
  6 10  1  0  0  0
  7 10  2  0  0  0
  7 23  1  0  0  0
  7 33  1  0  0  0
  8 21  1  0  0  0
  8 22  1  0  0  0
  8 36  1  0  0  0
  8 37  1  0  0  0
  9 21  1  0  0  0
  9 31  1  0  0  0
  9 38  1  0  0  0
  9 39  1  0  0  0
 10 40  1  0  0  0
 11 12  1  0  0  0
 11 14  2  0  0  0
 11 15  1  0  0  0
 12 17  1  0  0  0
 12 28  2  0  0  0
 13 28  1  0  0  0
 13 29  2  0  0  0
 13 57  1  0  0  0
 14 29  1  0  0  0
 14 31  1  0  0  0
 15 30  2  0  0  0
 15 41  1  0  0  0
 16 17  2  0  0  0
 16 18  1  0  0  0
 16 30  1  0  0  0
 17 26  1  0  0  0
 18 23  2  0  0  0
 19 20  1  0  0  0
 19 31  1  0  0  0
 19 42  1  0  0  0
 19 43  1  0  0  0
 20 22  1  0  0  0
 20 32  1  0  0  0
 20 44  1  0  0  0
 21 32  1  0  0  0
 21 45  1  0  0  0
 22 46  1  0  0  0
 22 47  1  0  0  0
 23 48  1  0  0  0
 24 25  3  0  0  0
 25 49  1  0  0  0
 32 50  1  0  0  0
 33 51  1  0  0  0
 52 58  2  0  0  0
 53 55  1  0  0  0
 53 56  1  0  0  0
 53 59  1  0  0  0
 53 60  1  0  0  0
 54 58  1  0  0  0
 54 61  1  0  0  0
 54 62  1  0  0  0
 55 57  1  0  0  0
 55 63  1  0  0  0
 55 64  1  0  0  0
 56 58  1  0  0  0
 56 65  1  0  0  0
 56 66  1  0  0  0
 57 67  1  0  0  0
 57 68  1  0  0  0
M  CHG  1  53   1
M  END
> <s_m_entry_id>
274

> <s_m_entry_name>
000000116.1

> <s_m_Source_Path>
/Users/zaksoul/Documents/3r_UNI/2nd_SEMESTER/BSC/FRAG_RECON/RESULTS/2

> <s_m_Source_File>
000000116.mol2

> <i_m_Source_File_Index>
1

$$$$
No_0_129
                    3D
 Schrodinger Suite 2022-4.
 72 78  0  0  1  0            999 V2000
   -4.8060    3.9350  -21.7560 C   0  0  0  0  0  0
   -5.1080    4.1030  -23.0870 C   0  0  0  0  0  0
   -3.5640    3.6610  -21.4480 C   0  0  0  0  0  0
   -2.7360    3.7230  -23.6410 C   0  0  0  0  0  0
   -2.5380    3.5030  -22.2210 C   0  0  0  0  0  0
   -4.0930    4.0060  -24.1270 C   0  0  0  0  0  0
   -3.4050    3.9660  -26.3470 C   0  0  0  0  0  0
    6.4610    3.1140  -21.3610 C   0  0  0  0  0  0
    6.2490    3.2090  -23.9070 C   0  0  0  0  0  0
   -4.3820    4.1120  -25.4560 C   0  0  0  0  0  0
    2.4780    3.8430  -23.8230 C   0  0  0  0  0  0
    1.6920    4.9760  -23.5220 C   0  0  0  0  0  0
    3.5360    6.1430  -22.9210 C   0  0  0  0  0  0
    3.8910    4.0080  -23.5560 C   0  0  0  0  0  0
    1.8870    2.7260  -24.4440 C   0  0  0  0  0  0
   -0.2170    3.5900  -24.2870 C   0  0  0  0  0  0
    0.3550    4.8090  -23.7290 C   0  0  0  0  0  0
   -1.6800    3.6220  -24.5970 C   0  0  0  0  0  0
    4.4500    1.5030  -23.2300 C   0  0  0  0  0  0
    5.4100    1.1490  -22.1050 C   0  0  2  0  0  0
    7.0200    2.6420  -22.7210 C   0  0  2  0  0  0
    5.4500    2.1740  -20.9590 C   0  0  0  0  0  0
   -2.0450    3.7600  -26.0180 C   0  0  0  0  0  0
   -1.1850    3.0710  -21.6550 C   0  0  0  0  0  0
   -0.1480    2.7100  -21.1730 C   0  0  0  0  0  0
   -0.4530    5.8800  -23.3810 F   0  0  0  0  0  0
   -3.3170    3.4410  -20.0680 F   0  0  0  0  0  0
    2.2100    6.1340  -23.0290 N   0  0  0  0  0  0
    4.4040    5.1560  -23.1480 N   0  0  0  0  0  0
    0.5710    2.6600  -24.7080 N   0  0  0  0  0  0
    4.7800    2.9360  -23.7380 N   0  0  0  0  0  0
    6.8020    1.1740  -22.6310 N   0  0  1  0  0  0
   -3.6190    3.9570  -27.7300 O   0  0  0  0  0  0
   -5.5839    4.0314  -21.0072 H   0  0  0  0  0  0
   -6.1276    4.3147  -23.3881 H   0  0  0  0  0  0
    6.0101    4.1106  -21.4770 H   0  0  0  0  0  0
    7.2704    3.1221  -20.6162 H   0  0  0  0  0  0
    6.6040    2.7370  -24.8350 H   0  0  0  0  0  0
    6.4145    4.2948  -23.9675 H   0  0  0  0  0  0
   -5.3978    4.3138  -25.7762 H   0  0  0  0  0  0
    2.4989    1.8774  -24.7279 H   0  0  0  0  0  0
    3.4170    1.4778  -22.8527 H   0  0  0  0  0  0
    4.5711    0.7853  -24.0547 H   0  0  0  0  0  0
    5.1739    0.1501  -21.7095 H   0  0  0  0  0  0
    8.0922    2.8732  -22.8048 H   0  0  0  0  0  0
    4.4793    2.6876  -20.8964 H   0  0  0  0  0  0
    5.7658    1.6716  -20.0328 H   0  0  0  0  0  0
   -1.2992    3.7078  -26.8029 H   0  0  0  0  0  0
    0.7653    2.3919  -20.7489 H   0  0  0  0  0  0
    7.4595    0.6758  -21.9339 H   0  0  0  0  0  0
   -2.7899    3.8412  -28.1792 H   0  0  0  0  0  0
    4.1470    9.3460  -20.7520 N   0  3  0  0  0  0
    8.1600    9.1040  -22.5360 N   0  0  0  0  0  0
    4.1390    7.4790  -22.4980 C   0  0  0  0  0  0
    6.6840    9.0970  -20.8430 C   0  0  0  0  0  0
    3.5870    8.0050  -21.1580 C   0  0  0  0  0  0
    5.4520    9.3470  -19.9920 C   0  0  0  0  0  0
    7.8400    8.3620  -20.4670 C   0  0  0  0  0  0
    8.6800    8.3950  -21.5000 C   0  0  0  0  0  0
    6.9420    9.5180  -22.0870 C   0  0  0  0  0  0
    3.4529    9.8471  -20.2199 H   0  0  0  0  0  0
    4.2400    9.9279  -21.5698 H   0  0  0  0  0  0
    8.6971    9.2120  -23.4082 H   0  0  0  0  0  0
    5.2324    7.3801  -22.4290 H   0  0  0  0  0  0
    3.9609    8.2263  -23.2853 H   0  0  0  0  0  0
    2.4905    8.0700  -21.2160 H   0  0  0  0  0  0
    3.7901    7.2696  -20.3656 H   0  0  0  0  0  0
    5.4060    8.5979  -19.1878 H   0  0  0  0  0  0
    5.5639   10.3045  -19.4623 H   0  0  0  0  0  0
    7.8970    7.9069  -19.4848 H   0  0  0  0  0  0
    9.6632    7.9474  -21.5899 H   0  0  0  0  0  0
    6.3050   10.1210  -22.7240 H   0  0  0  0  0  0
  1  2  2  0  0  0
  1  3  1  0  0  0
  1 34  1  0  0  0
  2  6  1  0  0  0
  2 35  1  0  0  0
  3  5  2  0  0  0
  3 27  1  0  0  0
  4  5  1  0  0  0
  4  6  2  0  0  0
  4 18  1  0  0  0
  5 24  1  0  0  0
  6 10  1  0  0  0
  7 10  2  0  0  0
  7 23  1  0  0  0
  7 33  1  0  0  0
  8 21  1  0  0  0
  8 22  1  0  0  0
  8 36  1  0  0  0
  8 37  1  0  0  0
  9 21  1  0  0  0
  9 31  1  0  0  0
  9 38  1  0  0  0
  9 39  1  0  0  0
 10 40  1  0  0  0
 11 12  1  0  0  0
 11 14  2  0  0  0
 11 15  1  0  0  0
 12 17  1  0  0  0
 12 28  2  0  0  0
 13 28  1  0  0  0
 13 29  2  0  0  0
 13 54  1  0  0  0
 14 29  1  0  0  0
 14 31  1  0  0  0
 15 30  2  0  0  0
 15 41  1  0  0  0
 16 17  2  0  0  0
 16 18  1  0  0  0
 16 30  1  0  0  0
 17 26  1  0  0  0
 18 23  2  0  0  0
 19 20  1  0  0  0
 19 31  1  0  0  0
 19 42  1  0  0  0
 19 43  1  0  0  0
 20 22  1  0  0  0
 20 32  1  0  0  0
 20 44  1  0  0  0
 21 32  1  0  0  0
 21 45  1  0  0  0
 22 46  1  0  0  0
 22 47  1  0  0  0
 23 48  1  0  0  0
 24 25  3  0  0  0
 25 49  1  0  0  0
 32 50  1  0  0  0
 33 51  1  0  0  0
 52 56  1  0  0  0
 52 57  1  0  0  0
 52 61  1  0  0  0
 52 62  1  0  0  0
 53 59  1  0  0  0
 53 60  1  0  0  0
 53 63  1  0  0  0
 54 56  1  0  0  0
 54 64  1  0  0  0
 54 65  1  0  0  0
 55 57  1  0  0  0
 55 58  1  0  0  0
 55 60  2  0  0  0
 56 66  1  0  0  0
 56 67  1  0  0  0
 57 68  1  0  0  0
 57 69  1  0  0  0
 58 59  2  0  0  0
 58 70  1  0  0  0
 59 71  1  0  0  0
 60 72  1  0  0  0
M  CHG  1  52   1
M  END
> <s_m_entry_id>
275

> <s_m_entry_name>
000000117.1

> <s_m_Source_Path>
/Users/zaksoul/Documents/3r_UNI/2nd_SEMESTER/BSC/FRAG_RECON/RESULTS/2

> <s_m_Source_File>
000000117.mol2

> <i_m_Source_File_Index>
1

$$$$
No_0_130
                    3D
 Schrodinger Suite 2022-4.
 72 78  0  0  1  0            999 V2000
   -5.0830    3.7220  -22.0120 C   0  0  0  0  0  0
   -5.3400    3.8700  -23.3540 C   0  0  0  0  0  0
   -3.8500    3.4630  -21.6570 C   0  0  0  0  0  0
   -2.9470    3.5060  -23.8210 C   0  0  0  0  0  0
   -2.7960    3.3060  -22.3920 C   0  0  0  0  0  0
   -4.2880    3.7700  -24.3570 C   0  0  0  0  0  0
   -3.5220    3.7100  -26.5510 C   0  0  0  0  0  0
    6.1710    3.0130  -21.2140 C   0  0  0  0  0  0
    6.0460    3.0750  -23.7670 C   0  0  0  0  0  0
   -4.5310    3.8580  -25.6970 C   0  0  0  0  0  0
    2.2700    3.6740  -23.8220 C   0  0  0  0  0  0
    1.4630    4.8030  -23.5630 C   0  0  0  0  0  0
    3.2740    5.9950  -22.9130 C   0  0  0  0  0  0
    3.6710    3.8550  -23.5080 C   0  0  0  0  0  0
    1.7110    2.5440  -24.4490 C   0  0  0  0  0  0
   -0.4050    3.3890  -24.3760 C   0  0  0  0  0  0
    0.1350    4.6210  -23.8140 C   0  0  0  0  0  0
   -1.8560    3.4040  -24.7380 C   0  0  0  0  0  0
    4.2400    1.3600  -23.1320 C   0  0  0  0  0  0
    5.1630    1.0290  -21.9700 C   0  0  2  0  0  0
    6.7800    2.5290  -22.5480 C   0  0  2  0  0  0
    5.1540    2.0680  -20.8360 C   0  0  0  0  0  0
   -2.1730    3.5220  -26.1720 C   0  0  0  0  0  0
   -1.4610    2.8940  -21.7740 C   0  0  0  0  0  0
   -0.4370    2.5480  -21.2510 C   0  0  0  0  0  0
   -0.6930    5.6880  -23.5080 F   0  0  0  0  0  0
   -3.6490    3.2620  -20.2660 F   0  0  0  0  0  0
    1.9530    5.9720  -23.0670 N   0  0  0  0  0  0
    4.1580    5.0130  -23.0970 N   0  0  0  0  0  0
    0.4050    2.4620  -24.7580 N   0  0  0  0  0  0
    4.5750    2.7900  -23.6460 N   0  0  0  0  0  0
    6.5730    1.0610  -22.4470 N   0  0  1  0  0  0
   -3.6880    3.6820  -27.9410 O   0  0  0  0  0  0
   -5.8874    3.8194  -21.2919 H   0  0  0  0  0  0
   -6.3498    4.0688  -23.6943 H   0  0  0  0  0  0
    5.7142    4.0032  -21.3582 H   0  0  0  0  0  0
    6.9532    3.0372  -20.4409 H   0  0  0  0  0  0
    6.4383    2.5950  -24.6757 H   0  0  0  0  0  0
    6.2045    4.1614  -23.8346 H   0  0  0  0  0  0
   -5.5371    4.0456  -26.0541 H   0  0  0  0  0  0
    2.3391    1.6972  -24.7008 H   0  0  0  0  0  0
    3.1950    1.3297  -22.7897 H   0  0  0  0  0  0
    4.3965    0.6331  -23.9427 H   0  0  0  0  0  0
    4.9237    0.0325  -21.5702 H   0  0  0  0  0  0
    7.8521    2.7701  -22.5974 H   0  0  0  0  0  0
    4.1773    2.5735  -20.8128 H   0  0  0  0  0  0
    5.4427    1.5804  -19.8932 H   0  0  0  0  0  0
   -1.4005    3.4668  -26.9305 H   0  0  0  0  0  0
    0.4641    2.2440  -20.7920 H   0  0  0  0  0  0
    7.2102    0.5778  -21.7211 H   0  0  0  0  0  0
   -2.8427    3.5692  -28.3597 H   0  0  0  0  0  0
    4.0660    9.0550  -20.6010 N   0  3  0  0  0  0
    7.6550    9.3200  -23.1300 N   0  0  0  0  0  0
    3.8500    7.3410  -22.4850 C   0  0  0  0  0  0
    6.5460    9.0440  -21.1960 C   0  0  0  0  0  0
    3.5360    7.7070  -21.0210 C   0  0  0  0  0  0
    5.4910    9.1140  -20.1060 C   0  0  0  0  0  0
    7.8040    8.3890  -21.1190 C   0  0  0  0  0  0
    8.4200    8.5800  -22.2850 C   0  0  0  0  0  0
    6.5230    9.5850  -22.4200 C   0  0  0  0  0  0
    3.4561    9.4479  -19.9012 H   0  0  0  0  0  0
    3.9521    9.7066  -21.3616 H   0  0  0  0  0  0
    8.0008    9.5459  -24.0735 H   0  0  0  0  0  0
    4.9397    7.3360  -22.6350 H   0  0  0  0  0  0
    3.4661    8.1297  -23.1488 H   0  0  0  0  0  0
    2.4478    7.6770  -20.8630 H   0  0  0  0  0  0
    3.9439    6.9313  -20.3562 H   0  0  0  0  0  0
    5.6591    8.3007  -19.3847 H   0  0  0  0  0  0
    5.6350   10.0323  -19.5178 H   0  0  0  0  0  0
    8.0861    7.8638  -20.2137 H   0  0  0  0  0  0
    9.3961    8.2310  -22.6020 H   0  0  0  0  0  0
    5.7302   10.1769  -22.8629 H   0  0  0  0  0  0
  1  2  2  0  0  0
  1  3  1  0  0  0
  1 34  1  0  0  0
  2  6  1  0  0  0
  2 35  1  0  0  0
  3  5  2  0  0  0
  3 27  1  0  0  0
  4  5  1  0  0  0
  4  6  2  0  0  0
  4 18  1  0  0  0
  5 24  1  0  0  0
  6 10  1  0  0  0
  7 10  2  0  0  0
  7 23  1  0  0  0
  7 33  1  0  0  0
  8 21  1  0  0  0
  8 22  1  0  0  0
  8 36  1  0  0  0
  8 37  1  0  0  0
  9 21  1  0  0  0
  9 31  1  0  0  0
  9 38  1  0  0  0
  9 39  1  0  0  0
 10 40  1  0  0  0
 11 12  1  0  0  0
 11 14  2  0  0  0
 11 15  1  0  0  0
 12 17  1  0  0  0
 12 28  2  0  0  0
 13 28  1  0  0  0
 13 29  2  0  0  0
 13 54  1  0  0  0
 14 29  1  0  0  0
 14 31  1  0  0  0
 15 30  2  0  0  0
 15 41  1  0  0  0
 16 17  2  0  0  0
 16 18  1  0  0  0
 16 30  1  0  0  0
 17 26  1  0  0  0
 18 23  2  0  0  0
 19 20  1  0  0  0
 19 31  1  0  0  0
 19 42  1  0  0  0
 19 43  1  0  0  0
 20 22  1  0  0  0
 20 32  1  0  0  0
 20 44  1  0  0  0
 21 32  1  0  0  0
 21 45  1  0  0  0
 22 46  1  0  0  0
 22 47  1  0  0  0
 23 48  1  0  0  0
 24 25  3  0  0  0
 25 49  1  0  0  0
 32 50  1  0  0  0
 33 51  1  0  0  0
 52 56  1  0  0  0
 52 57  1  0  0  0
 52 61  1  0  0  0
 52 62  1  0  0  0
 53 59  1  0  0  0
 53 60  1  0  0  0
 53 63  1  0  0  0
 54 56  1  0  0  0
 54 64  1  0  0  0
 54 65  1  0  0  0
 55 57  1  0  0  0
 55 58  1  0  0  0
 55 60  2  0  0  0
 56 66  1  0  0  0
 56 67  1  0  0  0
 57 68  1  0  0  0
 57 69  1  0  0  0
 58 59  2  0  0  0
 58 70  1  0  0  0
 59 71  1  0  0  0
 60 72  1  0  0  0
M  CHG  1  52   1
M  END
> <s_m_entry_id>
276

> <s_m_entry_name>
000000118.1

> <s_m_Source_Path>
/Users/zaksoul/Documents/3r_UNI/2nd_SEMESTER/BSC/FRAG_RECON/RESULTS/2

> <s_m_Source_File>
000000118.mol2

> <i_m_Source_File_Index>
1

$$$$
No_0_131
                    3D
 Schrodinger Suite 2022-4.
 72 78  0  0  1  0            999 V2000
   -5.2470    3.4570  -22.0620 C   0  0  0  0  0  0
   -5.4960    3.6260  -23.4030 C   0  0  0  0  0  0
   -4.0090    3.2300  -21.7000 C   0  0  0  0  0  0
   -3.0880    3.3490  -23.8530 C   0  0  0  0  0  0
   -2.9440    3.1230  -22.4280 C   0  0  0  0  0  0
   -4.4320    3.5810  -24.3970 C   0  0  0  0  0  0
   -3.6450    3.5930  -26.5840 C   0  0  0  0  0  0
    6.0160    3.0930  -21.1680 C   0  0  0  0  0  0
    5.9130    3.2050  -23.7210 C   0  0  0  0  0  0
   -4.6660    3.6890  -25.7380 C   0  0  0  0  0  0
    2.1200    3.6840  -23.8000 C   0  0  0  0  0  0
    1.2740    4.7800  -23.5250 C   0  0  0  0  0  0
    3.0400    6.0160  -22.8320 C   0  0  0  0  0  0
    3.5110    3.9030  -23.4680 C   0  0  0  0  0  0
    1.6030    2.5500  -24.4570 C   0  0  0  0  0  0
   -0.5400    3.3250  -24.3860 C   0  0  0  0  0  0
   -0.0440    4.5610  -23.7930 C   0  0  0  0  0  0
   -1.9870    3.3010  -24.7620 C   0  0  0  0  0  0
    4.1580    1.4200  -23.1400 C   0  0  0  0  0  0
    5.0800    1.0940  -21.9760 C   0  0  2  0  0  0
    6.6530    2.6570  -22.5060 C   0  0  2  0  0  0
    5.0270    2.1070  -20.8200 C   0  0  0  0  0  0
   -2.2940    3.4390  -26.1970 C   0  0  0  0  0  0
   -1.6020    2.7400  -21.8050 C   0  0  0  0  0  0
   -0.5730    2.4170  -21.2810 C   0  0  0  0  0  0
   -0.9090    5.5950  -23.4730 F   0  0  0  0  0  0
   -3.8150    3.0060  -20.3120 F   0  0  0  0  0  0
    1.7230    5.9530  -23.0000 N   0  0  0  0  0  0
    3.9570    5.0670  -23.0290 N   0  0  0  0  0  0
    0.3040    2.4330  -24.7800 N   0  0  0  0  0  0
    4.4510    2.8700  -23.6200 N   0  0  0  0  0  0
    6.4930    1.1810  -22.4380 N   0  0  1  0  0  0
   -3.7970    3.5890  -27.9760 O   0  0  0  0  0  0
   -6.0601    3.5132  -21.3473 H   0  0  0  0  0  0
   -6.5089    3.7987  -23.7483 H   0  0  0  0  0  0
    5.5294    4.0712  -21.2962 H   0  0  0  0  0  0
    6.7904    3.1253  -20.3875 H   0  0  0  0  0  0
    6.3290    2.7577  -24.6358 H   0  0  0  0  0  0
    6.0372    4.2971  -23.7634 H   0  0  0  0  0  0
   -5.6745    3.8526  -26.1003 H   0  0  0  0  0  0
    2.2609    1.7296  -24.7198 H   0  0  0  0  0  0
    3.1113    1.3484  -22.8093 H   0  0  0  0  0  0
    4.3447    0.7164  -23.9647 H   0  0  0  0  0  0
    4.8691    0.0821  -21.5997 H   0  0  0  0  0  0
    7.7172    2.9334  -22.5393 H   0  0  0  0  0  0
    4.0342    2.5802  -20.7968 H   0  0  0  0  0  0
    5.3227    1.6095  -19.8845 H   0  0  0  0  0  0
   -1.5126    3.4249  -26.9482 H   0  0  0  0  0  0
    0.3329    2.1320  -20.8191 H   0  0  0  0  0  0
    7.1388    0.7031  -21.7163 H   0  0  0  0  0  0
   -2.9448    3.5118  -28.3887 H   0  0  0  0  0  0
    4.0420    8.8960  -20.3750 N   0  3  0  0  0  0
    6.9250    9.8460  -23.5570 N   0  0  0  0  0  0
    3.5690    7.3700  -22.3710 C   0  0  0  0  0  0
    6.3140    9.2430  -21.4820 C   0  0  0  0  0  0
    3.5610    7.5430  -20.8390 C   0  0  0  0  0  0
    5.5300    9.0730  -20.1920 C   0  0  0  0  0  0
    7.6120    8.7390  -21.7580 C   0  0  0  0  0  0
    7.9280    9.1210  -22.9950 C   0  0  0  0  0  0
    5.9630    9.8990  -22.5940 C   0  0  0  0  0  0
    3.5719    9.1381  -19.5168 H   0  0  0  0  0  0
    3.6987    9.6036  -21.0055 H   0  0  0  0  0  0
    7.0260   10.2071  -24.5163 H   0  0  0  0  0  0
    4.5923    7.5110  -22.7491 H   0  0  0  0  0  0
    2.9721    8.1708  -22.8319 H   0  0  0  0  0  0
    2.5445    7.3671  -20.4572 H   0  0  0  0  0  0
    4.1800    6.7580  -20.3800 H   0  0  0  0  0  0
    5.9332    8.2166  -19.6317 H   0  0  0  0  0  0
    5.7160    9.9370  -19.5370 H   0  0  0  0  0  0
    8.1403    8.1607  -21.0086 H   0  0  0  0  0  0
    8.8353    8.9259  -23.5552 H   0  0  0  0  0  0
    5.0392   10.4349  -22.7800 H   0  0  0  0  0  0
  1  2  2  0  0  0
  1  3  1  0  0  0
  1 34  1  0  0  0
  2  6  1  0  0  0
  2 35  1  0  0  0
  3  5  2  0  0  0
  3 27  1  0  0  0
  4  5  1  0  0  0
  4  6  2  0  0  0
  4 18  1  0  0  0
  5 24  1  0  0  0
  6 10  1  0  0  0
  7 10  2  0  0  0
  7 23  1  0  0  0
  7 33  1  0  0  0
  8 21  1  0  0  0
  8 22  1  0  0  0
  8 36  1  0  0  0
  8 37  1  0  0  0
  9 21  1  0  0  0
  9 31  1  0  0  0
  9 38  1  0  0  0
  9 39  1  0  0  0
 10 40  1  0  0  0
 11 12  1  0  0  0
 11 14  2  0  0  0
 11 15  1  0  0  0
 12 17  1  0  0  0
 12 28  2  0  0  0
 13 28  1  0  0  0
 13 29  2  0  0  0
 13 54  1  0  0  0
 14 29  1  0  0  0
 14 31  1  0  0  0
 15 30  2  0  0  0
 15 41  1  0  0  0
 16 17  2  0  0  0
 16 18  1  0  0  0
 16 30  1  0  0  0
 17 26  1  0  0  0
 18 23  2  0  0  0
 19 20  1  0  0  0
 19 31  1  0  0  0
 19 42  1  0  0  0
 19 43  1  0  0  0
 20 22  1  0  0  0
 20 32  1  0  0  0
 20 44  1  0  0  0
 21 32  1  0  0  0
 21 45  1  0  0  0
 22 46  1  0  0  0
 22 47  1  0  0  0
 23 48  1  0  0  0
 24 25  3  0  0  0
 25 49  1  0  0  0
 32 50  1  0  0  0
 33 51  1  0  0  0
 52 56  1  0  0  0
 52 57  1  0  0  0
 52 61  1  0  0  0
 52 62  1  0  0  0
 53 59  1  0  0  0
 53 60  1  0  0  0
 53 63  1  0  0  0
 54 56  1  0  0  0
 54 64  1  0  0  0
 54 65  1  0  0  0
 55 57  1  0  0  0
 55 58  1  0  0  0
 55 60  2  0  0  0
 56 66  1  0  0  0
 56 67  1  0  0  0
 57 68  1  0  0  0
 57 69  1  0  0  0
 58 59  2  0  0  0
 58 70  1  0  0  0
 59 71  1  0  0  0
 60 72  1  0  0  0
M  CHG  1  52   1
M  END
> <s_m_entry_id>
277

> <s_m_entry_name>
000000119.1

> <s_m_Source_Path>
/Users/zaksoul/Documents/3r_UNI/2nd_SEMESTER/BSC/FRAG_RECON/RESULTS/2

> <s_m_Source_File>
000000119.mol2

> <i_m_Source_File_Index>
1

$$$$
No_0_132
                    3D
 Schrodinger Suite 2022-4.
 72 78  0  0  1  0            999 V2000
   -5.4380    3.5510  -22.4910 C   0  0  0  0  0  0
   -5.6670    3.7140  -23.8370 C   0  0  0  0  0  0
   -4.2090    3.3060  -22.1110 C   0  0  0  0  0  0
   -3.2590    3.3930  -24.2540 C   0  0  0  0  0  0
   -3.1370    3.1760  -22.8250 C   0  0  0  0  0  0
   -4.5920    3.6440  -24.8160 C   0  0  0  0  0  0
   -3.7760    3.6250  -26.9930 C   0  0  0  0  0  0
    5.8050    3.0080  -21.4490 C   0  0  0  0  0  0
    5.7360    3.1020  -24.0030 C   0  0  0  0  0  0
   -4.8060    3.7450  -26.1600 C   0  0  0  0  0  0
    1.9530    3.6430  -24.1350 C   0  0  0  0  0  0
    1.1230    4.7550  -23.8800 C   0  0  0  0  0  0
    2.9000    5.9670  -23.1730 C   0  0  0  0  0  0
    3.3440    3.8420  -23.7870 C   0  0  0  0  0  0
    1.4270    2.5130  -24.7900 C   0  0  0  0  0  0
   -0.7040    3.3240  -24.7530 C   0  0  0  0  0  0
   -0.1960    4.5560  -24.1630 C   0  0  0  0  0  0
   -2.1470    3.3210  -25.1480 C   0  0  0  0  0  0
    3.9450    1.3510  -23.4320 C   0  0  0  0  0  0
    4.8470    1.0190  -22.2530 C   0  0  2  0  0  0
    6.4520    2.5520  -22.7750 C   0  0  2  0  0  0
    4.7950    2.0420  -21.1060 C   0  0  0  0  0  0
   -2.4330    3.4530  -26.5870 C   0  0  0  0  0  0
   -1.8090    2.7770  -22.1820 C   0  0  0  0  0  0
   -0.7920    2.4400  -21.6410 C   0  0  0  0  0  0
   -1.0480    5.6060  -23.8620 F   0  0  0  0  0  0
   -4.0370    3.0900  -20.7200 F   0  0  0  0  0  0
    1.5830    5.9250  -23.3570 N   0  0  0  0  0  0
    3.8030    5.0020  -23.3510 N   0  0  0  0  0  0
    0.1290    2.4150  -25.1290 N   0  0  0  0  0  0
    4.2680    2.7930  -23.9190 N   0  0  0  0  0  0
    6.2660    1.0790  -22.6980 N   0  0  1  0  0  0
   -3.9110    3.6140  -28.3870 O   0  0  0  0  0  0
   -6.2600    3.6263  -21.7884 H   0  0  0  0  0  0
   -6.6726    3.9007  -24.1963 H   0  0  0  0  0  0
    5.3358    3.9928  -21.5903 H   0  0  0  0  0  0
    6.5699    3.0342  -20.6589 H   0  0  0  0  0  0
    6.1566    2.6410  -24.9088 H   0  0  0  0  0  0
    5.8792    4.1915  -24.0534 H   0  0  0  0  0  0
   -5.8067    3.9217  -26.5374 H   0  0  0  0  0  0
    2.0744    1.6799  -25.0389 H   0  0  0  0  0  0
    2.8931    1.2996  -23.1143 H   0  0  0  0  0  0
    4.1308    0.6381  -24.2489 H   0  0  0  0  0  0
    4.6138    0.0136  -21.8724 H   0  0  0  0  0  0
    7.5210    2.8104  -22.7972 H   0  0  0  0  0  0
    3.8099    2.5315  -21.0989 H   0  0  0  0  0  0
    5.0705    1.5465  -20.1634 H   0  0  0  0  0  0
   -1.6422    3.4199  -27.3276 H   0  0  0  0  0  0
    0.1033    2.1439  -21.1658 H   0  0  0  0  0  0
    6.8949    0.5967  -21.9643 H   0  0  0  0  0  0
   -3.0549    3.5190  -28.7878 H   0  0  0  0  0  0
    4.2630    8.7130  -20.7380 N   0  3  0  0  0  0
    6.3230   10.1080  -24.3640 N   0  0  0  0  0  0
    3.4440    7.3160  -22.7150 C   0  0  0  0  0  0
    6.2150    9.3050  -22.2700 C   0  0  0  0  0  0
    3.7640    7.3700  -21.2080 C   0  0  0  0  0  0
    5.7440    8.9820  -20.8630 C   0  0  0  0  0  0
    7.4460    8.9170  -22.8620 C   0  0  0  0  0  0
    7.4620    9.4150  -24.0980 C   0  0  0  0  0  0
    5.5950   10.0190  -23.2160 C   0  0  0  0  0  0
    3.9812    8.8549  -19.7807 H   0  0  0  0  0  0
    3.7529    9.4411  -21.2131 H   0  0  0  0  0  0
    6.1920   10.5480  -25.2860 H   0  0  0  0  0  0
    4.3507    7.5579  -23.2888 H   0  0  0  0  0  0
    2.7195    8.1056  -22.9632 H   0  0  0  0  0  0
    2.8669    7.0930  -20.6349 H   0  0  0  0  0  0
    4.5090    6.5980  -20.9650 H   0  0  0  0  0  0
    6.3049    8.1162  -20.4811 H   0  0  0  0  0  0
    6.0239    9.8036  -20.1873 H   0  0  0  0  0  0
    8.1554    8.3226  -22.2977 H   0  0  0  0  0  0
    8.2330    9.3280  -24.8550 H   0  0  0  0  0  0
    4.6258   10.5001  -23.1510 H   0  0  0  0  0  0
  1  2  2  0  0  0
  1  3  1  0  0  0
  1 34  1  0  0  0
  2  6  1  0  0  0
  2 35  1  0  0  0
  3  5  2  0  0  0
  3 27  1  0  0  0
  4  5  1  0  0  0
  4  6  2  0  0  0
  4 18  1  0  0  0
  5 24  1  0  0  0
  6 10  1  0  0  0
  7 10  2  0  0  0
  7 23  1  0  0  0
  7 33  1  0  0  0
  8 21  1  0  0  0
  8 22  1  0  0  0
  8 36  1  0  0  0
  8 37  1  0  0  0
  9 21  1  0  0  0
  9 31  1  0  0  0
  9 38  1  0  0  0
  9 39  1  0  0  0
 10 40  1  0  0  0
 11 12  1  0  0  0
 11 14  2  0  0  0
 11 15  1  0  0  0
 12 17  1  0  0  0
 12 28  2  0  0  0
 13 28  1  0  0  0
 13 29  2  0  0  0
 13 54  1  0  0  0
 14 29  1  0  0  0
 14 31  1  0  0  0
 15 30  2  0  0  0
 15 41  1  0  0  0
 16 17  2  0  0  0
 16 18  1  0  0  0
 16 30  1  0  0  0
 17 26  1  0  0  0
 18 23  2  0  0  0
 19 20  1  0  0  0
 19 31  1  0  0  0
 19 42  1  0  0  0
 19 43  1  0  0  0
 20 22  1  0  0  0
 20 32  1  0  0  0
 20 44  1  0  0  0
 21 32  1  0  0  0
 21 45  1  0  0  0
 22 46  1  0  0  0
 22 47  1  0  0  0
 23 48  1  0  0  0
 24 25  3  0  0  0
 25 49  1  0  0  0
 32 50  1  0  0  0
 33 51  1  0  0  0
 52 56  1  0  0  0
 52 57  1  0  0  0
 52 61  1  0  0  0
 52 62  1  0  0  0
 53 59  1  0  0  0
 53 60  1  0  0  0
 53 63  1  0  0  0
 54 56  1  0  0  0
 54 64  1  0  0  0
 54 65  1  0  0  0
 55 57  1  0  0  0
 55 58  1  0  0  0
 55 60  2  0  0  0
 56 66  1  0  0  0
 56 67  1  0  0  0
 57 68  1  0  0  0
 57 69  1  0  0  0
 58 59  2  0  0  0
 58 70  1  0  0  0
 59 71  1  0  0  0
 60 72  1  0  0  0
M  CHG  1  52   1
M  END
> <s_m_entry_id>
278

> <s_m_entry_name>
000000120.1

> <s_m_Source_Path>
/Users/zaksoul/Documents/3r_UNI/2nd_SEMESTER/BSC/FRAG_RECON/RESULTS/2

> <s_m_Source_File>
000000120.mol2

> <i_m_Source_File_Index>
1

$$$$
No_0_133
                    3D
 Schrodinger Suite 2022-4.
 72 78  0  0  1  0            999 V2000
   -5.0470    3.5650  -22.0290 C   0  0  0  0  0  0
   -5.3200    3.7580  -23.3630 C   0  0  0  0  0  0
   -3.8080    3.3070  -21.6960 C   0  0  0  0  0  0
   -2.9280    3.4360  -23.8660 C   0  0  0  0  0  0
   -2.7600    3.1880  -22.4470 C   0  0  0  0  0  0
   -4.2780    3.7050  -24.3790 C   0  0  0  0  0  0
   -3.5360    3.7290  -26.5810 C   0  0  0  0  0  0
    6.2210    2.9500  -21.3740 C   0  0  0  0  0  0
    6.0680    3.0990  -23.9220 C   0  0  0  0  0  0
   -4.5370    3.8360  -25.7130 C   0  0  0  0  0  0
    2.2860    3.6600  -23.9160 C   0  0  0  0  0  0
    1.4700    4.7700  -23.6100 C   0  0  0  0  0  0
    3.2760    5.9580  -22.9370 C   0  0  0  0  0  0
    3.6880    3.8450  -23.6110 C   0  0  0  0  0  0
    1.7320    2.5460  -24.5770 C   0  0  0  0  0  0
   -0.3920    3.3660  -24.4520 C   0  0  0  0  0  0
    0.1420    4.5830  -23.8530 C   0  0  0  0  0  0
   -1.8470    3.3780  -24.7980 C   0  0  0  0  0  0
    4.2870    1.3450  -23.3280 C   0  0  0  0  0  0
    5.2260    0.9830  -22.1880 C   0  0  2  0  0  0
    6.8210    2.5200  -22.7300 C   0  0  2  0  0  0
    5.2180    1.9810  -21.0180 C   0  0  0  0  0  0
   -2.1800    3.5420  -26.2240 C   0  0  0  0  0  0
   -1.4140    2.7690  -21.8580 C   0  0  0  0  0  0
   -0.3820    2.4160  -21.3590 C   0  0  0  0  0  0
   -0.6940    5.6300  -23.5010 F   0  0  0  0  0  0
   -3.5900    3.0610  -20.3160 F   0  0  0  0  0  0
    1.9540    5.9260  -23.0780 N   0  0  0  0  0  0
    4.1680    4.9930  -23.1650 N   0  0  0  0  0  0
    0.4230    2.4620  -24.8750 N   0  0  0  0  0  0
    4.6020    2.7950  -23.7960 N   0  0  0  0  0  0
    6.6310    1.0470  -22.6790 N   0  0  1  0  0  0
   -3.7160    3.7480  -27.9700 O   0  0  0  0  0  0
   -5.8445    3.6292  -21.2977 H   0  0  0  0  0  0
   -6.3359    3.9578  -23.6842 H   0  0  0  0  0  0
    5.7528    3.9399  -21.4779 H   0  0  0  0  0  0
    7.0118    2.9561  -20.6094 H   0  0  0  0  0  0
    6.4564    2.6562  -24.8510 H   0  0  0  0  0  0
    6.2143    4.1888  -23.9533 H   0  0  0  0  0  0
   -5.5489    4.0257  -26.0523 H   0  0  0  0  0  0
    2.3665    1.7157  -24.8651 H   0  0  0  0  0  0
    3.2461    1.2905  -22.9766 H   0  0  0  0  0  0
    4.4424    0.6489  -24.1654 H   0  0  0  0  0  0
    5.0010   -0.0291  -21.8207 H   0  0  0  0  0  0
    7.8902    2.7732  -22.7824 H   0  0  0  0  0  0
    4.2368    2.4756  -20.9675 H   0  0  0  0  0  0
    5.5229    1.4640  -20.0962 H   0  0  0  0  0  0
   -1.4151    3.5219  -26.9919 H   0  0  0  0  0  0
    0.5267    2.1061  -20.9192 H   0  0  0  0  0  0
    7.2798    0.5446  -21.9768 H   0  0  0  0  0  0
   -2.8738    3.6589  -28.4005 H   0  0  0  0  0  0
    3.9440    8.9320  -20.4940 N   0  3  0  0  0  0
    6.4240   10.3630  -21.9270 N   0  0  0  0  0  0
    3.8420    7.2940  -22.4690 C   0  0  0  0  0  0
    6.3480    9.2240  -21.1830 C   0  0  0  0  0  0
    3.5210    7.5710  -20.9840 C   0  0  0  0  0  0
    5.3730    9.0720  -20.0340 C   0  0  0  0  0  0
    7.9180    8.8980  -22.6950 C   0  0  0  0  0  0
    7.2270    8.3130  -21.6060 C   0  0  0  0  0  0
    7.4020   10.1190  -22.8430 C   0  0  0  0  0  0
    3.3271    9.2239  -19.7522 H   0  0  0  0  0  0
    3.7579    9.6163  -21.2103 H   0  0  0  0  0  0
    5.8027   11.1574  -21.7179 H   0  0  0  0  0  0
    4.9324    7.3010  -22.6139 H   0  0  0  0  0  0
    3.4309    8.1042  -23.0891 H   0  0  0  0  0  0
    2.4414    7.4431  -20.8161 H   0  0  0  0  0  0
    3.9892    6.7957  -20.3597 H   0  0  0  0  0  0
    5.6520    8.1940  -19.4330 H   0  0  0  0  0  0
    5.4590    9.9410  -19.3650 H   0  0  0  0  0  0
    8.6913    8.3398  -23.2102 H   0  0  0  0  0  0
    7.2890    7.3501  -21.1120 H   0  0  0  0  0  0
    7.6668   10.8796  -23.5686 H   0  0  0  0  0  0
  1  2  2  0  0  0
  1  3  1  0  0  0
  1 34  1  0  0  0
  2  6  1  0  0  0
  2 35  1  0  0  0
  3  5  2  0  0  0
  3 27  1  0  0  0
  4  5  1  0  0  0
  4  6  2  0  0  0
  4 18  1  0  0  0
  5 24  1  0  0  0
  6 10  1  0  0  0
  7 10  2  0  0  0
  7 23  1  0  0  0
  7 33  1  0  0  0
  8 21  1  0  0  0
  8 22  1  0  0  0
  8 36  1  0  0  0
  8 37  1  0  0  0
  9 21  1  0  0  0
  9 31  1  0  0  0
  9 38  1  0  0  0
  9 39  1  0  0  0
 10 40  1  0  0  0
 11 12  1  0  0  0
 11 14  2  0  0  0
 11 15  1  0  0  0
 12 17  1  0  0  0
 12 28  2  0  0  0
 13 28  1  0  0  0
 13 29  2  0  0  0
 13 54  1  0  0  0
 14 29  1  0  0  0
 14 31  1  0  0  0
 15 30  2  0  0  0
 15 41  1  0  0  0
 16 17  2  0  0  0
 16 18  1  0  0  0
 16 30  1  0  0  0
 17 26  1  0  0  0
 18 23  2  0  0  0
 19 20  1  0  0  0
 19 31  1  0  0  0
 19 42  1  0  0  0
 19 43  1  0  0  0
 20 22  1  0  0  0
 20 32  1  0  0  0
 20 44  1  0  0  0
 21 32  1  0  0  0
 21 45  1  0  0  0
 22 46  1  0  0  0
 22 47  1  0  0  0
 23 48  1  0  0  0
 24 25  3  0  0  0
 25 49  1  0  0  0
 32 50  1  0  0  0
 33 51  1  0  0  0
 52 56  1  0  0  0
 52 57  1  0  0  0
 52 61  1  0  0  0
 52 62  1  0  0  0
 53 55  1  0  0  0
 53 60  1  0  0  0
 53 63  1  0  0  0
 54 56  1  0  0  0
 54 64  1  0  0  0
 54 65  1  0  0  0
 55 57  1  0  0  0
 55 59  2  0  0  0
 56 66  1  0  0  0
 56 67  1  0  0  0
 57 68  1  0  0  0
 57 69  1  0  0  0
 58 59  1  0  0  0
 58 60  2  0  0  0
 58 70  1  0  0  0
 59 71  1  0  0  0
 60 72  1  0  0  0
M  CHG  1  52   1
M  END
> <s_m_entry_id>
279

> <s_m_entry_name>
000000121.1

> <s_m_Source_Path>
/Users/zaksoul/Documents/3r_UNI/2nd_SEMESTER/BSC/FRAG_RECON/RESULTS/2

> <s_m_Source_File>
000000121.mol2

> <i_m_Source_File_Index>
1

$$$$
No_0_134
                    3D
 Schrodinger Suite 2022-4.
 72 78  0  0  1  0            999 V2000
   -5.0800    3.6450  -22.1640 C   0  0  0  0  0  0
   -5.3360    3.7970  -23.5060 C   0  0  0  0  0  0
   -3.8410    3.4240  -21.8050 C   0  0  0  0  0  0
   -2.9300    3.5160  -23.9630 C   0  0  0  0  0  0
   -2.7790    3.3080  -22.5360 C   0  0  0  0  0  0
   -4.2760    3.7400  -24.5040 C   0  0  0  0  0  0
   -3.4990    3.7240  -26.6950 C   0  0  0  0  0  0
    6.1870    3.3010  -21.3150 C   0  0  0  0  0  0
    6.0720    3.3790  -23.8690 C   0  0  0  0  0  0
   -4.5160    3.8310  -25.8450 C   0  0  0  0  0  0
    2.2780    3.8550  -23.9370 C   0  0  0  0  0  0
    1.4340    4.9540  -23.6730 C   0  0  0  0  0  0
    3.2020    6.2000  -23.0040 C   0  0  0  0  0  0
    3.6720    4.0790  -23.6150 C   0  0  0  0  0  0
    1.7600    2.7120  -24.5770 C   0  0  0  0  0  0
   -0.3830    3.4870  -24.5070 C   0  0  0  0  0  0
    0.1140    4.7310  -23.9330 C   0  0  0  0  0  0
   -1.8320    3.4570  -24.8760 C   0  0  0  0  0  0
    4.3210    1.6010  -23.2570 C   0  0  0  0  0  0
    5.2490    1.2910  -22.0920 C   0  0  2  0  0  0
    6.8180    2.8480  -22.6500 C   0  0  2  0  0  0
    5.2000    2.3190  -20.9500 C   0  0  0  0  0  0
   -2.1460    3.5760  -26.3110 C   0  0  0  0  0  0
   -1.4340    2.9350  -21.9140 C   0  0  0  0  0  0
   -0.4020    2.6190  -21.3900 C   0  0  0  0  0  0
   -0.7510    5.7680  -23.6220 F   0  0  0  0  0  0
   -3.6410    3.2190  -20.4150 F   0  0  0  0  0  0
    1.8830    6.1340  -23.1650 N   0  0  0  0  0  0
    4.1180    5.2490  -23.1920 N   0  0  0  0  0  0
    0.4590    2.5900  -24.8930 N   0  0  0  0  0  0
    4.6110    3.0450  -23.7570 N   0  0  0  0  0  0
    6.6590    1.3730  -22.5620 N   0  0  1  0  0  0
   -3.6570    3.7020  -28.0860 O   0  0  0  0  0  0
   -5.8908    3.7102  -21.4475 H   0  0  0  0  0  0
   -6.3504    3.9647  -23.8495 H   0  0  0  0  0  0
    5.6986    4.2769  -21.4533 H   0  0  0  0  0  0
    6.9647    3.3444  -20.5383 H   0  0  0  0  0  0
    6.4849    2.9206  -24.7797 H   0  0  0  0  0  0
    6.1951    4.4706  -23.9265 H   0  0  0  0  0  0
   -5.5261    3.9886  -26.2055 H   0  0  0  0  0  0
    2.4176    1.8888  -24.8320 H   0  0  0  0  0  0
    3.2760    1.5334  -22.9201 H   0  0  0  0  0  0
    4.5047    0.8862  -24.0727 H   0  0  0  0  0  0
    5.0401    0.2837  -21.7024 H   0  0  0  0  0  0
    7.8818    3.1246  -22.6924 H   0  0  0  0  0  0
    4.2072    2.7922  -20.9278 H   0  0  0  0  0  0
    5.4997    1.8336  -20.0095 H   0  0  0  0  0  0
   -1.3677    3.5529  -27.0652 H   0  0  0  0  0  0
    0.5060    2.3410  -20.9280 H   0  0  0  0  0  0
    7.3081    0.9046  -21.8370 H   0  0  0  0  0  0
   -2.8062    3.6199  -28.5005 H   0  0  0  0  0  0
    4.1070    9.0850  -20.5320 N   0  3  0  0  0  0
    6.0750   10.8510  -22.3390 N   0  0  0  0  0  0
    3.7310    7.5600  -22.5630 C   0  0  0  0  0  0
    6.2670    9.6700  -21.6860 C   0  0  0  0  0  0
    3.7150    7.7170  -21.0270 C   0  0  0  0  0  0
    5.5830    9.3510  -20.3730 C   0  0  0  0  0  0
    7.4950    9.5990  -23.5140 C   0  0  0  0  0  0
    7.1140    8.8830  -22.3530 C   0  0  0  0  0  0
    6.8500   10.7640  -23.4560 C   0  0  0  0  0  0
    3.6418    9.2681  -19.6567 H   0  0  0  0  0  0
    3.7081    9.7849  -21.1379 H   0  0  0  0  0  0
    5.4437   11.5613  -21.9418 H   0  0  0  0  0  0
    4.7586    7.6910  -22.9329 H   0  0  0  0  0  0
    3.1220    8.3550  -23.0180 H   0  0  0  0  0  0
    2.7143    7.4651  -20.6461 H   0  0  0  0  0  0
    4.3766    6.9624  -20.5766 H   0  0  0  0  0  0
    6.0641    8.4748  -19.9139 H   0  0  0  0  0  0
    5.7311   10.1854  -19.6717 H   0  0  0  0  0  0
    8.1866    9.1562  -24.2216 H   0  0  0  0  0  0
    7.3701    7.9058  -21.9599 H   0  0  0  0  0  0
    6.8800   11.5883  -24.1593 H   0  0  0  0  0  0
  1  2  2  0  0  0
  1  3  1  0  0  0
  1 34  1  0  0  0
  2  6  1  0  0  0
  2 35  1  0  0  0
  3  5  2  0  0  0
  3 27  1  0  0  0
  4  5  1  0  0  0
  4  6  2  0  0  0
  4 18  1  0  0  0
  5 24  1  0  0  0
  6 10  1  0  0  0
  7 10  2  0  0  0
  7 23  1  0  0  0
  7 33  1  0  0  0
  8 21  1  0  0  0
  8 22  1  0  0  0
  8 36  1  0  0  0
  8 37  1  0  0  0
  9 21  1  0  0  0
  9 31  1  0  0  0
  9 38  1  0  0  0
  9 39  1  0  0  0
 10 40  1  0  0  0
 11 12  1  0  0  0
 11 14  2  0  0  0
 11 15  1  0  0  0
 12 17  1  0  0  0
 12 28  2  0  0  0
 13 28  1  0  0  0
 13 29  2  0  0  0
 13 54  1  0  0  0
 14 29  1  0  0  0
 14 31  1  0  0  0
 15 30  2  0  0  0
 15 41  1  0  0  0
 16 17  2  0  0  0
 16 18  1  0  0  0
 16 30  1  0  0  0
 17 26  1  0  0  0
 18 23  2  0  0  0
 19 20  1  0  0  0
 19 31  1  0  0  0
 19 42  1  0  0  0
 19 43  1  0  0  0
 20 22  1  0  0  0
 20 32  1  0  0  0
 20 44  1  0  0  0
 21 32  1  0  0  0
 21 45  1  0  0  0
 22 46  1  0  0  0
 22 47  1  0  0  0
 23 48  1  0  0  0
 24 25  3  0  0  0
 25 49  1  0  0  0
 32 50  1  0  0  0
 33 51  1  0  0  0
 52 56  1  0  0  0
 52 57  1  0  0  0
 52 61  1  0  0  0
 52 62  1  0  0  0
 53 55  1  0  0  0
 53 60  1  0  0  0
 53 63  1  0  0  0
 54 56  1  0  0  0
 54 64  1  0  0  0
 54 65  1  0  0  0
 55 57  1  0  0  0
 55 59  2  0  0  0
 56 66  1  0  0  0
 56 67  1  0  0  0
 57 68  1  0  0  0
 57 69  1  0  0  0
 58 59  1  0  0  0
 58 60  2  0  0  0
 58 70  1  0  0  0
 59 71  1  0  0  0
 60 72  1  0  0  0
M  CHG  1  52   1
M  END
> <s_m_entry_id>
280

> <s_m_entry_name>
000000122.1

> <s_m_Source_Path>
/Users/zaksoul/Documents/3r_UNI/2nd_SEMESTER/BSC/FRAG_RECON/RESULTS/2

> <s_m_Source_File>
000000122.mol2

> <i_m_Source_File_Index>
1

$$$$
No_0_135
                    3D
 Schrodinger Suite 2022-4.
 72 78  0  0  1  0            999 V2000
   -5.2330    3.5230  -22.1800 C   0  0  0  0  0  0
   -5.4920    3.6790  -23.5210 C   0  0  0  0  0  0
   -3.9910    3.3140  -21.8230 C   0  0  0  0  0  0
   -3.0830    3.4300  -23.9830 C   0  0  0  0  0  0
   -2.9280    3.2160  -22.5570 C   0  0  0  0  0  0
   -4.4330    3.6410  -24.5210 C   0  0  0  0  0  0
   -3.6570    3.6470  -26.7120 C   0  0  0  0  0  0
    6.0380    3.3090  -21.3460 C   0  0  0  0  0  0
    5.9200    3.4010  -23.8980 C   0  0  0  0  0  0
   -4.6750    3.7370  -25.8610 C   0  0  0  0  0  0
    2.1210    3.8310  -23.9600 C   0  0  0  0  0  0
    1.2630    4.9190  -23.6890 C   0  0  0  0  0  0
    3.0170    6.1810  -23.0140 C   0  0  0  0  0  0
    3.5110    4.0710  -23.6380 C   0  0  0  0  0  0
    1.6150    2.6860  -24.6060 C   0  0  0  0  0  0
   -0.5370    3.4350  -24.5300 C   0  0  0  0  0  0
   -0.0540    4.6810  -23.9480 C   0  0  0  0  0  0
   -1.9860    3.3890  -24.8970 C   0  0  0  0  0  0
    4.1910    1.5980  -23.2950 C   0  0  0  0  0  0
    5.1240    1.2920  -22.1340 C   0  0  2  0  0  0
    6.6740    2.8720  -22.6840 C   0  0  2  0  0  0
    5.0640    2.3130  -20.9850 C   0  0  0  0  0  0
   -2.3020    3.5130  -26.3310 C   0  0  0  0  0  0
   -1.5780    2.8550  -21.9390 C   0  0  0  0  0  0
   -0.5420    2.5480  -21.4170 C   0  0  0  0  0  0
   -0.9310    5.7060  -23.6300 F   0  0  0  0  0  0
   -3.7860    3.1030  -20.4350 F   0  0  0  0  0  0
    1.6990    6.1010  -23.1740 N   0  0  0  0  0  0
    3.9450    5.2430  -23.2090 N   0  0  0  0  0  0
    0.3150    2.5500  -24.9210 N   0  0  0  0  0  0
    4.4630    3.0490  -23.7880 N   0  0  0  0  0  0
    6.5320    1.3940  -22.6040 N   0  0  1  0  0  0
   -3.8170    3.6310  -28.1030 O   0  0  0  0  0  0
   -6.0434    3.5742  -21.4619 H   0  0  0  0  0  0
   -6.5087    3.8366  -23.8623 H   0  0  0  0  0  0
    5.5383    4.2801  -21.4772 H   0  0  0  0  0  0
    6.8161    3.3574  -20.5699 H   0  0  0  0  0  0
    6.3366    2.9522  -24.8118 H   0  0  0  0  0  0
    6.0300    4.4943  -23.9495 H   0  0  0  0  0  0
   -5.6874    3.8836  -26.2196 H   0  0  0  0  0  0
    2.2821    1.8724  -24.8668 H   0  0  0  0  0  0
    3.1470    1.5163  -22.9581 H   0  0  0  0  0  0
    4.3827    0.8907  -24.1153 H   0  0  0  0  0  0
    4.9271    0.2804  -21.7494 H   0  0  0  0  0  0
    7.7347    3.1606  -22.7254 H   0  0  0  0  0  0
    4.0655    2.7739  -20.9598 H   0  0  0  0  0  0
    5.3709    1.8253  -20.0480 H   0  0  0  0  0  0
   -1.5251    3.5040  -27.0869 H   0  0  0  0  0  0
    0.3701    2.2790  -20.9579 H   0  0  0  0  0  0
    7.1884    0.9289  -21.8834 H   0  0  0  0  0  0
   -2.9660    3.5617  -28.5196 H   0  0  0  0  0  0
    4.2590    8.9240  -20.5260 N   0  3  0  0  0  0
    5.6030   11.0200  -22.5390 N   0  0  0  0  0  0
    3.5300    7.5460  -22.5650 C   0  0  0  0  0  0
    6.0340    9.8140  -22.0750 C   0  0  0  0  0  0
    3.8650    7.5710  -21.0590 C   0  0  0  0  0  0
    5.7050    9.3190  -20.6810 C   0  0  0  0  0  0
    6.7970   10.0180  -24.1320 C   0  0  0  0  0  0
    6.7560    9.1730  -22.9960 C   0  0  0  0  0  0
    6.0960   11.1050  -23.8060 C   0  0  0  0  0  0
    4.0009    8.9860  -19.5536 H   0  0  0  0  0  0
    3.6754    9.6295  -20.9477 H   0  0  0  0  0  0
    5.0312   11.6298  -21.9372 H   0  0  0  0  0  0
    4.4281    7.8070  -23.1441 H   0  0  0  0  0  0
    2.7719    8.3121  -22.7850 H   0  0  0  0  0  0
    3.0050    7.1910  -20.4880 H   0  0  0  0  0  0
    4.6699    6.8501  -20.8530 H   0  0  0  0  0  0
    6.3472    8.4597  -20.4379 H   0  0  0  0  0  0
    5.9509   10.1017  -19.9483 H   0  0  0  0  0  0
    7.3330    9.7060  -25.0210 H   0  0  0  0  0  0
    7.1709    8.1962  -22.7751 H   0  0  0  0  0  0
    5.8970   11.9842  -24.4081 H   0  0  0  0  0  0
  1  2  2  0  0  0
  1  3  1  0  0  0
  1 34  1  0  0  0
  2  6  1  0  0  0
  2 35  1  0  0  0
  3  5  2  0  0  0
  3 27  1  0  0  0
  4  5  1  0  0  0
  4  6  2  0  0  0
  4 18  1  0  0  0
  5 24  1  0  0  0
  6 10  1  0  0  0
  7 10  2  0  0  0
  7 23  1  0  0  0
  7 33  1  0  0  0
  8 21  1  0  0  0
  8 22  1  0  0  0
  8 36  1  0  0  0
  8 37  1  0  0  0
  9 21  1  0  0  0
  9 31  1  0  0  0
  9 38  1  0  0  0
  9 39  1  0  0  0
 10 40  1  0  0  0
 11 12  1  0  0  0
 11 14  2  0  0  0
 11 15  1  0  0  0
 12 17  1  0  0  0
 12 28  2  0  0  0
 13 28  1  0  0  0
 13 29  2  0  0  0
 13 54  1  0  0  0
 14 29  1  0  0  0
 14 31  1  0  0  0
 15 30  2  0  0  0
 15 41  1  0  0  0
 16 17  2  0  0  0
 16 18  1  0  0  0
 16 30  1  0  0  0
 17 26  1  0  0  0
 18 23  2  0  0  0
 19 20  1  0  0  0
 19 31  1  0  0  0
 19 42  1  0  0  0
 19 43  1  0  0  0
 20 22  1  0  0  0
 20 32  1  0  0  0
 20 44  1  0  0  0
 21 32  1  0  0  0
 21 45  1  0  0  0
 22 46  1  0  0  0
 22 47  1  0  0  0
 23 48  1  0  0  0
 24 25  3  0  0  0
 25 49  1  0  0  0
 32 50  1  0  0  0
 33 51  1  0  0  0
 52 56  1  0  0  0
 52 57  1  0  0  0
 52 61  1  0  0  0
 52 62  1  0  0  0
 53 55  1  0  0  0
 53 60  1  0  0  0
 53 63  1  0  0  0
 54 56  1  0  0  0
 54 64  1  0  0  0
 54 65  1  0  0  0
 55 57  1  0  0  0
 55 59  2  0  0  0
 56 66  1  0  0  0
 56 67  1  0  0  0
 57 68  1  0  0  0
 57 69  1  0  0  0
 58 59  1  0  0  0
 58 60  2  0  0  0
 58 70  1  0  0  0
 59 71  1  0  0  0
 60 72  1  0  0  0
M  CHG  1  52   1
M  END
> <s_m_entry_id>
281

> <s_m_entry_name>
000000123.1

> <s_m_Source_Path>
/Users/zaksoul/Documents/3r_UNI/2nd_SEMESTER/BSC/FRAG_RECON/RESULTS/2

> <s_m_Source_File>
000000123.mol2

> <i_m_Source_File_Index>
1

$$$$
No_0_136
                    3D
 Schrodinger Suite 2022-4.
 72 78  0  0  1  0            999 V2000
   -5.2310    3.6740  -21.8710 C   0  0  0  0  0  0
   -5.4980    3.8470  -23.2090 C   0  0  0  0  0  0
   -3.9930    3.4200  -21.5300 C   0  0  0  0  0  0
   -3.1050    3.5170  -23.6980 C   0  0  0  0  0  0
   -2.9420    3.2890  -22.2750 C   0  0  0  0  0  0
   -4.4520    3.7780  -24.2200 C   0  0  0  0  0  0
   -3.7010    3.7710  -26.4200 C   0  0  0  0  0  0
    6.0350    3.0620  -21.1630 C   0  0  0  0  0  0
    5.8920    3.1740  -23.7130 C   0  0  0  0  0  0
   -4.7050    3.8910  -25.5560 C   0  0  0  0  0  0
    2.1090    3.7370  -23.7310 C   0  0  0  0  0  0
    1.2930    4.8520  -23.4430 C   0  0  0  0  0  0
    3.0970    6.0490  -22.7810 C   0  0  0  0  0  0
    3.5110    3.9260  -23.4220 C   0  0  0  0  0  0
    1.5580    2.6140  -24.3780 C   0  0  0  0  0  0
   -0.5660    3.4370  -24.2730 C   0  0  0  0  0  0
   -0.0340    4.6620  -23.6900 C   0  0  0  0  0  0
   -2.0200    3.4440  -24.6250 C   0  0  0  0  0  0
    4.1080    1.4290  -23.1020 C   0  0  0  0  0  0
    5.0420    1.0830  -21.9530 C   0  0  2  0  0  0
    6.6400    2.6110  -22.5100 C   0  0  2  0  0  0
    5.0300    2.0990  -20.7970 C   0  0  0  0  0  0
   -2.3470    3.5880  -26.0540 C   0  0  0  0  0  0
   -1.5990    2.8770  -21.6740 C   0  0  0  0  0  0
   -0.5680    2.5320  -21.1660 C   0  0  0  0  0  0
   -0.8710    5.7140  -23.3560 F   0  0  0  0  0  0
   -3.7810    3.1930  -20.1450 F   0  0  0  0  0  0
    1.7760    6.0150  -22.9260 N   0  0  0  0  0  0
    3.9900    5.0800  -22.9910 N   0  0  0  0  0  0
    0.2500    2.5260  -24.6800 N   0  0  0  0  0  0
    4.4250    2.8720  -23.5890 N   0  0  0  0  0  0
    6.4480    1.1390  -22.4380 N   0  0  1  0  0  0
   -3.8760    3.7700  -27.8090 O   0  0  0  0  0  0
   -6.0315    3.7483  -21.1438 H   0  0  0  0  0  0
   -6.5125    4.0427  -23.5371 H   0  0  0  0  0  0
    5.5675    4.0505  -21.2831 H   0  0  0  0  0  0
    6.8223    3.0781  -20.3949 H   0  0  0  0  0  0
    6.2825    2.7169  -24.6342 H   0  0  0  0  0  0
    6.0394    4.2631  -23.7594 H   0  0  0  0  0  0
   -5.7152    4.0756  -25.9031 H   0  0  0  0  0  0
    2.1932    1.7791  -24.6509 H   0  0  0  0  0  0
    3.0657    1.3806  -22.7539 H   0  0  0  0  0  0
    4.2654    0.7205  -23.9286 H   0  0  0  0  0  0
    4.8139    0.0768  -21.5715 H   0  0  0  0  0  0
    7.7092    2.8644  -22.5615 H   0  0  0  0  0  0
    4.0482    2.5934  -20.7576 H   0  0  0  0  0  0
    5.3297    1.5945  -19.8666 H   0  0  0  0  0  0
   -1.5793    3.5559  -26.8187 H   0  0  0  0  0  0
    0.3386    2.2268  -20.7187 H   0  0  0  0  0  0
    7.0950    0.6471  -21.7268 H   0  0  0  0  0  0
   -3.0326    3.6740  -28.2356 H   0  0  0  0  0  0
    4.8220    8.6130  -20.3920 N   0  3  0  0  0  0
    5.5740   10.9560  -22.4410 N   0  0  0  0  0  0
    3.6630    7.3910  -22.3290 C   0  0  0  0  0  0
    6.1410    9.7360  -22.2190 C   0  0  0  0  0  0
    4.3520    7.2950  -20.9520 C   0  0  0  0  0  0
    6.1750    9.0980  -20.8460 C   0  0  0  0  0  0
    6.3760   10.1700  -24.3660 C   0  0  0  0  0  0
    6.6370    9.2230  -23.3460 C   0  0  0  0  0  0
    5.7430   11.1830  -23.7730 C   0  0  0  0  0  0
    4.8060    8.5710  -19.3850 H   0  0  0  0  0  0
    4.1329    9.3221  -20.5880 H   0  0  0  0  0  0
    5.1468   11.4752  -21.6607 H   0  0  0  0  0  0
    4.3849    7.7529  -23.0759 H   0  0  0  0  0  0
    2.8512    8.1318  -22.2820 H   0  0  0  0  0  0
    3.6679    6.8179  -20.2348 H   0  0  0  0  0  0
    5.2047    6.6032  -21.0180 H   0  0  0  0  0  0
    6.8829    8.2561  -20.8520 H   0  0  0  0  0  0
    6.5678    9.8215  -20.1165 H   0  0  0  0  0  0
    6.6889    9.9711  -25.3846 H   0  0  0  0  0  0
    7.1229    8.2541  -23.3330 H   0  0  0  0  0  0
    5.3770   12.1021  -24.2161 H   0  0  0  0  0  0
  1  2  2  0  0  0
  1  3  1  0  0  0
  1 34  1  0  0  0
  2  6  1  0  0  0
  2 35  1  0  0  0
  3  5  2  0  0  0
  3 27  1  0  0  0
  4  5  1  0  0  0
  4  6  2  0  0  0
  4 18  1  0  0  0
  5 24  1  0  0  0
  6 10  1  0  0  0
  7 10  2  0  0  0
  7 23  1  0  0  0
  7 33  1  0  0  0
  8 21  1  0  0  0
  8 22  1  0  0  0
  8 36  1  0  0  0
  8 37  1  0  0  0
  9 21  1  0  0  0
  9 31  1  0  0  0
  9 38  1  0  0  0
  9 39  1  0  0  0
 10 40  1  0  0  0
 11 12  1  0  0  0
 11 14  2  0  0  0
 11 15  1  0  0  0
 12 17  1  0  0  0
 12 28  2  0  0  0
 13 28  1  0  0  0
 13 29  2  0  0  0
 13 54  1  0  0  0
 14 29  1  0  0  0
 14 31  1  0  0  0
 15 30  2  0  0  0
 15 41  1  0  0  0
 16 17  2  0  0  0
 16 18  1  0  0  0
 16 30  1  0  0  0
 17 26  1  0  0  0
 18 23  2  0  0  0
 19 20  1  0  0  0
 19 31  1  0  0  0
 19 42  1  0  0  0
 19 43  1  0  0  0
 20 22  1  0  0  0
 20 32  1  0  0  0
 20 44  1  0  0  0
 21 32  1  0  0  0
 21 45  1  0  0  0
 22 46  1  0  0  0
 22 47  1  0  0  0
 23 48  1  0  0  0
 24 25  3  0  0  0
 25 49  1  0  0  0
 32 50  1  0  0  0
 33 51  1  0  0  0
 52 56  1  0  0  0
 52 57  1  0  0  0
 52 61  1  0  0  0
 52 62  1  0  0  0
 53 55  1  0  0  0
 53 60  1  0  0  0
 53 63  1  0  0  0
 54 56  1  0  0  0
 54 64  1  0  0  0
 54 65  1  0  0  0
 55 57  1  0  0  0
 55 59  2  0  0  0
 56 66  1  0  0  0
 56 67  1  0  0  0
 57 68  1  0  0  0
 57 69  1  0  0  0
 58 59  1  0  0  0
 58 60  2  0  0  0
 58 70  1  0  0  0
 59 71  1  0  0  0
 60 72  1  0  0  0
M  CHG  1  52   1
M  END
> <s_m_entry_id>
282

> <s_m_entry_name>
000000124.1

> <s_m_Source_Path>
/Users/zaksoul/Documents/3r_UNI/2nd_SEMESTER/BSC/FRAG_RECON/RESULTS/2

> <s_m_Source_File>
000000124.mol2

> <i_m_Source_File_Index>
1

$$$$
No_0_137
                    3D
 Schrodinger Suite 2022-4.
 71 77  0  0  1  0            999 V2000
   -5.0500    3.4720  -22.0710 C   0  0  0  0  0  0
   -5.3190    3.6290  -23.4100 C   0  0  0  0  0  0
   -3.8080    3.2490  -21.7240 C   0  0  0  0  0  0
   -2.9170    3.3480  -23.8910 C   0  0  0  0  0  0
   -2.7530    3.1350  -22.4660 C   0  0  0  0  0  0
   -4.2690    3.5750  -24.4190 C   0  0  0  0  0  0
   -3.5120    3.5670  -26.6160 C   0  0  0  0  0  0
    6.2240    3.1190  -21.3300 C   0  0  0  0  0  0
    6.0850    3.2070  -23.8820 C   0  0  0  0  0  0
   -4.5210    3.6710  -25.7560 C   0  0  0  0  0  0
    2.2910    3.6850  -23.9130 C   0  0  0  0  0  0
    1.4490    4.7840  -23.6370 C   0  0  0  0  0  0
    3.2240    6.0260  -22.9800 C   0  0  0  0  0  0
    3.6870    3.9080  -23.6030 C   0  0  0  0  0  0
    1.7660    2.5450  -24.5520 C   0  0  0  0  0  0
   -0.3760    3.3200  -24.4590 C   0  0  0  0  0  0
    0.1280    4.5620  -23.8850 C   0  0  0  0  0  0
   -1.8280    3.2920  -24.8150 C   0  0  0  0  0  0
    4.3390    1.4280  -23.2600 C   0  0  0  0  0  0
    5.2780    1.1120  -22.1060 C   0  0  2  0  0  0
    6.8420    2.6710  -22.6720 C   0  0  2  0  0  0
    5.2400    2.1360  -20.9590 C   0  0  0  0  0  0
   -2.1550    3.4170  -26.2460 C   0  0  0  0  0  0
   -1.4020    2.7590  -21.8590 C   0  0  0  0  0  0
   -0.3660    2.4410  -21.3450 C   0  0  0  0  0  0
   -0.7340    5.5980  -23.5620 F   0  0  0  0  0  0
   -3.5950    3.0380  -20.3380 F   0  0  0  0  0  0
    1.9040    5.9620  -23.1280 N   0  0  0  0  0  0
    4.1390    5.0760  -23.1800 N   0  0  0  0  0  0
    0.4620    2.4250  -24.8560 N   0  0  0  0  0  0
    4.6250    2.8740  -23.7580 N   0  0  0  0  0  0
    6.6830    1.1960  -22.5890 N   0  0  1  0  0  0
   -3.6830    3.5510  -28.0060 O   0  0  0  0  0  0
   -5.8538    3.5352  -21.3465 H   0  0  0  0  0  0
   -6.3364    3.7987  -23.7434 H   0  0  0  0  0  0
    5.7347    4.0956  -21.4601 H   0  0  0  0  0  0
    7.0093    3.1594  -20.5608 H   0  0  0  0  0  0
    6.4887    2.7518  -24.7984 H   0  0  0  0  0  0
    6.2081    4.2987  -23.9365 H   0  0  0  0  0  0
   -5.5340    3.8306  -26.1074 H   0  0  0  0  0  0
    2.4208    1.7227  -24.8167 H   0  0  0  0  0  0
    3.2968    1.3594  -22.9149 H   0  0  0  0  0  0
    4.5146    0.7166  -24.0804 H   0  0  0  0  0  0
    5.0721    0.1037  -21.7174 H   0  0  0  0  0  0
    7.9054    2.9475  -22.7235 H   0  0  0  0  0  0
    4.2474    2.6091  -20.9267 H   0  0  0  0  0  0
    5.5488    1.6466  -20.0235 H   0  0  0  0  0  0
   -1.3841    3.3969  -27.0078 H   0  0  0  0  0  0
    0.5463    2.1602  -20.8933 H   0  0  0  0  0  0
    7.3390    0.7248  -21.8721 H   0  0  0  0  0  0
   -2.8364    3.4699  -28.4293 H   0  0  0  0  0  0
    3.9160    9.0900  -20.6480 N   0  3  0  0  0  0
    6.3500    9.3750  -22.3710 N   0  0  0  0  0  0
    8.3180    8.5420  -21.9920 N   0  0  0  0  0  0
    3.4400    7.7210  -21.0680 C   0  0  0  0  0  0
    5.2970    9.1810  -20.0470 C   0  0  0  0  0  0
    3.7580    7.3840  -22.5380 C   0  0  0  0  0  0
    7.6350    8.4990  -20.8070 C   0  0  0  0  0  0
    6.4270    9.0050  -21.0430 C   0  0  0  0  0  0
    7.5240    9.0680  -22.9070 C   0  0  0  0  0  0
    3.2492    9.4909  -20.0072 H   0  0  0  0  0  0
    3.8550    9.7181  -21.4341 H   0  0  0  0  0  0
    9.2858    8.1931  -22.0420 H   0  0  0  0  0  0
    2.3550    7.6460  -20.9030 H   0  0  0  0  0  0
    3.8902    6.9607  -20.4128 H   0  0  0  0  0  0
    5.3960    8.4328  -19.2468 H   0  0  0  0  0  0
    5.4090   10.1487  -19.5361 H   0  0  0  0  0  0
    4.8467    7.4160  -22.6920 H   0  0  0  0  0  0
    3.3459    8.1682  -23.1901 H   0  0  0  0  0  0
    8.1139    8.1001  -19.9201 H   0  0  0  0  0  0
    7.7079    9.2609  -23.9577 H   0  0  0  0  0  0
  1  2  2  0  0  0
  1  3  1  0  0  0
  1 34  1  0  0  0
  2  6  1  0  0  0
  2 35  1  0  0  0
  3  5  2  0  0  0
  3 27  1  0  0  0
  4  5  1  0  0  0
  4  6  2  0  0  0
  4 18  1  0  0  0
  5 24  1  0  0  0
  6 10  1  0  0  0
  7 10  2  0  0  0
  7 23  1  0  0  0
  7 33  1  0  0  0
  8 21  1  0  0  0
  8 22  1  0  0  0
  8 36  1  0  0  0
  8 37  1  0  0  0
  9 21  1  0  0  0
  9 31  1  0  0  0
  9 38  1  0  0  0
  9 39  1  0  0  0
 10 40  1  0  0  0
 11 12  1  0  0  0
 11 14  2  0  0  0
 11 15  1  0  0  0
 12 17  1  0  0  0
 12 28  2  0  0  0
 13 28  1  0  0  0
 13 29  2  0  0  0
 13 57  1  0  0  0
 14 29  1  0  0  0
 14 31  1  0  0  0
 15 30  2  0  0  0
 15 41  1  0  0  0
 16 17  2  0  0  0
 16 18  1  0  0  0
 16 30  1  0  0  0
 17 26  1  0  0  0
 18 23  2  0  0  0
 19 20  1  0  0  0
 19 31  1  0  0  0
 19 42  1  0  0  0
 19 43  1  0  0  0
 20 22  1  0  0  0
 20 32  1  0  0  0
 20 44  1  0  0  0
 21 32  1  0  0  0
 21 45  1  0  0  0
 22 46  1  0  0  0
 22 47  1  0  0  0
 23 48  1  0  0  0
 24 25  3  0  0  0
 25 49  1  0  0  0
 32 50  1  0  0  0
 33 51  1  0  0  0
 52 55  1  0  0  0
 52 56  1  0  0  0
 52 61  1  0  0  0
 52 62  1  0  0  0
 53 59  1  0  0  0
 53 60  2  0  0  0
 54 58  1  0  0  0
 54 60  1  0  0  0
 54 63  1  0  0  0
 55 57  1  0  0  0
 55 64  1  0  0  0
 55 65  1  0  0  0
 56 59  1  0  0  0
 56 66  1  0  0  0
 56 67  1  0  0  0
 57 68  1  0  0  0
 57 69  1  0  0  0
 58 59  2  0  0  0
 58 70  1  0  0  0
 60 71  1  0  0  0
M  CHG  1  52   1
M  END
> <s_m_entry_id>
283

> <s_m_entry_name>
000000125.1

> <s_m_Source_Path>
/Users/zaksoul/Documents/3r_UNI/2nd_SEMESTER/BSC/FRAG_RECON/RESULTS/2

> <s_m_Source_File>
000000125.mol2

> <i_m_Source_File_Index>
1

$$$$
No_0_138
                    3D
 Schrodinger Suite 2022-4.
 71 77  0  0  1  0            999 V2000
   -5.2960    3.6100  -22.2000 C   0  0  0  0  0  0
   -5.5340    3.7690  -23.5440 C   0  0  0  0  0  0
   -4.0610    3.3900  -21.8250 C   0  0  0  0  0  0
   -3.1210    3.4970  -23.9710 C   0  0  0  0  0  0
   -2.9890    3.2820  -22.5430 C   0  0  0  0  0  0
   -4.4610    3.7210  -24.5280 C   0  0  0  0  0  0
   -3.6550    3.7190  -26.7080 C   0  0  0  0  0  0
    5.9600    3.2950  -21.2040 C   0  0  0  0  0  0
    5.8790    3.3890  -23.7580 C   0  0  0  0  0  0
   -4.6830    3.8180  -25.8720 C   0  0  0  0  0  0
    2.0850    3.8520  -23.8740 C   0  0  0  0  0  0
    1.2330    4.9480  -23.6150 C   0  0  0  0  0  0
    2.9880    6.1950  -22.9150 C   0  0  0  0  0  0
    3.4730    4.0800  -23.5320 C   0  0  0  0  0  0
    1.5790    2.7120  -24.5270 C   0  0  0  0  0  0
   -0.5680    3.4800  -24.4820 C   0  0  0  0  0  0
   -0.0820    4.7220  -23.8930 C   0  0  0  0  0  0
   -2.0120    3.4470  -24.8700 C   0  0  0  0  0  0
    4.1250    1.6010  -23.1790 C   0  0  0  0  0  0
    5.0390    1.2870  -22.0050 C   0  0  2  0  0  0
    6.6100    2.8530  -22.5330 C   0  0  2  0  0  0
    4.9720    2.3090  -20.8570 C   0  0  0  0  0  0
   -2.3060    3.5740  -26.3080 C   0  0  0  0  0  0
   -1.6510    2.9090  -21.9060 C   0  0  0  0  0  0
   -0.6250    2.5940  -21.3690 C   0  0  0  0  0  0
   -0.9540    5.7540  -23.5880 F   0  0  0  0  0  0
   -3.8780    3.1780  -20.4340 F   0  0  0  0  0  0
    1.6720    6.1260  -23.0940 N   0  0  0  0  0  0
    3.9100    5.2490  -23.0970 N   0  0  0  0  0  0
    0.2820    2.5880  -24.8610 N   0  0  0  0  0  0
    4.4180    3.0490  -23.6680 N   0  0  0  0  0  0
    6.4550    1.3770  -22.4550 N   0  0  1  0  0  0
   -3.7950    3.7050  -28.1020 O   0  0  0  0  0  0
   -6.1160    3.6682  -21.4934 H   0  0  0  0  0  0
   -6.5446    3.9346  -23.8993 H   0  0  0  0  0  0
    5.4708    4.2704  -21.3432 H   0  0  0  0  0  0
    6.7271    3.3374  -20.4167 H   0  0  0  0  0  0
    6.3049    2.9358  -24.6653 H   0  0  0  0  0  0
    5.9991    4.4813  -23.8075 H   0  0  0  0  0  0
   -5.6889    3.9746  -26.2444 H   0  0  0  0  0  0
    2.2422    1.8923  -24.7788 H   0  0  0  0  0  0
    3.0757    1.5283  -22.8569 H   0  0  0  0  0  0
    4.3229    0.8923  -23.9967 H   0  0  0  0  0  0
    4.8281    0.2770  -21.6236 H   0  0  0  0  0  0
    7.6736    3.1325  -22.5592 H   0  0  0  0  0  0
    3.9771    2.7782  -20.8459 H   0  0  0  0  0  0
    5.2608    1.8182  -19.9159 H   0  0  0  0  0  0
   -1.5178    3.5569  -27.0520 H   0  0  0  0  0  0
    0.2779    2.3160  -20.8971 H   0  0  0  0  0  0
    7.0966    0.9065  -21.7247 H   0  0  0  0  0  0
   -2.9384    3.6279  -28.5056 H   0  0  0  0  0  0
    3.9430    9.1050  -20.4810 N   0  3  0  0  0  0
    5.9290    9.7490  -22.6290 N   0  0  0  0  0  0
    7.9860    9.0660  -22.7470 N   0  0  0  0  0  0
    3.4850    7.7390  -20.9290 C   0  0  0  0  0  0
    5.4100    9.2690  -20.1700 C   0  0  0  0  0  0
    3.5070    7.5540  -22.4590 C   0  0  0  0  0  0
    7.5750    8.8640  -21.4570 C   0  0  0  0  0  0
    6.3130    9.2780  -21.3880 C   0  0  0  0  0  0
    6.9810    9.5930  -23.4220 C   0  0  0  0  0  0
    3.4004    9.3898  -19.6806 H   0  0  0  0  0  0
    3.6720    9.7880  -21.1710 H   0  0  0  0  0  0
    8.9435    8.8109  -23.0281 H   0  0  0  0  0  0
    2.4678    7.5530  -20.5539 H   0  0  0  0  0  0
    4.1166    6.9705  -20.4593 H   0  0  0  0  0  0
    5.7291    8.4689  -19.4859 H   0  0  0  0  0  0
    5.5599   10.1967  -19.5982 H   0  0  0  0  0  0
    4.5332    7.6959  -22.8287 H   0  0  0  0  0  0
    2.9121    8.3499  -22.9309 H   0  0  0  0  0  0
    8.2578    8.4372  -20.7313 H   0  0  0  0  0  0
    6.9240    9.8879  -24.4636 H   0  0  0  0  0  0
  1  2  2  0  0  0
  1  3  1  0  0  0
  1 34  1  0  0  0
  2  6  1  0  0  0
  2 35  1  0  0  0
  3  5  2  0  0  0
  3 27  1  0  0  0
  4  5  1  0  0  0
  4  6  2  0  0  0
  4 18  1  0  0  0
  5 24  1  0  0  0
  6 10  1  0  0  0
  7 10  2  0  0  0
  7 23  1  0  0  0
  7 33  1  0  0  0
  8 21  1  0  0  0
  8 22  1  0  0  0
  8 36  1  0  0  0
  8 37  1  0  0  0
  9 21  1  0  0  0
  9 31  1  0  0  0
  9 38  1  0  0  0
  9 39  1  0  0  0
 10 40  1  0  0  0
 11 12  1  0  0  0
 11 14  2  0  0  0
 11 15  1  0  0  0
 12 17  1  0  0  0
 12 28  2  0  0  0
 13 28  1  0  0  0
 13 29  2  0  0  0
 13 57  1  0  0  0
 14 29  1  0  0  0
 14 31  1  0  0  0
 15 30  2  0  0  0
 15 41  1  0  0  0
 16 17  2  0  0  0
 16 18  1  0  0  0
 16 30  1  0  0  0
 17 26  1  0  0  0
 18 23  2  0  0  0
 19 20  1  0  0  0
 19 31  1  0  0  0
 19 42  1  0  0  0
 19 43  1  0  0  0
 20 22  1  0  0  0
 20 32  1  0  0  0
 20 44  1  0  0  0
 21 32  1  0  0  0
 21 45  1  0  0  0
 22 46  1  0  0  0
 22 47  1  0  0  0
 23 48  1  0  0  0
 24 25  3  0  0  0
 25 49  1  0  0  0
 32 50  1  0  0  0
 33 51  1  0  0  0
 52 55  1  0  0  0
 52 56  1  0  0  0
 52 61  1  0  0  0
 52 62  1  0  0  0
 53 59  1  0  0  0
 53 60  2  0  0  0
 54 58  1  0  0  0
 54 60  1  0  0  0
 54 63  1  0  0  0
 55 57  1  0  0  0
 55 64  1  0  0  0
 55 65  1  0  0  0
 56 59  1  0  0  0
 56 66  1  0  0  0
 56 67  1  0  0  0
 57 68  1  0  0  0
 57 69  1  0  0  0
 58 59  2  0  0  0
 58 70  1  0  0  0
 60 71  1  0  0  0
M  CHG  1  52   1
M  END
> <s_m_entry_id>
284

> <s_m_entry_name>
000000126.1

> <s_m_Source_Path>
/Users/zaksoul/Documents/3r_UNI/2nd_SEMESTER/BSC/FRAG_RECON/RESULTS/2

> <s_m_Source_File>
000000126.mol2

> <i_m_Source_File_Index>
1

$$$$
No_0_139
                    3D
 Schrodinger Suite 2022-4.
 71 77  0  0  1  0            999 V2000
   -5.1810    3.6090  -21.8530 C   0  0  0  0  0  0
   -5.4520    3.8050  -23.1860 C   0  0  0  0  0  0
   -3.9420    3.3510  -21.5190 C   0  0  0  0  0  0
   -3.0590    3.4860  -23.6870 C   0  0  0  0  0  0
   -2.8930    3.2340  -22.2690 C   0  0  0  0  0  0
   -4.4090    3.7540  -24.2010 C   0  0  0  0  0  0
   -3.6630    3.7850  -26.4030 C   0  0  0  0  0  0
    6.0870    3.0010  -21.1820 C   0  0  0  0  0  0
    5.9380    3.1560  -23.7310 C   0  0  0  0  0  0
   -4.6650    3.8890  -25.5350 C   0  0  0  0  0  0
    2.1540    3.7130  -23.7290 C   0  0  0  0  0  0
    1.3370    4.8230  -23.4210 C   0  0  0  0  0  0
    3.1410    6.0110  -22.7430 C   0  0  0  0  0  0
    3.5570    3.8990  -23.4210 C   0  0  0  0  0  0
    1.6030    2.6010  -24.3930 C   0  0  0  0  0  0
   -0.5220    3.4190  -24.2700 C   0  0  0  0  0  0
    0.0100    4.6350  -23.6670 C   0  0  0  0  0  0
   -1.9770    3.4300  -24.6180 C   0  0  0  0  0  0
    4.1570    1.3990  -23.1440 C   0  0  0  0  0  0
    5.0950    1.0350  -22.0030 C   0  0  2  0  0  0
    6.6890    2.5740  -22.5390 C   0  0  2  0  0  0
    5.0840    2.0310  -20.8310 C   0  0  0  0  0  0
   -2.3080    3.5970  -26.0440 C   0  0  0  0  0  0
   -1.5470    2.8150  -21.6780 C   0  0  0  0  0  0
   -0.5150    2.4620  -21.1780 C   0  0  0  0  0  0
   -0.8280    5.6800  -23.3140 F   0  0  0  0  0  0
   -3.7260    3.1020  -20.1390 F   0  0  0  0  0  0
    1.8200    5.9780  -22.8860 N   0  0  0  0  0  0
    4.0350    5.0470  -22.9720 N   0  0  0  0  0  0
    0.2950    2.5160  -24.6930 N   0  0  0  0  0  0
    4.4710    2.8500  -23.6070 N   0  0  0  0  0  0
    6.5000    1.1010  -22.4910 N   0  0  1  0  0  0
   -3.8410    3.8060  -27.7920 O   0  0  0  0  0  0
   -5.9796    3.6712  -21.1226 H   0  0  0  0  0  0
   -6.4675    4.0037  -23.5091 H   0  0  0  0  0  0
    5.6179    3.9906  -21.2849 H   0  0  0  0  0  0
    6.8763    3.0060  -20.4159 H   0  0  0  0  0  0
    6.3275    2.7150  -24.6604 H   0  0  0  0  0  0
    6.0833    4.2460  -23.7593 H   0  0  0  0  0  0
   -5.6765    4.0776  -25.8762 H   0  0  0  0  0  0
    2.2385    1.7718  -24.6821 H   0  0  0  0  0  0
    3.1157    1.3435  -22.7939 H   0  0  0  0  0  0
    4.3144    0.7047  -23.9826 H   0  0  0  0  0  0
    4.8700    0.0218  -21.6387 H   0  0  0  0  0  0
    7.7578    2.8293  -22.5885 H   0  0  0  0  0  0
    4.1018    2.5236  -20.7805 H   0  0  0  0  0  0
    5.3877    1.5123  -19.9097 H   0  0  0  0  0  0
   -1.5411    3.5789  -26.8099 H   0  0  0  0  0  0
    0.3934    2.1519  -20.7378 H   0  0  0  0  0  0
    7.1492    0.5983  -21.7894 H   0  0  0  0  0  0
   -2.9984    3.7179  -28.2217 H   0  0  0  0  0  0
    5.5240    8.5240  -20.9240 N   0  3  0  0  0  0
    4.6420   10.3660  -23.1160 N   0  0  0  0  0  0
    5.6300   10.6870  -25.0220 N   0  0  0  0  0  0
    4.9980    7.2080  -21.4410 C   0  0  0  0  0  0
    6.5240    9.2500  -21.7880 C   0  0  0  0  0  0
    3.7060    7.3460  -22.2710 C   0  0  0  0  0  0
    6.5440   10.0840  -24.2000 C   0  0  0  0  0  0
    5.9340    9.8840  -23.0340 C   0  0  0  0  0  0
    4.5050   10.8390  -24.3480 C   0  0  0  0  0  0
    5.9178    8.3861  -20.0064 H   0  0  0  0  0  0
    4.7486    9.1375  -20.7281 H   0  0  0  0  0  0
    5.8899   10.9339  -25.9876 H   0  0  0  0  0  0
    4.8171    6.5293  -20.5944 H   0  0  0  0  0  0
    5.7732    6.7189  -22.0491 H   0  0  0  0  0  0
    7.3268    8.5562  -22.0779 H   0  0  0  0  0  0
    7.0289   10.0238  -21.1911 H   0  0  0  0  0  0
    3.8991    7.9892  -23.1422 H   0  0  0  0  0  0
    2.9457    7.8752  -21.6778 H   0  0  0  0  0  0
    7.5423    9.8699  -24.5641 H   0  0  0  0  0  0
    3.5613   11.2709  -24.6609 H   0  0  0  0  0  0
  1  2  2  0  0  0
  1  3  1  0  0  0
  1 34  1  0  0  0
  2  6  1  0  0  0
  2 35  1  0  0  0
  3  5  2  0  0  0
  3 27  1  0  0  0
  4  5  1  0  0  0
  4  6  2  0  0  0
  4 18  1  0  0  0
  5 24  1  0  0  0
  6 10  1  0  0  0
  7 10  2  0  0  0
  7 23  1  0  0  0
  7 33  1  0  0  0
  8 21  1  0  0  0
  8 22  1  0  0  0
  8 36  1  0  0  0
  8 37  1  0  0  0
  9 21  1  0  0  0
  9 31  1  0  0  0
  9 38  1  0  0  0
  9 39  1  0  0  0
 10 40  1  0  0  0
 11 12  1  0  0  0
 11 14  2  0  0  0
 11 15  1  0  0  0
 12 17  1  0  0  0
 12 28  2  0  0  0
 13 28  1  0  0  0
 13 29  2  0  0  0
 13 57  1  0  0  0
 14 29  1  0  0  0
 14 31  1  0  0  0
 15 30  2  0  0  0
 15 41  1  0  0  0
 16 17  2  0  0  0
 16 18  1  0  0  0
 16 30  1  0  0  0
 17 26  1  0  0  0
 18 23  2  0  0  0
 19 20  1  0  0  0
 19 31  1  0  0  0
 19 42  1  0  0  0
 19 43  1  0  0  0
 20 22  1  0  0  0
 20 32  1  0  0  0
 20 44  1  0  0  0
 21 32  1  0  0  0
 21 45  1  0  0  0
 22 46  1  0  0  0
 22 47  1  0  0  0
 23 48  1  0  0  0
 24 25  3  0  0  0
 25 49  1  0  0  0
 32 50  1  0  0  0
 33 51  1  0  0  0
 52 55  1  0  0  0
 52 56  1  0  0  0
 52 61  1  0  0  0
 52 62  1  0  0  0
 53 59  1  0  0  0
 53 60  2  0  0  0
 54 58  1  0  0  0
 54 60  1  0  0  0
 54 63  1  0  0  0
 55 57  1  0  0  0
 55 64  1  0  0  0
 55 65  1  0  0  0
 56 59  1  0  0  0
 56 66  1  0  0  0
 56 67  1  0  0  0
 57 68  1  0  0  0
 57 69  1  0  0  0
 58 59  2  0  0  0
 58 70  1  0  0  0
 60 71  1  0  0  0
M  CHG  1  52   1
M  END
> <s_m_entry_id>
285

> <s_m_entry_name>
000000127.1

> <s_m_Source_Path>
/Users/zaksoul/Documents/3r_UNI/2nd_SEMESTER/BSC/FRAG_RECON/RESULTS/2

> <s_m_Source_File>
000000127.mol2

> <i_m_Source_File_Index>
1

$$$$
No_0_140
                    3D
 Schrodinger Suite 2022-4.
 73 79  0  0  1  0            999 V2000
   -4.9350    3.8570  -22.0790 C   0  0  0  0  0  0
   -5.1900    4.0560  -23.4150 C   0  0  0  0  0  0
   -3.7080    3.5590  -21.7340 C   0  0  0  0  0  0
   -2.8060    3.6550  -23.8970 C   0  0  0  0  0  0
   -2.6580    3.4040  -22.4760 C   0  0  0  0  0  0
   -4.1410    3.9660  -24.4220 C   0  0  0  0  0  0
   -3.3790    3.9620  -26.6180 C   0  0  0  0  0  0
    6.3010    2.8740  -21.3230 C   0  0  0  0  0  0
    6.1750    3.0230  -23.8730 C   0  0  0  0  0  0
   -4.3840    4.1040  -25.7580 C   0  0  0  0  0  0
    2.4130    3.7070  -23.9010 C   0  0  0  0  0  0
    1.6320    4.8440  -23.6040 C   0  0  0  0  0  0
    3.4700    5.9740  -22.9170 C   0  0  0  0  0  0
    3.8180    3.8470  -23.5840 C   0  0  0  0  0  0
    1.8290    2.6110  -24.5650 C   0  0  0  0  0  0
   -0.2680    3.5000  -24.4610 C   0  0  0  0  0  0
    0.3000    4.7000  -23.8590 C   0  0  0  0  0  0
   -1.7190    3.5590  -24.8190 C   0  0  0  0  0  0
    4.3320    1.3290  -23.2920 C   0  0  0  0  0  0
    5.2490    0.9390  -22.1430 C   0  0  2  0  0  0
    6.8980    2.4210  -22.6730 C   0  0  2  0  0  0
    5.2640    1.9390  -20.9750 C   0  0  0  0  0  0
   -2.0340    3.7310  -26.2480 C   0  0  0  0  0  0
   -1.3320    2.9420  -21.8740 C   0  0  0  0  0  0
   -0.3160    2.5570  -21.3650 C   0  0  0  0  0  0
   -0.5040    5.7750  -23.5160 F   0  0  0  0  0  0
   -3.5110    3.3080  -20.3520 F   0  0  0  0  0  0
    2.1480    5.9850  -23.0700 N   0  0  0  0  0  0
    4.3310    4.9800  -23.1360 N   0  0  0  0  0  0
    0.5210    2.5690  -24.8750 N   0  0  0  0  0  0
    4.6990    2.7670  -23.7590 N   0  0  0  0  0  0
    6.6590    0.9550  -22.6210 N   0  0  1  0  0  0
   -3.5470    3.9840  -28.0080 O   0  0  0  0  0  0
   -5.7360    3.9483  -21.3543 H   0  0  0  0  0  0
   -6.1958    4.2879  -23.7462 H   0  0  0  0  0  0
    5.8660    3.8783  -21.4330 H   0  0  0  0  0  0
    7.0842    2.8548  -20.5509 H   0  0  0  0  0  0
    6.5565    2.5648  -24.7974 H   0  0  0  0  0  0
    6.3577    4.1073  -23.9043 H   0  0  0  0  0  0
   -5.3861    4.3249  -26.1074 H   0  0  0  0  0  0
    2.4384    1.7597  -24.8461 H   0  0  0  0  0  0
    3.2868    1.3098  -22.9497 H   0  0  0  0  0  0
    4.4722    0.6259  -24.1263 H   0  0  0  0  0  0
    4.9878   -0.0645  -21.7759 H   0  0  0  0  0  0
    7.9751    2.6399  -22.7164 H   0  0  0  0  0  0
    4.2986    2.4646  -20.9336 H   0  0  0  0  0  0
    5.5426    1.4141  -20.0493 H   0  0  0  0  0  0
   -1.2632    3.6838  -27.0087 H   0  0  0  0  0  0
    0.5781    2.2180  -20.9169 H   0  0  0  0  0  0
    7.2860    0.4339  -21.9127 H   0  0  0  0  0  0
   -2.7048    3.8662  -28.4316 H   0  0  0  0  0  0
    3.6750    9.2670  -20.8580 N   0  3  0  0  0  0
    8.1170    8.6490  -22.0100 N   0  0  0  0  0  0
    4.0750    7.2920  -22.4460 C   0  0  0  0  0  0
    6.1480    9.7240  -21.1510 C   0  0  0  0  0  0
    3.4800    7.7930  -21.1130 C   0  0  0  0  0  0
    4.9660    9.6830  -20.1980 C   0  0  0  0  0  0
    7.4100   10.7870  -22.8370 C   0  0  0  0  0  0
    6.3350   10.7930  -21.9890 C   0  0  0  0  0  0
    7.0510    8.6890  -21.1870 C   0  0  0  0  0  0
    8.2660    9.7130  -22.8220 C   0  0  0  0  0  0
    2.8990    9.6150  -20.3170 H   0  0  0  0  0  0
    3.5680    9.7700  -21.7250 H   0  0  0  0  0  0
    5.1636    7.1760  -22.3390 H   0  0  0  0  0  0
    3.9310    8.0581  -23.2221 H   0  0  0  0  0  0
    2.4061    7.5570  -21.0820 H   0  0  0  0  0  0
    3.9140    7.2190  -20.2810 H   0  0  0  0  0  0
    5.1899    8.9963  -19.3684 H   0  0  0  0  0  0
    4.8370   10.6720  -19.7340 H   0  0  0  0  0  0
    7.5760   11.6229  -23.5069 H   0  0  0  0  0  0
    5.6391   11.6239  -21.9720 H   0  0  0  0  0  0
    6.8659    7.8715  -20.4996 H   0  0  0  0  0  0
    9.0992    9.7540  -23.5142 H   0  0  0  0  0  0
  1  2  2  0  0  0
  1  3  1  0  0  0
  1 34  1  0  0  0
  2  6  1  0  0  0
  2 35  1  0  0  0
  3  5  2  0  0  0
  3 27  1  0  0  0
  4  5  1  0  0  0
  4  6  2  0  0  0
  4 18  1  0  0  0
  5 24  1  0  0  0
  6 10  1  0  0  0
  7 10  2  0  0  0
  7 23  1  0  0  0
  7 33  1  0  0  0
  8 21  1  0  0  0
  8 22  1  0  0  0
  8 36  1  0  0  0
  8 37  1  0  0  0
  9 21  1  0  0  0
  9 31  1  0  0  0
  9 38  1  0  0  0
  9 39  1  0  0  0
 10 40  1  0  0  0
 11 12  1  0  0  0
 11 14  2  0  0  0
 11 15  1  0  0  0
 12 17  1  0  0  0
 12 28  2  0  0  0
 13 28  1  0  0  0
 13 29  2  0  0  0
 13 54  1  0  0  0
 14 29  1  0  0  0
 14 31  1  0  0  0
 15 30  2  0  0  0
 15 41  1  0  0  0
 16 17  2  0  0  0
 16 18  1  0  0  0
 16 30  1  0  0  0
 17 26  1  0  0  0
 18 23  2  0  0  0
 19 20  1  0  0  0
 19 31  1  0  0  0
 19 42  1  0  0  0
 19 43  1  0  0  0
 20 22  1  0  0  0
 20 32  1  0  0  0
 20 44  1  0  0  0
 21 32  1  0  0  0
 21 45  1  0  0  0
 22 46  1  0  0  0
 22 47  1  0  0  0
 23 48  1  0  0  0
 24 25  3  0  0  0
 25 49  1  0  0  0
 32 50  1  0  0  0
 33 51  1  0  0  0
 52 56  1  0  0  0
 52 57  1  0  0  0
 52 62  1  0  0  0
 52 63  1  0  0  0
 53 60  2  0  0  0
 53 61  1  0  0  0
 54 56  1  0  0  0
 54 64  1  0  0  0
 54 65  1  0  0  0
 55 57  1  0  0  0
 55 59  2  0  0  0
 55 60  1  0  0  0
 56 66  1  0  0  0
 56 67  1  0  0  0
 57 68  1  0  0  0
 57 69  1  0  0  0
 58 59  1  0  0  0
 58 61  2  0  0  0
 58 70  1  0  0  0
 59 71  1  0  0  0
 60 72  1  0  0  0
 61 73  1  0  0  0
M  CHG  1  52   1
M  END
> <s_m_entry_id>
286

> <s_m_entry_name>
000000128.1

> <s_m_Source_Path>
/Users/zaksoul/Documents/3r_UNI/2nd_SEMESTER/BSC/FRAG_RECON/RESULTS/2

> <s_m_Source_File>
000000128.mol2

> <i_m_Source_File_Index>
1

$$$$
No_0_141
                    3D
 Schrodinger Suite 2022-4.
 72 78  0  0  1  0            999 V2000
   -4.9830    3.5140  -21.9840 C   0  0  0  0  0  0
   -5.2680    3.6880  -23.3170 C   0  0  0  0  0  0
   -3.7380    3.2750  -21.6560 C   0  0  0  0  0  0
   -2.8760    3.3890  -23.8340 C   0  0  0  0  0  0
   -2.6950    3.1590  -22.4130 C   0  0  0  0  0  0
   -4.2320    3.6350  -24.3400 C   0  0  0  0  0  0
   -3.5050    3.6420  -26.5480 C   0  0  0  0  0  0
    6.2960    3.0410  -21.4000 C   0  0  0  0  0  0
    6.1240    3.1590  -23.9490 C   0  0  0  0  0  0
   -4.5010    3.7470  -25.6740 C   0  0  0  0  0  0
    2.3350    3.6740  -23.9230 C   0  0  0  0  0  0
    1.5080    4.7780  -23.6240 C   0  0  0  0  0  0
    3.3040    5.9950  -22.9780 C   0  0  0  0  0  0
    3.7370    3.8800  -23.6290 C   0  0  0  0  0  0
    1.7900    2.5460  -24.5670 C   0  0  0  0  0  0
   -0.3430    3.3420  -24.4370 C   0  0  0  0  0  0
    0.1810    4.5720  -23.8560 C   0  0  0  0  0  0
   -1.8000    3.3320  -24.7730 C   0  0  0  0  0  0
    4.3680    1.3900  -23.3220 C   0  0  0  0  0  0
    5.3190    1.0530  -22.1840 C   0  0  2  0  0  0
    6.8920    2.6020  -22.7550 C   0  0  2  0  0  0
    5.3070    2.0650  -21.0260 C   0  0  0  0  0  0
   -2.1450    3.4750  -26.1980 C   0  0  0  0  0  0
   -1.3400    2.7630  -21.8280 C   0  0  0  0  0  0
   -0.3000    2.4290  -21.3320 C   0  0  0  0  0  0
   -0.6660    5.6130  -23.5100 F   0  0  0  0  0  0
   -3.5080    3.0480  -20.2750 F   0  0  0  0  0  0
    1.9820    5.9460  -23.1090 N   0  0  0  0  0  0
    4.2060    5.0380  -23.2000 N   0  0  0  0  0  0
    0.4810    2.4420  -24.8550 N   0  0  0  0  0  0
    4.6620    2.8380  -23.8080 N   0  0  0  0  0  0
    6.7190    1.1280  -22.6850 N   0  0  1  0  0  0
   -3.6950    3.6420  -27.9360 O   0  0  0  0  0  0
   -5.7758    3.5772  -21.2474 H   0  0  0  0  0  0
   -6.2881    3.8717  -23.6343 H   0  0  0  0  0  0
    5.8156    4.0241  -21.5130 H   0  0  0  0  0  0
    7.0916    3.0662  -20.6408 H   0  0  0  0  0  0
    6.5108    2.7086  -24.8750 H   0  0  0  0  0  0
    6.2572    4.2500  -23.9934 H   0  0  0  0  0  0
   -5.5175    3.9206  -26.0082 H   0  0  0  0  0  0
    2.4325    1.7198  -24.8491 H   0  0  0  0  0  0
    3.3302    1.3274  -22.9626 H   0  0  0  0  0  0
    4.5265    0.6854  -24.1517 H   0  0  0  0  0  0
    5.1090    0.0425  -21.8034 H   0  0  0  0  0  0
    7.9574    2.8684  -22.8176 H   0  0  0  0  0  0
    4.3198    2.5475  -20.9745 H   0  0  0  0  0  0
    5.6237    1.5627  -20.1001 H   0  0  0  0  0  0
   -1.3852    3.4549  -26.9709 H   0  0  0  0  0  0
    0.6158    2.1351  -20.8961 H   0  0  0  0  0  0
    7.3797    0.6416  -21.9826 H   0  0  0  0  0  0
   -2.8549    3.5579  -28.3714 H   0  0  0  0  0  0
    4.0870    8.9580  -20.5470 N   0  3  0  0  0  0
    5.6060   10.7950  -22.1310 N   0  0  0  0  0  0
    8.0300    9.7620  -23.1480 N   0  0  0  0  0  0
    3.5490    7.6430  -21.0500 C   0  0  0  0  0  0
    5.5840    9.0650  -20.3910 C   0  0  0  0  0  0
    3.8580    7.3440  -22.5290 C   0  0  0  0  0  0
    7.4040    9.2300  -22.0880 C   0  0  0  0  0  0
    6.2210    9.7310  -21.5970 C   0  0  0  0  0  0
    7.4100   10.8210  -23.6880 C   0  0  0  0  0  0
    6.2310   11.3250  -23.1920 C   0  0  0  0  0  0
    3.6453    9.1839  -19.6695 H   0  0  0  0  0  0
    3.7620    9.7000  -21.1470 H   0  0  0  0  0  0
    2.4610    7.6100  -20.8912 H   0  0  0  0  0  0
    3.9390    6.8269  -20.4240 H   0  0  0  0  0  0
    6.0108    8.0595  -20.2611 H   0  0  0  0  0  0
    5.8180    9.6450  -19.4861 H   0  0  0  0  0  0
    4.9464    7.3630  -22.6871 H   0  0  0  0  0  0
    3.4360    8.1400  -23.1600 H   0  0  0  0  0  0
    7.8293    8.3704  -21.5827 H   0  0  0  0  0  0
    7.8370   11.3170  -24.5521 H   0  0  0  0  0  0
    5.8079   12.1863  -23.6962 H   0  0  0  0  0  0
  1  2  2  0  0  0
  1  3  1  0  0  0
  1 34  1  0  0  0
  2  6  1  0  0  0
  2 35  1  0  0  0
  3  5  2  0  0  0
  3 27  1  0  0  0
  4  5  1  0  0  0
  4  6  2  0  0  0
  4 18  1  0  0  0
  5 24  1  0  0  0
  6 10  1  0  0  0
  7 10  2  0  0  0
  7 23  1  0  0  0
  7 33  1  0  0  0
  8 21  1  0  0  0
  8 22  1  0  0  0
  8 36  1  0  0  0
  8 37  1  0  0  0
  9 21  1  0  0  0
  9 31  1  0  0  0
  9 38  1  0  0  0
  9 39  1  0  0  0
 10 40  1  0  0  0
 11 12  1  0  0  0
 11 14  2  0  0  0
 11 15  1  0  0  0
 12 17  1  0  0  0
 12 28  2  0  0  0
 13 28  1  0  0  0
 13 29  2  0  0  0
 13 57  1  0  0  0
 14 29  1  0  0  0
 14 31  1  0  0  0
 15 30  2  0  0  0
 15 41  1  0  0  0
 16 17  2  0  0  0
 16 18  1  0  0  0
 16 30  1  0  0  0
 17 26  1  0  0  0
 18 23  2  0  0  0
 19 20  1  0  0  0
 19 31  1  0  0  0
 19 42  1  0  0  0
 19 43  1  0  0  0
 20 22  1  0  0  0
 20 32  1  0  0  0
 20 44  1  0  0  0
 21 32  1  0  0  0
 21 45  1  0  0  0
 22 46  1  0  0  0
 22 47  1  0  0  0
 23 48  1  0  0  0
 24 25  3  0  0  0
 25 49  1  0  0  0
 32 50  1  0  0  0
 33 51  1  0  0  0
 52 55  1  0  0  0
 52 56  1  0  0  0
 52 62  1  0  0  0
 52 63  1  0  0  0
 53 59  2  0  0  0
 53 61  1  0  0  0
 54 58  2  0  0  0
 54 60  1  0  0  0
 55 57  1  0  0  0
 55 64  1  0  0  0
 55 65  1  0  0  0
 56 59  1  0  0  0
 56 66  1  0  0  0
 56 67  1  0  0  0
 57 68  1  0  0  0
 57 69  1  0  0  0
 58 59  1  0  0  0
 58 70  1  0  0  0
 60 61  2  0  0  0
 60 71  1  0  0  0
 61 72  1  0  0  0
M  CHG  1  52   1
M  END
> <s_m_entry_id>
287

> <s_m_entry_name>
000000129.1

> <s_m_Source_Path>
/Users/zaksoul/Documents/3r_UNI/2nd_SEMESTER/BSC/FRAG_RECON/RESULTS/2

> <s_m_Source_File>
000000129.mol2

> <i_m_Source_File_Index>
1

$$$$
No_0_142
                    3D
 Schrodinger Suite 2022-4.
 70 76  0  0  1  0            999 V2000
   -5.1020    3.8310  -22.1390 C   0  0  0  0  0  0
   -5.3450    3.9960  -23.4820 C   0  0  0  0  0  0
   -3.8720    3.5740  -21.7730 C   0  0  0  0  0  0
   -2.9450    3.6510  -23.9250 C   0  0  0  0  0  0
   -2.8090    3.4330  -22.4980 C   0  0  0  0  0  0
   -4.2810    3.9150  -24.4730 C   0  0  0  0  0  0
   -3.4910    3.8880  -26.6590 C   0  0  0  0  0  0
    6.1450    3.1730  -21.2220 C   0  0  0  0  0  0
    6.0490    3.2670  -23.7760 C   0  0  0  0  0  0
   -4.5100    4.0190  -25.8150 C   0  0  0  0  0  0
    2.2700    3.8470  -23.8660 C   0  0  0  0  0  0
    1.4540    4.9680  -23.6010 C   0  0  0  0  0  0
    3.2520    6.1610  -22.9150 C   0  0  0  0  0  0
    3.6670    4.0320  -23.5330 C   0  0  0  0  0  0
    1.7250    2.7220  -24.5140 C   0  0  0  0  0  0
   -0.3970    3.5550  -24.4540 C   0  0  0  0  0  0
    0.1310    4.7820  -23.8700 C   0  0  0  0  0  0
   -1.8440    3.5670  -24.8320 C   0  0  0  0  0  0
    4.2460    1.5350  -23.1840 C   0  0  0  0  0  0
    5.1580    1.1940  -22.0150 C   0  0  2  0  0  0
    6.7730    2.7100  -22.5550 C   0  0  2  0  0  0
    5.1300    2.2170  -20.8680 C   0  0  0  0  0  0
   -2.1440    3.7020  -26.2680 C   0  0  0  0  0  0
   -1.4780    3.0200  -21.8700 C   0  0  0  0  0  0
   -0.4590    2.6730  -21.3410 C   0  0  0  0  0  0
   -0.7070    5.8410  -23.5590 F   0  0  0  0  0  0
   -3.6860    3.3570  -20.3830 F   0  0  0  0  0  0
    1.9330    6.1330  -23.0840 N   0  0  0  0  0  0
    4.1430    5.1870  -23.1020 N   0  0  0  0  0  0
    0.4230    2.6380  -24.8390 N   0  0  0  0  0  0
    4.5790    2.9730  -23.6750 N   0  0  0  0  0  0
    6.5730    1.2390  -22.4760 N   0  0  1  0  0  0
   -3.6410    3.8780  -28.0510 O   0  0  0  0  0  0
   -5.9147    3.9153  -21.4266 H   0  0  0  0  0  0
   -6.3524    4.1937  -23.8302 H   0  0  0  0  0  0
    5.6849    4.1628  -21.3582 H   0  0  0  0  0  0
    6.9192    3.1912  -20.4408 H   0  0  0  0  0  0
    6.4548    2.8017  -24.6864 H   0  0  0  0  0  0
    6.2023    4.3551  -23.8274 H   0  0  0  0  0  0
   -5.5129    4.2057  -26.1814 H   0  0  0  0  0  0
    2.3610    1.8823  -24.7698 H   0  0  0  0  0  0
    3.1974    1.4946  -22.8540 H   0  0  0  0  0  0
    4.4155    0.8197  -24.0023 H   0  0  0  0  0  0
    4.9189    0.1911  -21.6316 H   0  0  0  0  0  0
    7.8443    2.9574  -22.5893 H   0  0  0  0  0  0
    4.1501    2.7165  -20.8498 H   0  0  0  0  0  0
    5.4106    1.7185  -19.9285 H   0  0  0  0  0  0
   -1.3626    3.6608  -27.0182 H   0  0  0  0  0  0
    0.4381    2.3680  -20.8749 H   0  0  0  0  0  0
    7.2045    0.7498  -21.7492 H   0  0  0  0  0  0
   -2.7905    3.7742  -28.4614 H   0  0  0  0  0  0
    7.3990   10.4900  -22.7140 O   0  0  0  0  0  0
    3.6300    9.3050  -20.6500 N   0  3  0  0  0  0
    7.8230    9.1860  -22.3740 N   0  0  0  0  0  0
    3.4780    7.8430  -20.9940 C   0  0  0  0  0  0
    4.9550    9.7320  -20.0720 C   0  0  0  0  0  0
    3.8150    7.5040  -22.4630 C   0  0  0  0  0  0
    6.3610   10.7900  -21.9330 C   0  0  0  0  0  0
    7.0170    8.8130  -21.4280 C   0  0  0  0  0  0
    6.0580    9.7980  -21.1070 C   0  0  0  0  0  0
    2.8907    9.5758  -20.0206 H   0  0  0  0  0  0
    3.4290    9.8600  -21.4671 H   0  0  0  0  0  0
    2.4502    7.5201  -20.7720 H   0  0  0  0  0  0
    4.1142    7.2428  -20.3268 H   0  0  0  0  0  0
    5.2459    9.0362  -19.2712 H   0  0  0  0  0  0
    4.8440   10.7160  -19.5930 H   0  0  0  0  0  0
    4.9068    7.5060  -22.5970 H   0  0  0  0  0  0
    3.4321    8.2998  -23.1188 H   0  0  0  0  0  0
    5.7801   11.7109  -21.9130 H   0  0  0  0  0  0
    7.1279    7.8288  -20.9753 H   0  0  0  0  0  0
  1  2  2  0  0  0
  1  3  1  0  0  0
  1 34  1  0  0  0
  2  6  1  0  0  0
  2 35  1  0  0  0
  3  5  2  0  0  0
  3 27  1  0  0  0
  4  5  1  0  0  0
  4  6  2  0  0  0
  4 18  1  0  0  0
  5 24  1  0  0  0
  6 10  1  0  0  0
  7 10  2  0  0  0
  7 23  1  0  0  0
  7 33  1  0  0  0
  8 21  1  0  0  0
  8 22  1  0  0  0
  8 36  1  0  0  0
  8 37  1  0  0  0
  9 21  1  0  0  0
  9 31  1  0  0  0
  9 38  1  0  0  0
  9 39  1  0  0  0
 10 40  1  0  0  0
 11 12  1  0  0  0
 11 14  2  0  0  0
 11 15  1  0  0  0
 12 17  1  0  0  0
 12 28  2  0  0  0
 13 28  1  0  0  0
 13 29  2  0  0  0
 13 57  1  0  0  0
 14 29  1  0  0  0
 14 31  1  0  0  0
 15 30  2  0  0  0
 15 41  1  0  0  0
 16 17  2  0  0  0
 16 18  1  0  0  0
 16 30  1  0  0  0
 17 26  1  0  0  0
 18 23  2  0  0  0
 19 20  1  0  0  0
 19 31  1  0  0  0
 19 42  1  0  0  0
 19 43  1  0  0  0
 20 22  1  0  0  0
 20 32  1  0  0  0
 20 44  1  0  0  0
 21 32  1  0  0  0
 21 45  1  0  0  0
 22 46  1  0  0  0
 22 47  1  0  0  0
 23 48  1  0  0  0
 24 25  3  0  0  0
 25 49  1  0  0  0
 32 50  1  0  0  0
 33 51  1  0  0  0
 52 54  1  0  0  0
 52 58  1  0  0  0
 53 55  1  0  0  0
 53 56  1  0  0  0
 53 61  1  0  0  0
 53 62  1  0  0  0
 54 59  2  0  0  0
 55 57  1  0  0  0
 55 63  1  0  0  0
 55 64  1  0  0  0
 56 60  1  0  0  0
 56 65  1  0  0  0
 56 66  1  0  0  0
 57 67  1  0  0  0
 57 68  1  0  0  0
 58 60  2  0  0  0
 58 69  1  0  0  0
 59 60  1  0  0  0
 59 70  1  0  0  0
M  CHG  1  53   1
M  END
> <s_m_entry_id>
288

> <s_m_entry_name>
000000130.1

> <s_m_Source_Path>
/Users/zaksoul/Documents/3r_UNI/2nd_SEMESTER/BSC/FRAG_RECON/RESULTS/2

> <s_m_Source_File>
000000130.mol2

> <i_m_Source_File_Index>
1

$$$$
No_0_143
                    3D
 Schrodinger Suite 2022-4.
 70 76  0  0  1  0            999 V2000
   -5.1950    3.7860  -21.7010 C   0  0  0  0  0  0
   -5.4800    3.9480  -23.0360 C   0  0  0  0  0  0
   -3.9560    3.5190  -21.3750 C   0  0  0  0  0  0
   -3.0990    3.5800  -23.5570 C   0  0  0  0  0  0
   -2.9190    3.3650  -22.1340 C   0  0  0  0  0  0
   -4.4500    3.8540  -24.0620 C   0  0  0  0  0  0
   -3.7320    3.8120  -26.2720 C   0  0  0  0  0  0
    6.0700    3.0260  -21.1500 C   0  0  0  0  0  0
    5.8910    3.1130  -23.6990 C   0  0  0  0  0  0
   -4.7220    3.9550  -25.3960 C   0  0  0  0  0  0
    2.1170    3.7270  -23.6680 C   0  0  0  0  0  0
    1.3200    4.8560  -23.3810 C   0  0  0  0  0  0
    3.1500    6.0350  -22.7580 C   0  0  0  0  0  0
    3.5250    3.9000  -23.3820 C   0  0  0  0  0  0
    1.5400    2.6050  -24.2940 C   0  0  0  0  0  0
   -0.5710    3.4580  -24.1680 C   0  0  0  0  0  0
   -0.0130    4.6820  -23.6060 C   0  0  0  0  0  0
   -2.0290    3.4820  -24.4980 C   0  0  0  0  0  0
    4.0920    1.3990  -23.0420 C   0  0  0  0  0  0
    5.0390    1.0530  -21.9030 C   0  0  2  0  0  0
    6.6490    2.5530  -22.5010 C   0  0  2  0  0  0
    5.0570    2.0810  -20.7590 C   0  0  0  0  0  0
   -2.3750    3.6140  -25.9240 C   0  0  0  0  0  0
   -1.5720    2.9420  -21.5480 C   0  0  0  0  0  0
   -0.5390    2.5870  -21.0510 C   0  0  0  0  0  0
   -0.8310    5.7500  -23.2720 F   0  0  0  0  0  0
   -3.7270    3.3040  -19.9910 F   0  0  0  0  0  0
    1.8260    6.0190  -22.8840 N   0  0  0  0  0  0
    4.0260    5.0520  -22.9710 N   0  0  0  0  0  0
    0.2280    2.5320  -24.5760 N   0  0  0  0  0  0
    4.4220    2.8320  -23.5500 N   0  0  0  0  0  0
    6.4380    1.0840  -22.4100 N   0  0  1  0  0  0
   -3.9270    3.7980  -27.6590 O   0  0  0  0  0  0
   -5.9838    3.8793  -20.9634 H   0  0  0  0  0  0
   -6.4963    4.1537  -23.3520 H   0  0  0  0  0  0
    5.6150    4.0197  -21.2751 H   0  0  0  0  0  0
    6.8687    3.0401  -20.3937 H   0  0  0  0  0  0
    6.2624    2.6407  -24.6204 H   0  0  0  0  0  0
    6.0525    4.1994  -23.7596 H   0  0  0  0  0  0
   -5.7348    4.1499  -25.7296 H   0  0  0  0  0  0
    2.1602    1.7589  -24.5670 H   0  0  0  0  0  0
    3.0542    1.3697  -22.6786 H   0  0  0  0  0  0
    4.2283    0.6793  -23.8626 H   0  0  0  0  0  0
    4.8029    0.0541  -21.5075 H   0  0  0  0  0  0
    7.7209    2.7902  -22.5706 H   0  0  0  0  0  0
    4.0833    2.5905  -20.7106 H   0  0  0  0  0  0
    5.3639    1.5833  -19.8273 H   0  0  0  0  0  0
   -1.6189    3.5638  -26.6992 H   0  0  0  0  0  0
    0.3702    2.2749  -20.6139 H   0  0  0  0  0  0
    7.0880    0.5911  -21.7022 H   0  0  0  0  0  0
   -3.0910    3.6851  -28.0958 H   0  0  0  0  0  0
    6.9690   10.6410  -23.1820 O   0  0  0  0  0  0
    3.9420    8.9930  -20.3550 N   0  3  0  0  0  0
    7.5360    9.3500  -23.0980 N   0  0  0  0  0  0
    3.7830    7.5590  -20.7970 C   0  0  0  0  0  0
    5.3470    9.4720  -20.0940 C   0  0  0  0  0  0
    3.7400    7.3750  -22.3300 C   0  0  0  0  0  0
    6.1580   10.7910  -22.1340 C   0  0  0  0  0  0
    7.0270    8.8350  -22.0210 C   0  0  0  0  0  0
    6.1350    9.7120  -21.3660 C   0  0  0  0  0  0
    3.3801    9.1510  -19.5332 H   0  0  0  0  0  0
    3.5051    9.5999  -21.0309 H   0  0  0  0  0  0
    2.8676    7.1398  -20.3538 H   0  0  0  0  0  0
    4.6030    6.9560  -20.3800 H   0  0  0  0  0  0
    5.8750    8.7350  -19.4710 H   0  0  0  0  0  0
    5.3140   10.3999  -19.5041 H   0  0  0  0  0  0
    4.7565    7.4730  -22.7388 H   0  0  0  0  0  0
    3.1570    8.1920  -22.7800 H   0  0  0  0  0  0
    5.5549   11.6591  -21.8720 H   0  0  0  0  0  0
    7.3052    7.8273  -21.7158 H   0  0  0  0  0  0
  1  2  2  0  0  0
  1  3  1  0  0  0
  1 34  1  0  0  0
  2  6  1  0  0  0
  2 35  1  0  0  0
  3  5  2  0  0  0
  3 27  1  0  0  0
  4  5  1  0  0  0
  4  6  2  0  0  0
  4 18  1  0  0  0
  5 24  1  0  0  0
  6 10  1  0  0  0
  7 10  2  0  0  0
  7 23  1  0  0  0
  7 33  1  0  0  0
  8 21  1  0  0  0
  8 22  1  0  0  0
  8 36  1  0  0  0
  8 37  1  0  0  0
  9 21  1  0  0  0
  9 31  1  0  0  0
  9 38  1  0  0  0
  9 39  1  0  0  0
 10 40  1  0  0  0
 11 12  1  0  0  0
 11 14  2  0  0  0
 11 15  1  0  0  0
 12 17  1  0  0  0
 12 28  2  0  0  0
 13 28  1  0  0  0
 13 29  2  0  0  0
 13 57  1  0  0  0
 14 29  1  0  0  0
 14 31  1  0  0  0
 15 30  2  0  0  0
 15 41  1  0  0  0
 16 17  2  0  0  0
 16 18  1  0  0  0
 16 30  1  0  0  0
 17 26  1  0  0  0
 18 23  2  0  0  0
 19 20  1  0  0  0
 19 31  1  0  0  0
 19 42  1  0  0  0
 19 43  1  0  0  0
 20 22  1  0  0  0
 20 32  1  0  0  0
 20 44  1  0  0  0
 21 32  1  0  0  0
 21 45  1  0  0  0
 22 46  1  0  0  0
 22 47  1  0  0  0
 23 48  1  0  0  0
 24 25  3  0  0  0
 25 49  1  0  0  0
 32 50  1  0  0  0
 33 51  1  0  0  0
 52 54  1  0  0  0
 52 58  1  0  0  0
 53 55  1  0  0  0
 53 56  1  0  0  0
 53 61  1  0  0  0
 53 62  1  0  0  0
 54 59  2  0  0  0
 55 57  1  0  0  0
 55 63  1  0  0  0
 55 64  1  0  0  0
 56 60  1  0  0  0
 56 65  1  0  0  0
 56 66  1  0  0  0
 57 67  1  0  0  0
 57 68  1  0  0  0
 58 60  2  0  0  0
 58 69  1  0  0  0
 59 60  1  0  0  0
 59 70  1  0  0  0
M  CHG  1  53   1
M  END
> <s_m_entry_id>
289

> <s_m_entry_name>
000000131.1

> <s_m_Source_Path>
/Users/zaksoul/Documents/3r_UNI/2nd_SEMESTER/BSC/FRAG_RECON/RESULTS/2

> <s_m_Source_File>
000000131.mol2

> <i_m_Source_File_Index>
1

$$$$
No_0_144
                    3D
 Schrodinger Suite 2022-4.
 70 76  0  0  1  0            999 V2000
   -5.3800    3.4850  -22.0920 C   0  0  0  0  0  0
   -5.6210    3.6460  -23.4350 C   0  0  0  0  0  0
   -4.1450    3.2630  -21.7200 C   0  0  0  0  0  0
   -3.2090    3.3740  -23.8680 C   0  0  0  0  0  0
   -3.0740    3.1560  -22.4400 C   0  0  0  0  0  0
   -4.5500    3.6000  -24.4220 C   0  0  0  0  0  0
   -3.7480    3.6030  -26.6030 C   0  0  0  0  0  0
    5.8770    3.1580  -21.1190 C   0  0  0  0  0  0
    5.7910    3.2570  -23.6730 C   0  0  0  0  0  0
   -4.7750    3.7010  -25.7640 C   0  0  0  0  0  0
    1.9970    3.7240  -23.7800 C   0  0  0  0  0  0
    1.1470    4.8200  -23.5170 C   0  0  0  0  0  0
    2.9050    6.0640  -22.8180 C   0  0  0  0  0  0
    3.3860    3.9490  -23.4400 C   0  0  0  0  0  0
    1.4890    2.5850  -24.4350 C   0  0  0  0  0  0
   -0.6570    3.3550  -24.3830 C   0  0  0  0  0  0
   -0.1690    4.5960  -23.7930 C   0  0  0  0  0  0
   -2.1010    3.3250  -24.7690 C   0  0  0  0  0  0
    4.0370    1.4700  -23.0950 C   0  0  0  0  0  0
    4.9530    1.1520  -21.9230 C   0  0  2  0  0  0
    6.5250    2.7170  -22.4500 C   0  0  2  0  0  0
    4.8890    2.1710  -20.7730 C   0  0  0  0  0  0
   -2.3990    3.4550  -26.2060 C   0  0  0  0  0  0
   -1.7350    2.7800  -21.8060 C   0  0  0  0  0  0
   -0.7090    2.4620  -21.2730 C   0  0  0  0  0  0
   -1.0390    5.6280  -23.4840 F   0  0  0  0  0  0
   -3.9590    3.0470  -20.3300 F   0  0  0  0  0  0
    1.5880    5.9970  -22.9940 N   0  0  0  0  0  0
    3.8260    5.1170  -23.0030 N   0  0  0  0  0  0
    0.1920    2.4630  -24.7660 N   0  0  0  0  0  0
    4.3300    2.9180  -23.5800 N   0  0  0  0  0  0
    6.3680    1.2410  -22.3760 N   0  0  1  0  0  0
   -3.8910    3.5920  -27.9970 O   0  0  0  0  0  0
   -6.1986    3.5422  -21.3837 H   0  0  0  0  0  0
   -6.6318    3.8146  -23.7883 H   0  0  0  0  0  0
    5.3884    4.1342  -21.2543 H   0  0  0  0  0  0
    6.6457    3.1973  -20.3332 H   0  0  0  0  0  0
    6.2149    2.8059  -24.5823 H   0  0  0  0  0  0
    5.9121    4.3493  -23.7204 H   0  0  0  0  0  0
   -5.7811    3.8586  -26.1355 H   0  0  0  0  0  0
    2.1517    1.7656  -24.6890 H   0  0  0  0  0  0
    2.9883    1.3973  -22.7710 H   0  0  0  0  0  0
    4.2318    0.7625  -23.9145 H   0  0  0  0  0  0
    4.7421    0.1417  -21.5425 H   0  0  0  0  0  0
    7.5885    2.9965  -22.4783 H   0  0  0  0  0  0
    3.8946    2.6410  -20.7579 H   0  0  0  0  0  0
    5.1797    1.6785  -19.8334 H   0  0  0  0  0  0
   -1.6123    3.4389  -26.9516 H   0  0  0  0  0  0
    0.1947    2.1831  -20.8032 H   0  0  0  0  0  0
    7.0106    0.7684  -21.6479 H   0  0  0  0  0  0
   -3.0354    3.5148  -28.4026 H   0  0  0  0  0  0
    6.0660   11.1250  -23.4250 O   0  0  0  0  0  0
    3.8450    8.8680  -20.2870 N   0  3  0  0  0  0
    6.7690    9.9110  -23.5940 N   0  0  0  0  0  0
    3.7520    7.4710  -20.8510 C   0  0  0  0  0  0
    5.2170    9.4910  -20.2410 C   0  0  0  0  0  0
    3.4260    7.4220  -22.3600 C   0  0  0  0  0  0
    5.4670   11.0790  -22.2350 C   0  0  0  0  0  0
    6.5400    9.2430  -22.5060 C   0  0  0  0  0  0
    5.7090    9.9400  -21.6010 C   0  0  0  0  0  0
    3.4441    8.8800  -19.3622 H   0  0  0  0  0  0
    3.2227    9.4742  -20.7982 H   0  0  0  0  0  0
    2.9913    6.9032  -20.2952 H   0  0  0  0  0  0
    4.6959    6.9380  -20.6640 H   0  0  0  0  0  0
    5.9308    8.7712  -19.8141 H   0  0  0  0  0  0
    5.2060   10.3505  -19.5546 H   0  0  0  0  0  0
    4.3264    7.6811  -22.9363 H   0  0  0  0  0  0
    2.6833    8.1977  -22.5982 H   0  0  0  0  0  0
    4.8408   11.8383  -21.7688 H   0  0  0  0  0  0
    6.9760    8.2541  -22.3720 H   0  0  0  0  0  0
  1  2  2  0  0  0
  1  3  1  0  0  0
  1 34  1  0  0  0
  2  6  1  0  0  0
  2 35  1  0  0  0
  3  5  2  0  0  0
  3 27  1  0  0  0
  4  5  1  0  0  0
  4  6  2  0  0  0
  4 18  1  0  0  0
  5 24  1  0  0  0
  6 10  1  0  0  0
  7 10  2  0  0  0
  7 23  1  0  0  0
  7 33  1  0  0  0
  8 21  1  0  0  0
  8 22  1  0  0  0
  8 36  1  0  0  0
  8 37  1  0  0  0
  9 21  1  0  0  0
  9 31  1  0  0  0
  9 38  1  0  0  0
  9 39  1  0  0  0
 10 40  1  0  0  0
 11 12  1  0  0  0
 11 14  2  0  0  0
 11 15  1  0  0  0
 12 17  1  0  0  0
 12 28  2  0  0  0
 13 28  1  0  0  0
 13 29  2  0  0  0
 13 57  1  0  0  0
 14 29  1  0  0  0
 14 31  1  0  0  0
 15 30  2  0  0  0
 15 41  1  0  0  0
 16 17  2  0  0  0
 16 18  1  0  0  0
 16 30  1  0  0  0
 17 26  1  0  0  0
 18 23  2  0  0  0
 19 20  1  0  0  0
 19 31  1  0  0  0
 19 42  1  0  0  0
 19 43  1  0  0  0
 20 22  1  0  0  0
 20 32  1  0  0  0
 20 44  1  0  0  0
 21 32  1  0  0  0
 21 45  1  0  0  0
 22 46  1  0  0  0
 22 47  1  0  0  0
 23 48  1  0  0  0
 24 25  3  0  0  0
 25 49  1  0  0  0
 32 50  1  0  0  0
 33 51  1  0  0  0
 52 54  1  0  0  0
 52 58  1  0  0  0
 53 55  1  0  0  0
 53 56  1  0  0  0
 53 61  1  0  0  0
 53 62  1  0  0  0
 54 59  2  0  0  0
 55 57  1  0  0  0
 55 63  1  0  0  0
 55 64  1  0  0  0
 56 60  1  0  0  0
 56 65  1  0  0  0
 56 66  1  0  0  0
 57 67  1  0  0  0
 57 68  1  0  0  0
 58 60  2  0  0  0
 58 69  1  0  0  0
 59 60  1  0  0  0
 59 70  1  0  0  0
M  CHG  1  53   1
M  END
> <s_m_entry_id>
290

> <s_m_entry_name>
000000132.1

> <s_m_Source_Path>
/Users/zaksoul/Documents/3r_UNI/2nd_SEMESTER/BSC/FRAG_RECON/RESULTS/2

> <s_m_Source_File>
000000132.mol2

> <i_m_Source_File_Index>
1

$$$$
No_0_145
                    3D
 Schrodinger Suite 2022-4.
 71 77  0  0  1  0            999 V2000
   -5.2570    3.8260  -22.1790 C   0  0  0  0  0  0
   -5.5030    3.9770  -23.5230 C   0  0  0  0  0  0
   -4.0310    3.5440  -21.8160 C   0  0  0  0  0  0
   -3.1150    3.5670  -23.9750 C   0  0  0  0  0  0
   -2.9760    3.3660  -22.5450 C   0  0  0  0  0  0
   -4.4470    3.8550  -24.5190 C   0  0  0  0  0  0
   -3.6700    3.7770  -26.7080 C   0  0  0  0  0  0
    5.9760    2.9060  -21.3140 C   0  0  0  0  0  0
    5.8680    2.9660  -23.8680 C   0  0  0  0  0  0
   -4.6810    3.9450  -25.8610 C   0  0  0  0  0  0
    2.1040    3.6360  -23.9460 C   0  0  0  0  0  0
    1.3170    4.7800  -23.6930 C   0  0  0  0  0  0
    3.1470    5.9390  -23.0340 C   0  0  0  0  0  0
    3.5070    3.7920  -23.6240 C   0  0  0  0  0  0
    1.5280    2.5150  -24.5750 C   0  0  0  0  0  0
   -0.5730    3.4010  -24.5150 C   0  0  0  0  0  0
   -0.0120    4.6230  -23.9520 C   0  0  0  0  0  0
   -2.0210    3.4430  -24.8860 C   0  0  0  0  0  0
    4.0260    1.2870  -23.2410 C   0  0  0  0  0  0
    4.9360    0.9400  -22.0730 C   0  0  2  0  0  0
    6.5850    2.4090  -22.6430 C   0  0  2  0  0  0
    4.9400    1.9810  -20.9400 C   0  0  0  0  0  0
   -2.3270    3.5640  -26.3220 C   0  0  0  0  0  0
   -1.6520    2.9300  -21.9180 C   0  0  0  0  0  0
   -0.6390    2.5660  -21.3890 C   0  0  0  0  0  0
   -0.8220    5.7070  -23.6530 F   0  0  0  0  0  0
   -3.8420    3.3420  -20.4240 F   0  0  0  0  0  0
    1.8270    5.9410  -23.1960 N   0  0  0  0  0  0
    4.0130    4.9410  -23.2120 N   0  0  0  0  0  0
    0.2220    2.4580  -24.8910 N   0  0  0  0  0  0
    4.3910    2.7090  -23.7550 N   0  0  0  0  0  0
    6.3490    0.9450  -22.5410 N   0  0  1  0  0  0
   -3.8290    3.7500  -28.1000 O   0  0  0  0  0  0
   -6.0636    3.9395  -21.4638 H   0  0  0  0  0  0
   -6.5072    4.1937  -23.8691 H   0  0  0  0  0  0
    5.5401    3.9050  -21.4623 H   0  0  0  0  0  0
    6.7548    2.9171  -20.5372 H   0  0  0  0  0  0
    6.2567    2.4774  -24.7736 H   0  0  0  0  0  0
    6.0477    4.0491  -23.9366 H   0  0  0  0  0  0
   -5.6812    4.1517  -26.2242 H   0  0  0  0  0  0
    2.1417    1.6563  -24.8221 H   0  0  0  0  0  0
    2.9786    1.2759  -22.9050 H   0  0  0  0  0  0
    4.1733    0.5555  -24.0492 H   0  0  0  0  0  0
    4.6757   -0.0508  -21.6724 H   0  0  0  0  0  0
    7.6619    2.6290  -22.6874 H   0  0  0  0  0  0
    3.9729    2.5049  -20.9238 H   0  0  0  0  0  0
    5.2136    1.4892  -19.9949 H   0  0  0  0  0  0
   -1.5512    3.4927  -27.0757 H   0  0  0  0  0  0
    0.2536    2.2461  -20.9242 H   0  0  0  0  0  0
    6.9733    0.4500  -21.8119 H   0  0  0  0  0  0
   -2.9831    3.6204  -28.5126 H   0  0  0  0  0  0
    8.3840    8.3220  -22.3500 O   0  0  0  0  0  0
    4.0350    8.9500  -20.6940 N   0  3  0  0  0  0
    3.7450    7.2750  -22.6060 C   0  0  0  0  0  0
    6.5130    8.8340  -21.2790 C   0  0  0  0  0  0
    3.4270    7.6440  -21.1430 C   0  0  0  0  0  0
    5.4580    8.9130  -20.1900 C   0  0  0  0  0  0
    6.5100    9.4310  -22.5660 C   0  0  0  0  0  0
    7.6480    9.0870  -23.1530 C   0  0  0  0  0  0
    7.6760    8.1890  -21.2270 C   0  0  0  0  0  0
    3.4452    9.3659  -19.9902 H   0  0  0  0  0  0
    3.9660    9.6221  -21.4421 H   0  0  0  0  0  0
    4.8357    7.2480  -22.7460 H   0  0  0  0  0  0
    3.3787    8.0706  -23.2715 H   0  0  0  0  0  0
    2.3364    7.6830  -21.0050 H   0  0  0  0  0  0
    3.7691    6.8358  -20.4798 H   0  0  0  0  0  0
    5.5790    8.0627  -19.5027 H   0  0  0  0  0  0
    5.6460    9.7978  -19.5641 H   0  0  0  0  0  0
    5.6627   10.0372  -22.8831 H   0  0  0  0  0  0
    7.8661    9.4322  -24.1625 H   0  0  0  0  0  0
    7.9510    7.6330  -20.3319 H   0  0  0  0  0  0
  1  2  2  0  0  0
  1  3  1  0  0  0
  1 34  1  0  0  0
  2  6  1  0  0  0
  2 35  1  0  0  0
  3  5  2  0  0  0
  3 27  1  0  0  0
  4  5  1  0  0  0
  4  6  2  0  0  0
  4 18  1  0  0  0
  5 24  1  0  0  0
  6 10  1  0  0  0
  7 10  2  0  0  0
  7 23  1  0  0  0
  7 33  1  0  0  0
  8 21  1  0  0  0
  8 22  1  0  0  0
  8 36  1  0  0  0
  8 37  1  0  0  0
  9 21  1  0  0  0
  9 31  1  0  0  0
  9 38  1  0  0  0
  9 39  1  0  0  0
 10 40  1  0  0  0
 11 12  1  0  0  0
 11 14  2  0  0  0
 11 15  1  0  0  0
 12 17  1  0  0  0
 12 28  2  0  0  0
 13 28  1  0  0  0
 13 29  2  0  0  0
 13 54  1  0  0  0
 14 29  1  0  0  0
 14 31  1  0  0  0
 15 30  2  0  0  0
 15 41  1  0  0  0
 16 17  2  0  0  0
 16 18  1  0  0  0
 16 30  1  0  0  0
 17 26  1  0  0  0
 18 23  2  0  0  0
 19 20  1  0  0  0
 19 31  1  0  0  0
 19 42  1  0  0  0
 19 43  1  0  0  0
 20 22  1  0  0  0
 20 32  1  0  0  0
 20 44  1  0  0  0
 21 32  1  0  0  0
 21 45  1  0  0  0
 22 46  1  0  0  0
 22 47  1  0  0  0
 23 48  1  0  0  0
 24 25  3  0  0  0
 25 49  1  0  0  0
 32 50  1  0  0  0
 33 51  1  0  0  0
 52 59  1  0  0  0
 52 60  1  0  0  0
 53 56  1  0  0  0
 53 57  1  0  0  0
 53 61  1  0  0  0
 53 62  1  0  0  0
 54 56  1  0  0  0
 54 63  1  0  0  0
 54 64  1  0  0  0
 55 57  1  0  0  0
 55 58  1  0  0  0
 55 60  2  0  0  0
 56 65  1  0  0  0
 56 66  1  0  0  0
 57 67  1  0  0  0
 57 68  1  0  0  0
 58 59  2  0  0  0
 58 69  1  0  0  0
 59 70  1  0  0  0
 60 71  1  0  0  0
M  CHG  1  53   1
M  END
> <s_m_entry_id>
291

> <s_m_entry_name>
000000133.1

> <s_m_Source_Path>
/Users/zaksoul/Documents/3r_UNI/2nd_SEMESTER/BSC/FRAG_RECON/RESULTS/2

> <s_m_Source_File>
000000133.mol2

> <i_m_Source_File_Index>
1

$$$$
No_0_146
                    3D
 Schrodinger Suite 2022-4.
 71 77  0  0  1  0            999 V2000
   -5.1930    3.6810  -21.9660 C   0  0  0  0  0  0
   -5.4460    3.8530  -23.3060 C   0  0  0  0  0  0
   -3.9590    3.4230  -21.6120 C   0  0  0  0  0  0
   -3.0490    3.5130  -23.7720 C   0  0  0  0  0  0
   -2.9020    3.2870  -22.3470 C   0  0  0  0  0  0
   -4.3910    3.7780  -24.3070 C   0  0  0  0  0  0
   -3.6180    3.7640  -26.4990 C   0  0  0  0  0  0
    6.0630    3.0310  -21.1450 C   0  0  0  0  0  0
    5.9460    3.1390  -23.6970 C   0  0  0  0  0  0
   -4.6300    3.8890  -25.6460 C   0  0  0  0  0  0
    2.1660    3.7140  -23.7530 C   0  0  0  0  0  0
    1.3510    4.8330  -23.4760 C   0  0  0  0  0  0
    3.1520    6.0250  -22.7970 C   0  0  0  0  0  0
    3.5650    3.8990  -23.4310 C   0  0  0  0  0  0
    1.6160    2.5920  -24.4030 C   0  0  0  0  0  0
   -0.5060    3.4230  -24.3210 C   0  0  0  0  0  0
    0.0250    4.6470  -23.7350 C   0  0  0  0  0  0
   -1.9560    3.4350  -24.6870 C   0  0  0  0  0  0
    4.1490    1.4010  -23.0990 C   0  0  0  0  0  0
    5.0710    1.0540  -21.9400 C   0  0  2  0  0  0
    6.6800    2.5760  -22.4850 C   0  0  2  0  0  0
    5.0510    2.0720  -20.7870 C   0  0  0  0  0  0
   -2.2680    3.5770  -26.1200 C   0  0  0  0  0  0
   -1.5660    2.8720  -21.7310 C   0  0  0  0  0  0
   -0.5420    2.5240  -21.2120 C   0  0  0  0  0  0
   -0.8110    5.7030  -23.4110 F   0  0  0  0  0  0
   -3.7620    3.1980  -20.2250 F   0  0  0  0  0  0
    1.8320    5.9960  -22.9560 N   0  0  0  0  0  0
    4.0430    5.0530  -22.9970 N   0  0  0  0  0  0
    0.3120    2.5080  -24.7180 N   0  0  0  0  0  0
    4.4770    2.8420  -23.5860 N   0  0  0  0  0  0
    6.4820    1.1040  -22.4120 N   0  0  1  0  0  0
   -3.7790    3.7610  -27.8900 O   0  0  0  0  0  0
   -6.0004    3.7593  -21.2470 H   0  0  0  0  0  0
   -6.4564    4.0507  -23.6451 H   0  0  0  0  0  0
    5.6008    4.0210  -21.2722 H   0  0  0  0  0  0
    6.8428    3.0461  -20.3693 H   0  0  0  0  0  0
    6.3446    2.6789  -24.6132 H   0  0  0  0  0  0
    6.0975    4.2275  -23.7435 H   0  0  0  0  0  0
   -5.6361    4.0766  -26.0031 H   0  0  0  0  0  0
    2.2515    1.7547  -24.6680 H   0  0  0  0  0  0
    3.1029    1.3576  -22.7617 H   0  0  0  0  0  0
    4.3134    0.6910  -23.9230 H   0  0  0  0  0  0
    4.8358    0.0487  -21.5605 H   0  0  0  0  0  0
    7.7508    2.8243  -22.5264 H   0  0  0  0  0  0
    4.0709    2.5706  -20.7587 H   0  0  0  0  0  0
    5.3405    1.5686  -19.8528 H   0  0  0  0  0  0
   -1.4924    3.5409  -26.8765 H   0  0  0  0  0  0
    0.3597    2.2171  -20.7561 H   0  0  0  0  0  0
    7.1205    0.6120  -21.6932 H   0  0  0  0  0  0
   -2.9317    3.6610  -28.3077 H   0  0  0  0  0  0
    8.1780    8.9010  -22.9960 O   0  0  0  0  0  0
    4.3040    8.8500  -20.3430 N   0  3  0  0  0  0
    3.7180    7.3660  -22.3430 C   0  0  0  0  0  0
    6.5760    9.0800  -21.4760 C   0  0  0  0  0  0
    3.7220    7.5380  -20.8110 C   0  0  0  0  0  0
    5.8030    8.9210  -20.1780 C   0  0  0  0  0  0
    6.2180    9.8060  -22.6410 C   0  0  0  0  0  0
    7.2110    9.6580  -23.5070 C   0  0  0  0  0  0
    7.7680    8.5690  -21.7700 C   0  0  0  0  0  0
    3.8622    9.1179  -19.4775 H   0  0  0  0  0  0
    4.0029    9.5853  -20.9633 H   0  0  0  0  0  0
    4.7430    7.4790  -22.7260 H   0  0  0  0  0  0
    3.1381    8.1809  -22.8009 H   0  0  0  0  0  0
    2.6953    7.4380  -20.4291 H   0  0  0  0  0  0
    4.2790    6.7079  -20.3520 H   0  0  0  0  0  0
    6.1551    8.0208  -19.6529 H   0  0  0  0  0  0
    6.0560    9.7501  -19.5009 H   0  0  0  0  0  0
    5.2709   10.3421  -22.6800 H   0  0  0  0  0  0
    7.1550   10.1311  -24.4863 H   0  0  0  0  0  0
    8.2930    7.9560  -21.0389 H   0  0  0  0  0  0
  1  2  2  0  0  0
  1  3  1  0  0  0
  1 34  1  0  0  0
  2  6  1  0  0  0
  2 35  1  0  0  0
  3  5  2  0  0  0
  3 27  1  0  0  0
  4  5  1  0  0  0
  4  6  2  0  0  0
  4 18  1  0  0  0
  5 24  1  0  0  0
  6 10  1  0  0  0
  7 10  2  0  0  0
  7 23  1  0  0  0
  7 33  1  0  0  0
  8 21  1  0  0  0
  8 22  1  0  0  0
  8 36  1  0  0  0
  8 37  1  0  0  0
  9 21  1  0  0  0
  9 31  1  0  0  0
  9 38  1  0  0  0
  9 39  1  0  0  0
 10 40  1  0  0  0
 11 12  1  0  0  0
 11 14  2  0  0  0
 11 15  1  0  0  0
 12 17  1  0  0  0
 12 28  2  0  0  0
 13 28  1  0  0  0
 13 29  2  0  0  0
 13 54  1  0  0  0
 14 29  1  0  0  0
 14 31  1  0  0  0
 15 30  2  0  0  0
 15 41  1  0  0  0
 16 17  2  0  0  0
 16 18  1  0  0  0
 16 30  1  0  0  0
 17 26  1  0  0  0
 18 23  2  0  0  0
 19 20  1  0  0  0
 19 31  1  0  0  0
 19 42  1  0  0  0
 19 43  1  0  0  0
 20 22  1  0  0  0
 20 32  1  0  0  0
 20 44  1  0  0  0
 21 32  1  0  0  0
 21 45  1  0  0  0
 22 46  1  0  0  0
 22 47  1  0  0  0
 23 48  1  0  0  0
 24 25  3  0  0  0
 25 49  1  0  0  0
 32 50  1  0  0  0
 33 51  1  0  0  0
 52 59  1  0  0  0
 52 60  1  0  0  0
 53 56  1  0  0  0
 53 57  1  0  0  0
 53 61  1  0  0  0
 53 62  1  0  0  0
 54 56  1  0  0  0
 54 63  1  0  0  0
 54 64  1  0  0  0
 55 57  1  0  0  0
 55 58  1  0  0  0
 55 60  2  0  0  0
 56 65  1  0  0  0
 56 66  1  0  0  0
 57 67  1  0  0  0
 57 68  1  0  0  0
 58 59  2  0  0  0
 58 69  1  0  0  0
 59 70  1  0  0  0
 60 71  1  0  0  0
M  CHG  1  53   1
M  END
> <s_m_entry_id>
292

> <s_m_entry_name>
000000134.1

> <s_m_Source_Path>
/Users/zaksoul/Documents/3r_UNI/2nd_SEMESTER/BSC/FRAG_RECON/RESULTS/2

> <s_m_Source_File>
000000134.mol2

> <i_m_Source_File_Index>
1

$$$$
No_0_147
                    3D
 Schrodinger Suite 2022-4.
 71 77  0  0  1  0            999 V2000
   -5.1040    3.5970  -21.9390 C   0  0  0  0  0  0
   -5.3750    3.7530  -23.2780 C   0  0  0  0  0  0
   -3.8620    3.3650  -21.5960 C   0  0  0  0  0  0
   -2.9770    3.4520  -23.7660 C   0  0  0  0  0  0
   -2.8100    3.2410  -22.3410 C   0  0  0  0  0  0
   -4.3290    3.6880  -24.2890 C   0  0  0  0  0  0
   -3.5790    3.6680  -26.4900 C   0  0  0  0  0  0
    6.1700    3.1570  -21.2340 C   0  0  0  0  0  0
    6.0240    3.2400  -23.7850 C   0  0  0  0  0  0
   -4.5840    3.7820  -25.6270 C   0  0  0  0  0  0
    2.2330    3.7470  -23.8050 C   0  0  0  0  0  0
    1.4010    4.8530  -23.5290 C   0  0  0  0  0  0
    3.1880    6.0830  -22.8810 C   0  0  0  0  0  0
    3.6320    3.9600  -23.5000 C   0  0  0  0  0  0
    1.6980    2.6090  -24.4400 C   0  0  0  0  0  0
   -0.4380    3.4020  -24.3420 C   0  0  0  0  0  0
    0.0770    4.6410  -23.7720 C   0  0  0  0  0  0
   -1.8920    3.3850  -24.6930 C   0  0  0  0  0  0
    4.2650    1.4760  -23.1530 C   0  0  0  0  0  0
    5.2050    1.1560  -22.0010 C   0  0  2  0  0  0
    6.7800    2.7010  -22.5770 C   0  0  2  0  0  0
    5.1790    2.1830  -20.8570 C   0  0  0  0  0  0
   -2.2220    3.5080  -26.1230 C   0  0  0  0  0  0
   -1.4600    2.8560  -21.7360 C   0  0  0  0  0  0
   -0.4250    2.5310  -21.2250 C   0  0  0  0  0  0
   -0.7750    5.6850  -23.4490 F   0  0  0  0  0  0
   -3.6460    3.1560  -20.2090 F   0  0  0  0  0  0
    1.8670    6.0290  -23.0250 N   0  0  0  0  0  0
    4.0940    5.1250  -23.0820 N   0  0  0  0  0  0
    0.3910    2.4990  -24.7390 N   0  0  0  0  0  0
    4.5610    2.9180  -23.6560 N   0  0  0  0  0  0
    6.6100    1.2270  -22.4890 N   0  0  1  0  0  0
   -3.7550    3.6490  -27.8790 O   0  0  0  0  0  0
   -5.9051    3.6683  -21.2122 H   0  0  0  0  0  0
   -6.3922    3.9297  -23.6084 H   0  0  0  0  0  0
    5.6884    4.1374  -21.3642 H   0  0  0  0  0  0
    6.9574    3.1933  -20.4668 H   0  0  0  0  0  0
    6.4207    2.7787  -24.7015 H   0  0  0  0  0  0
    6.1553    4.3306  -23.8436 H   0  0  0  0  0  0
   -5.5973    3.9485  -25.9741 H   0  0  0  0  0  0
    2.3449    1.7803  -24.7042 H   0  0  0  0  0  0
    3.2236    1.4155  -22.8039 H   0  0  0  0  0  0
    4.4324    0.7609  -23.9719 H   0  0  0  0  0  0
    4.9931    0.1501  -21.6095 H   0  0  0  0  0  0
    7.8456    2.9684  -22.6315 H   0  0  0  0  0  0
    4.1906    2.6646  -20.8217 H   0  0  0  0  0  0
    5.4869    1.6934  -19.9213 H   0  0  0  0  0  0
   -1.4543    3.4799  -26.8877 H   0  0  0  0  0  0
    0.4870    2.2450  -20.7760 H   0  0  0  0  0  0
    7.2643    0.7523  -21.7727 H   0  0  0  0  0  0
   -2.9102    3.5600  -28.3044 H   0  0  0  0  0  0
    6.7080   10.2020  -24.9330 O   0  0  0  0  0  0
    5.1900    8.6910  -20.7550 N   0  3  0  0  0  0
    3.7340    7.4380  -22.4450 C   0  0  0  0  0  0
    6.3040    9.7010  -22.8140 C   0  0  0  0  0  0
    4.6190    7.3620  -21.1840 C   0  0  0  0  0  0
    6.4730    9.1380  -21.4140 C   0  0  0  0  0  0
    5.2380   10.4780  -23.3370 C   0  0  0  0  0  0
    5.5380   10.7410  -24.6010 C   0  0  0  0  0  0
    7.1470    9.5840  -23.8360 C   0  0  0  0  0  0
    5.3139    8.6900  -19.7546 H   0  0  0  0  0  0
    4.4898    9.4062  -20.8740 H   0  0  0  0  0  0
    4.3108    7.8819  -23.2698 H   0  0  0  0  0  0
    2.8971    8.1280  -22.2620 H   0  0  0  0  0  0
    4.0379    6.9300  -20.3559 H   0  0  0  0  0  0
    5.4405    6.6514  -21.3579 H   0  0  0  0  0  0
    7.1796    8.2955  -21.4430 H   0  0  0  0  0  0
    6.9679    9.8859  -20.7771 H   0  0  0  0  0  0
    4.3912   10.7369  -22.7031 H   0  0  0  0  0  0
    4.8552   11.3298  -25.2118 H   0  0  0  0  0  0
    8.0754    9.0278  -23.7150 H   0  0  0  0  0  0
  1  2  2  0  0  0
  1  3  1  0  0  0
  1 34  1  0  0  0
  2  6  1  0  0  0
  2 35  1  0  0  0
  3  5  2  0  0  0
  3 27  1  0  0  0
  4  5  1  0  0  0
  4  6  2  0  0  0
  4 18  1  0  0  0
  5 24  1  0  0  0
  6 10  1  0  0  0
  7 10  2  0  0  0
  7 23  1  0  0  0
  7 33  1  0  0  0
  8 21  1  0  0  0
  8 22  1  0  0  0
  8 36  1  0  0  0
  8 37  1  0  0  0
  9 21  1  0  0  0
  9 31  1  0  0  0
  9 38  1  0  0  0
  9 39  1  0  0  0
 10 40  1  0  0  0
 11 12  1  0  0  0
 11 14  2  0  0  0
 11 15  1  0  0  0
 12 17  1  0  0  0
 12 28  2  0  0  0
 13 28  1  0  0  0
 13 29  2  0  0  0
 13 54  1  0  0  0
 14 29  1  0  0  0
 14 31  1  0  0  0
 15 30  2  0  0  0
 15 41  1  0  0  0
 16 17  2  0  0  0
 16 18  1  0  0  0
 16 30  1  0  0  0
 17 26  1  0  0  0
 18 23  2  0  0  0
 19 20  1  0  0  0
 19 31  1  0  0  0
 19 42  1  0  0  0
 19 43  1  0  0  0
 20 22  1  0  0  0
 20 32  1  0  0  0
 20 44  1  0  0  0
 21 32  1  0  0  0
 21 45  1  0  0  0
 22 46  1  0  0  0
 22 47  1  0  0  0
 23 48  1  0  0  0
 24 25  3  0  0  0
 25 49  1  0  0  0
 32 50  1  0  0  0
 33 51  1  0  0  0
 52 59  1  0  0  0
 52 60  1  0  0  0
 53 56  1  0  0  0
 53 57  1  0  0  0
 53 61  1  0  0  0
 53 62  1  0  0  0
 54 56  1  0  0  0
 54 63  1  0  0  0
 54 64  1  0  0  0
 55 57  1  0  0  0
 55 58  1  0  0  0
 55 60  2  0  0  0
 56 65  1  0  0  0
 56 66  1  0  0  0
 57 67  1  0  0  0
 57 68  1  0  0  0
 58 59  2  0  0  0
 58 69  1  0  0  0
 59 70  1  0  0  0
 60 71  1  0  0  0
M  CHG  1  53   1
M  END
> <s_m_entry_id>
293

> <s_m_entry_name>
000000135.1

> <s_m_Source_Path>
/Users/zaksoul/Documents/3r_UNI/2nd_SEMESTER/BSC/FRAG_RECON/RESULTS/2

> <s_m_Source_File>
000000135.mol2

> <i_m_Source_File_Index>
1

$$$$
No_0_148
                    3D
 Schrodinger Suite 2022-4.
 71 77  0  0  1  0            999 V2000
   -5.1810    3.6090  -21.8530 C   0  0  0  0  0  0
   -5.4520    3.8050  -23.1860 C   0  0  0  0  0  0
   -3.9420    3.3510  -21.5190 C   0  0  0  0  0  0
   -3.0590    3.4860  -23.6870 C   0  0  0  0  0  0
   -2.8930    3.2340  -22.2690 C   0  0  0  0  0  0
   -4.4090    3.7540  -24.2010 C   0  0  0  0  0  0
   -3.6630    3.7850  -26.4030 C   0  0  0  0  0  0
    6.0870    3.0010  -21.1820 C   0  0  0  0  0  0
    5.9380    3.1560  -23.7310 C   0  0  0  0  0  0
   -4.6650    3.8890  -25.5350 C   0  0  0  0  0  0
    2.1540    3.7130  -23.7290 C   0  0  0  0  0  0
    1.3370    4.8230  -23.4210 C   0  0  0  0  0  0
    3.1410    6.0110  -22.7430 C   0  0  0  0  0  0
    3.5570    3.8990  -23.4210 C   0  0  0  0  0  0
    1.6030    2.6010  -24.3930 C   0  0  0  0  0  0
   -0.5220    3.4190  -24.2700 C   0  0  0  0  0  0
    0.0100    4.6350  -23.6670 C   0  0  0  0  0  0
   -1.9770    3.4300  -24.6180 C   0  0  0  0  0  0
    4.1570    1.3990  -23.1440 C   0  0  0  0  0  0
    5.0950    1.0350  -22.0030 C   0  0  2  0  0  0
    6.6890    2.5740  -22.5390 C   0  0  2  0  0  0
    5.0840    2.0310  -20.8310 C   0  0  0  0  0  0
   -2.3080    3.5970  -26.0440 C   0  0  0  0  0  0
   -1.5470    2.8150  -21.6780 C   0  0  0  0  0  0
   -0.5150    2.4620  -21.1780 C   0  0  0  0  0  0
   -0.8280    5.6800  -23.3140 F   0  0  0  0  0  0
   -3.7260    3.1020  -20.1390 F   0  0  0  0  0  0
    1.8200    5.9780  -22.8860 N   0  0  0  0  0  0
    4.0350    5.0470  -22.9720 N   0  0  0  0  0  0
    0.2950    2.5160  -24.6930 N   0  0  0  0  0  0
    4.4710    2.8500  -23.6070 N   0  0  0  0  0  0
    6.5000    1.1010  -22.4910 N   0  0  1  0  0  0
   -3.8410    3.8060  -27.7920 O   0  0  0  0  0  0
   -5.9796    3.6712  -21.1226 H   0  0  0  0  0  0
   -6.4675    4.0037  -23.5091 H   0  0  0  0  0  0
    5.6179    3.9906  -21.2849 H   0  0  0  0  0  0
    6.8763    3.0060  -20.4159 H   0  0  0  0  0  0
    6.3275    2.7150  -24.6604 H   0  0  0  0  0  0
    6.0833    4.2460  -23.7593 H   0  0  0  0  0  0
   -5.6765    4.0776  -25.8762 H   0  0  0  0  0  0
    2.2385    1.7718  -24.6821 H   0  0  0  0  0  0
    3.1157    1.3435  -22.7939 H   0  0  0  0  0  0
    4.3144    0.7047  -23.9826 H   0  0  0  0  0  0
    4.8700    0.0218  -21.6387 H   0  0  0  0  0  0
    7.7578    2.8293  -22.5885 H   0  0  0  0  0  0
    4.1018    2.5236  -20.7805 H   0  0  0  0  0  0
    5.3877    1.5123  -19.9097 H   0  0  0  0  0  0
   -1.5411    3.5789  -26.8099 H   0  0  0  0  0  0
    0.3934    2.1519  -20.7378 H   0  0  0  0  0  0
    7.1492    0.5983  -21.7894 H   0  0  0  0  0  0
   -2.9984    3.7179  -28.2217 H   0  0  0  0  0  0
    5.3290   10.8520  -25.0550 O   0  0  0  0  0  0
    5.5850    8.5170  -20.9890 N   0  3  0  0  0  0
    3.7060    7.3460  -22.2710 C   0  0  0  0  0  0
    5.7770    9.9790  -23.0680 C   0  0  0  0  0  0
    4.9980    7.2030  -21.4410 C   0  0  0  0  0  0
    6.4960    9.2370  -21.9550 C   0  0  0  0  0  0
    4.5380   10.6690  -23.0230 C   0  0  0  0  0  0
    4.3290   11.1630  -24.2350 C   0  0  0  0  0  0
    6.1890   10.1400  -24.3230 C   0  0  0  0  0  0
    6.0700    8.3800  -20.1160 H   0  0  0  0  0  0
    4.8383    9.1358  -20.7141 H   0  0  0  0  0  0
    3.9010    7.9890  -23.1420 H   0  0  0  0  0  0
    2.9461    7.8739  -21.6761 H   0  0  0  0  0  0
    4.7990    6.5710  -20.5630 H   0  0  0  0  0  0
    5.7478    6.6501  -22.0259 H   0  0  0  0  0  0
    7.2021    8.5169  -22.3941 H   0  0  0  0  0  0
    7.1325    9.9415  -21.3996 H   0  0  0  0  0  0
    3.9691   10.7050  -22.0951 H   0  0  0  0  0  0
    3.4261   11.7359  -24.4410 H   0  0  0  0  0  0
    7.1354    9.7088  -24.6461 H   0  0  0  0  0  0
  1  2  2  0  0  0
  1  3  1  0  0  0
  1 34  1  0  0  0
  2  6  1  0  0  0
  2 35  1  0  0  0
  3  5  2  0  0  0
  3 27  1  0  0  0
  4  5  1  0  0  0
  4  6  2  0  0  0
  4 18  1  0  0  0
  5 24  1  0  0  0
  6 10  1  0  0  0
  7 10  2  0  0  0
  7 23  1  0  0  0
  7 33  1  0  0  0
  8 21  1  0  0  0
  8 22  1  0  0  0
  8 36  1  0  0  0
  8 37  1  0  0  0
  9 21  1  0  0  0
  9 31  1  0  0  0
  9 38  1  0  0  0
  9 39  1  0  0  0
 10 40  1  0  0  0
 11 12  1  0  0  0
 11 14  2  0  0  0
 11 15  1  0  0  0
 12 17  1  0  0  0
 12 28  2  0  0  0
 13 28  1  0  0  0
 13 29  2  0  0  0
 13 54  1  0  0  0
 14 29  1  0  0  0
 14 31  1  0  0  0
 15 30  2  0  0  0
 15 41  1  0  0  0
 16 17  2  0  0  0
 16 18  1  0  0  0
 16 30  1  0  0  0
 17 26  1  0  0  0
 18 23  2  0  0  0
 19 20  1  0  0  0
 19 31  1  0  0  0
 19 42  1  0  0  0
 19 43  1  0  0  0
 20 22  1  0  0  0
 20 32  1  0  0  0
 20 44  1  0  0  0
 21 32  1  0  0  0
 21 45  1  0  0  0
 22 46  1  0  0  0
 22 47  1  0  0  0
 23 48  1  0  0  0
 24 25  3  0  0  0
 25 49  1  0  0  0
 32 50  1  0  0  0
 33 51  1  0  0  0
 52 59  1  0  0  0
 52 60  1  0  0  0
 53 56  1  0  0  0
 53 57  1  0  0  0
 53 61  1  0  0  0
 53 62  1  0  0  0
 54 56  1  0  0  0
 54 63  1  0  0  0
 54 64  1  0  0  0
 55 57  1  0  0  0
 55 58  1  0  0  0
 55 60  2  0  0  0
 56 65  1  0  0  0
 56 66  1  0  0  0
 57 67  1  0  0  0
 57 68  1  0  0  0
 58 59  2  0  0  0
 58 69  1  0  0  0
 59 70  1  0  0  0
 60 71  1  0  0  0
M  CHG  1  53   1
M  END
> <s_m_entry_id>
294

> <s_m_entry_name>
000000136.1

> <s_m_Source_Path>
/Users/zaksoul/Documents/3r_UNI/2nd_SEMESTER/BSC/FRAG_RECON/RESULTS/2

> <s_m_Source_File>
000000136.mol2

> <i_m_Source_File_Index>
1

$$$$
No_0_149
                    3D
 Schrodinger Suite 2022-4.
 73 79  0  0  1  0            999 V2000
   -5.1950    3.7610  -22.0700 C   0  0  0  0  0  0
   -5.4620    3.9390  -23.4070 C   0  0  0  0  0  0
   -3.9610    3.4840  -21.7310 C   0  0  0  0  0  0
   -3.0770    3.5630  -23.9020 C   0  0  0  0  0  0
   -2.9150    3.3320  -22.4790 C   0  0  0  0  0  0
   -4.4200    3.8490  -24.4200 C   0  0  0  0  0  0
   -3.6740    3.8270  -26.6220 C   0  0  0  0  0  0
    6.0590    2.9370  -21.3870 C   0  0  0  0  0  0
    5.9120    3.0510  -23.9380 C   0  0  0  0  0  0
   -4.6740    3.9660  -25.7560 C   0  0  0  0  0  0
    2.1410    3.6840  -23.9460 C   0  0  0  0  0  0
    1.3470    4.8150  -23.6580 C   0  0  0  0  0  0
    3.1740    5.9780  -23.0000 C   0  0  0  0  0  0
    3.5470    3.8470  -23.6410 C   0  0  0  0  0  0
    1.5660    2.5720  -24.5910 C   0  0  0  0  0  0
   -0.5410    3.4340  -24.4820 C   0  0  0  0  0  0
    0.0160    4.6500  -23.9010 C   0  0  0  0  0  0
   -1.9950    3.4690  -24.8310 C   0  0  0  0  0  0
    4.0970    1.3400  -23.3210 C   0  0  0  0  0  0
    5.0270    0.9770  -22.1730 C   0  0  2  0  0  0
    6.6520    2.4740  -22.7360 C   0  0  2  0  0  0
    5.0370    1.9930  -21.0190 C   0  0  0  0  0  0
   -2.3230    3.6180  -26.2590 C   0  0  0  0  0  0
   -1.5780    2.8960  -21.8810 C   0  0  0  0  0  0
   -0.5530    2.5310  -21.3750 C   0  0  0  0  0  0
   -0.8010    5.7180  -23.5660 F   0  0  0  0  0  0
   -3.7500    3.2530  -20.3470 F   0  0  0  0  0  0
    1.8520    5.9690  -23.1430 N   0  0  0  0  0  0
    4.0480    4.9920  -23.2120 N   0  0  0  0  0  0
    0.2570    2.5080  -24.8900 N   0  0  0  0  0  0
    4.4400    2.7760  -23.8090 N   0  0  0  0  0  0
    6.4330    1.0060  -22.6620 N   0  0  1  0  0  0
   -3.8530    3.8280  -28.0110 O   0  0  0  0  0  0
   -5.9922    3.8514  -21.3411 H   0  0  0  0  0  0
   -6.4734    4.1527  -23.7331 H   0  0  0  0  0  0
    5.6100    3.9340  -21.5071 H   0  0  0  0  0  0
    6.8483    2.9390  -20.6209 H   0  0  0  0  0  0
    6.2924    2.5858  -24.8593 H   0  0  0  0  0  0
    6.0796    4.1372  -23.9844 H   0  0  0  0  0  0
   -5.6815    4.1697  -26.1002 H   0  0  0  0  0  0
    2.1848    1.7255  -24.8658 H   0  0  0  0  0  0
    3.0549    1.3118  -22.9699 H   0  0  0  0  0  0
    4.2392    0.6278  -24.1472 H   0  0  0  0  0  0
    4.7818   -0.0252  -21.7915 H   0  0  0  0  0  0
    7.7258    2.7061  -22.7905 H   0  0  0  0  0  0
    4.0652    2.5067  -20.9776 H   0  0  0  0  0  0
    5.3296    1.4844  -20.0886 H   0  0  0  0  0  0
   -1.5572    3.5718  -27.0248 H   0  0  0  0  0  0
    0.3488    2.2101  -20.9291 H   0  0  0  0  0  0
    7.0717    0.5021  -21.9516 H   0  0  0  0  0  0
   -3.0121    3.7152  -28.4384 H   0  0  0  0  0  0
    7.0480    9.5380  -21.8560 O   0  0  0  0  0  0
    4.0860    8.9400  -20.6250 N   0  3  0  0  0  0
    7.0640    7.4730  -21.3180 N   0  0  0  0  0  0
    3.5280    7.6080  -21.0570 C   0  0  0  0  0  0
    5.4820    8.9370  -20.0530 C   0  0  0  0  0  0
    3.7660    7.3090  -22.5510 C   0  0  0  0  0  0
    8.7940    6.4480  -22.8850 C   0  0  0  0  0  0
    6.5490    8.6590  -21.0920 C   0  0  0  0  0  0
    7.9600    8.8810  -22.6500 C   0  0  0  0  0  0
    7.9810    7.5940  -22.3240 C   0  0  0  0  0  0
    3.4569    9.3650  -19.9619 H   0  0  0  0  0  0
    4.0470    9.5837  -21.3997 H   0  0  0  0  0  0
    2.4486    7.5780  -20.8471 H   0  0  0  0  0  0
    3.9771    6.8089  -20.4489 H   0  0  0  0  0  0
    5.5470    8.1849  -19.2529 H   0  0  0  0  0  0
    5.6830    9.9061  -19.5730 H   0  0  0  0  0  0
    4.8465    7.3170  -22.7569 H   0  0  0  0  0  0
    3.3402    8.1217  -23.1578 H   0  0  0  0  0  0
    9.4521    6.8221  -23.6831 H   0  0  0  0  0  0
    9.4040    6.0050  -22.0840 H   0  0  0  0  0  0
    8.1173    5.6843  -23.2958 H   0  0  0  0  0  0
    8.6098    9.2529  -23.4408 H   0  0  0  0  0  0
  1  2  2  0  0  0
  1  3  1  0  0  0
  1 34  1  0  0  0
  2  6  1  0  0  0
  2 35  1  0  0  0
  3  5  2  0  0  0
  3 27  1  0  0  0
  4  5  1  0  0  0
  4  6  2  0  0  0
  4 18  1  0  0  0
  5 24  1  0  0  0
  6 10  1  0  0  0
  7 10  2  0  0  0
  7 23  1  0  0  0
  7 33  1  0  0  0
  8 21  1  0  0  0
  8 22  1  0  0  0
  8 36  1  0  0  0
  8 37  1  0  0  0
  9 21  1  0  0  0
  9 31  1  0  0  0
  9 38  1  0  0  0
  9 39  1  0  0  0
 10 40  1  0  0  0
 11 12  1  0  0  0
 11 14  2  0  0  0
 11 15  1  0  0  0
 12 17  1  0  0  0
 12 28  2  0  0  0
 13 28  1  0  0  0
 13 29  2  0  0  0
 13 57  1  0  0  0
 14 29  1  0  0  0
 14 31  1  0  0  0
 15 30  2  0  0  0
 15 41  1  0  0  0
 16 17  2  0  0  0
 16 18  1  0  0  0
 16 30  1  0  0  0
 17 26  1  0  0  0
 18 23  2  0  0  0
 19 20  1  0  0  0
 19 31  1  0  0  0
 19 42  1  0  0  0
 19 43  1  0  0  0
 20 22  1  0  0  0
 20 32  1  0  0  0
 20 44  1  0  0  0
 21 32  1  0  0  0
 21 45  1  0  0  0
 22 46  1  0  0  0
 22 47  1  0  0  0
 23 48  1  0  0  0
 24 25  3  0  0  0
 25 49  1  0  0  0
 32 50  1  0  0  0
 33 51  1  0  0  0
 52 59  1  0  0  0
 52 60  1  0  0  0
 53 55  1  0  0  0
 53 56  1  0  0  0
 53 62  1  0  0  0
 53 63  1  0  0  0
 54 59  2  0  0  0
 54 61  1  0  0  0
 55 57  1  0  0  0
 55 64  1  0  0  0
 55 65  1  0  0  0
 56 59  1  0  0  0
 56 66  1  0  0  0
 56 67  1  0  0  0
 57 68  1  0  0  0
 57 69  1  0  0  0
 58 61  1  0  0  0
 58 70  1  0  0  0
 58 71  1  0  0  0
 58 72  1  0  0  0
 60 61  2  0  0  0
 60 73  1  0  0  0
M  CHG  1  53   1
M  END
> <s_m_entry_id>
295

> <s_m_entry_name>
000000137.1

> <s_m_Source_Path>
/Users/zaksoul/Documents/3r_UNI/2nd_SEMESTER/BSC/FRAG_RECON/RESULTS/2

> <s_m_Source_File>
000000137.mol2

> <i_m_Source_File_Index>
1

$$$$
No_0_150
                    3D
 Schrodinger Suite 2022-4.
 73 79  0  0  1  0            999 V2000
   -5.1820    3.5360  -21.9580 C   0  0  0  0  0  0
   -5.4780    3.6930  -23.2910 C   0  0  0  0  0  0
   -3.9320    3.3130  -21.6380 C   0  0  0  0  0  0
   -3.0870    3.4140  -23.8230 C   0  0  0  0  0  0
   -2.8930    3.2000  -22.4020 C   0  0  0  0  0  0
   -4.4500    3.6400  -24.3210 C   0  0  0  0  0  0
   -3.7390    3.6340  -26.5350 C   0  0  0  0  0  0
    6.1060    3.1870  -21.4550 C   0  0  0  0  0  0
    5.9130    3.2770  -24.0030 C   0  0  0  0  0  0
   -4.7300    3.7370  -25.6540 C   0  0  0  0  0  0
    2.1190    3.7520  -23.9540 C   0  0  0  0  0  0
    1.2830    4.8510  -23.6600 C   0  0  0  0  0  0
    3.0710    6.0930  -23.0390 C   0  0  0  0  0  0
    3.5220    3.9760  -23.6730 C   0  0  0  0  0  0
    1.5820    2.6120  -24.5830 C   0  0  0  0  0  0
   -0.5580    3.3870  -24.4440 C   0  0  0  0  0  0
   -0.0440    4.6290  -23.8800 C   0  0  0  0  0  0
   -2.0180    3.3590  -24.7690 C   0  0  0  0  0  0
    4.1810    1.4960  -23.3460 C   0  0  0  0  0  0
    5.1440    1.1800  -22.2120 C   0  0  2  0  0  0
    6.6960    2.7400  -22.8100 C   0  0  2  0  0  0
    5.1300    2.2040  -21.0640 C   0  0  0  0  0  0
   -2.3750    3.4840  -26.1930 C   0  0  0  0  0  0
   -1.5300    2.8240  -21.8230 C   0  0  0  0  0  0
   -0.4820    2.5060  -21.3310 C   0  0  0  0  0  0
   -0.8980    5.6640  -23.5380 F   0  0  0  0  0  0
   -3.6900    3.1010  -20.2560 F   0  0  0  0  0  0
    1.7480    6.0290  -23.1600 N   0  0  0  0  0  0
    3.9810    5.1440  -23.2590 N   0  0  0  0  0  0
    0.2710    2.4920  -24.8590 N   0  0  0  0  0  0
    4.4560    2.9420  -23.8490 N   0  0  0  0  0  0
    6.5390    1.2650  -22.7240 N   0  0  1  0  0  0
   -3.9400    3.6180  -27.9200 O   0  0  0  0  0  0
   -5.9700    3.5982  -21.2162 H   0  0  0  0  0  0
   -6.5025    3.8626  -23.6021 H   0  0  0  0  0  0
    5.6133    4.1633  -21.5741 H   0  0  0  0  0  0
    6.9067    3.2274  -20.7018 H   0  0  0  0  0  0
    6.2973    2.8221  -24.9279 H   0  0  0  0  0  0
    6.0342    4.3688  -24.0596 H   0  0  0  0  0  0
   -5.7509    3.8956  -25.9822 H   0  0  0  0  0  0
    2.2307    1.7896  -24.8622 H   0  0  0  0  0  0
    3.1468    1.4264  -22.9777 H   0  0  0  0  0  0
    4.3404    0.7849  -24.1700 H   0  0  0  0  0  0
    4.9471    0.1715  -21.8193 H   0  0  0  0  0  0
    7.7581    3.0166  -22.8837 H   0  0  0  0  0  0
    4.1380    2.6763  -21.0095 H   0  0  0  0  0  0
    5.4589    1.7137  -20.1359 H   0  0  0  0  0  0
   -1.6203    3.4639  -26.9708 H   0  0  0  0  0  0
    0.4398    2.2258  -20.8986 H   0  0  0  0  0  0
    7.2104    0.7935  -22.0216 H   0  0  0  0  0  0
   -3.1024    3.5379  -28.3610 H   0  0  0  0  0  0
    6.7140   10.0190  -22.4880 O   0  0  0  0  0  0
    4.2320    8.9610  -20.6560 N   0  3  0  0  0  0
    7.0790    7.9380  -22.1880 N   0  0  0  0  0  0
    3.7250    7.6040  -21.0780 C   0  0  0  0  0  0
    5.7180    9.0910  -20.4370 C   0  0  0  0  0  0
    3.6140    7.4520  -22.6080 C   0  0  0  0  0  0
    8.4610    7.2620  -24.2200 C   0  0  0  0  0  0
    6.5160    9.0290  -21.7230 C   0  0  0  0  0  0
    7.4640    9.5450  -23.5410 C   0  0  0  0  0  0
    7.6980    8.2500  -23.3660 C   0  0  0  0  0  0
    3.7471    9.2509  -19.8212 H   0  0  0  0  0  0
    3.9339    9.6503  -21.3283 H   0  0  0  0  0  0
    2.7415    7.4229  -20.6198 H   0  0  0  0  0  0
    4.3922    6.8248  -20.6809 H   0  0  0  0  0  0
    6.0587    8.2958  -19.7576 H   0  0  0  0  0  0
    5.9300   10.0390  -19.9210 H   0  0  0  0  0  0
    4.6021    7.6120  -23.0641 H   0  0  0  0  0  0
    2.9680    8.2470  -23.0090 H   0  0  0  0  0  0
    8.8570    7.7749  -25.1089 H   0  0  0  0  0  0
    9.2945    6.8408  -23.6387 H   0  0  0  0  0  0
    7.7869    6.4519  -24.5351 H   0  0  0  0  0  0
    7.8532   10.0542  -24.4214 H   0  0  0  0  0  0
  1  2  2  0  0  0
  1  3  1  0  0  0
  1 34  1  0  0  0
  2  6  1  0  0  0
  2 35  1  0  0  0
  3  5  2  0  0  0
  3 27  1  0  0  0
  4  5  1  0  0  0
  4  6  2  0  0  0
  4 18  1  0  0  0
  5 24  1  0  0  0
  6 10  1  0  0  0
  7 10  2  0  0  0
  7 23  1  0  0  0
  7 33  1  0  0  0
  8 21  1  0  0  0
  8 22  1  0  0  0
  8 36  1  0  0  0
  8 37  1  0  0  0
  9 21  1  0  0  0
  9 31  1  0  0  0
  9 38  1  0  0  0
  9 39  1  0  0  0
 10 40  1  0  0  0
 11 12  1  0  0  0
 11 14  2  0  0  0
 11 15  1  0  0  0
 12 17  1  0  0  0
 12 28  2  0  0  0
 13 28  1  0  0  0
 13 29  2  0  0  0
 13 57  1  0  0  0
 14 29  1  0  0  0
 14 31  1  0  0  0
 15 30  2  0  0  0
 15 41  1  0  0  0
 16 17  2  0  0  0
 16 18  1  0  0  0
 16 30  1  0  0  0
 17 26  1  0  0  0
 18 23  2  0  0  0
 19 20  1  0  0  0
 19 31  1  0  0  0
 19 42  1  0  0  0
 19 43  1  0  0  0
 20 22  1  0  0  0
 20 32  1  0  0  0
 20 44  1  0  0  0
 21 32  1  0  0  0
 21 45  1  0  0  0
 22 46  1  0  0  0
 22 47  1  0  0  0
 23 48  1  0  0  0
 24 25  3  0  0  0
 25 49  1  0  0  0
 32 50  1  0  0  0
 33 51  1  0  0  0
 52 59  1  0  0  0
 52 60  1  0  0  0
 53 55  1  0  0  0
 53 56  1  0  0  0
 53 62  1  0  0  0
 53 63  1  0  0  0
 54 59  2  0  0  0
 54 61  1  0  0  0
 55 57  1  0  0  0
 55 64  1  0  0  0
 55 65  1  0  0  0
 56 59  1  0  0  0
 56 66  1  0  0  0
 56 67  1  0  0  0
 57 68  1  0  0  0
 57 69  1  0  0  0
 58 61  1  0  0  0
 58 70  1  0  0  0
 58 71  1  0  0  0
 58 72  1  0  0  0
 60 61  2  0  0  0
 60 73  1  0  0  0
M  CHG  1  53   1
M  END
> <s_m_entry_id>
296

> <s_m_entry_name>
000000138.1

> <s_m_Source_Path>
/Users/zaksoul/Documents/3r_UNI/2nd_SEMESTER/BSC/FRAG_RECON/RESULTS/2

> <s_m_Source_File>
000000138.mol2

> <i_m_Source_File_Index>
1

$$$$
No_0_151
                    3D
 Schrodinger Suite 2022-4.
 73 79  0  0  1  0            999 V2000
   -4.9200    3.8460  -22.1540 C   0  0  0  0  0  0
   -5.1630    4.0480  -23.4910 C   0  0  0  0  0  0
   -3.6840    3.6110  -21.7920 C   0  0  0  0  0  0
   -2.7530    3.7830  -23.9380 C   0  0  0  0  0  0
   -2.6150    3.5220  -22.5180 C   0  0  0  0  0  0
   -4.0950    4.0280  -24.4820 C   0  0  0  0  0  0
   -3.2980    4.0930  -26.6640 C   0  0  0  0  0  0
    6.3390    3.4660  -21.2190 C   0  0  0  0  0  0
    6.2470    3.6400  -23.7690 C   0  0  0  0  0  0
   -4.3230    4.1690  -25.8200 C   0  0  0  0  0  0
    2.4540    4.1190  -23.8530 C   0  0  0  0  0  0
    1.6070    5.2080  -23.5550 C   0  0  0  0  0  0
    3.3690    6.4270  -22.8240 C   0  0  0  0  0  0
    3.8450    4.3310  -23.5100 C   0  0  0  0  0  0
    1.9420    3.0010  -24.5390 C   0  0  0  0  0  0
   -0.2020    3.7740  -24.4600 C   0  0  0  0  0  0
    0.2900    4.9950  -23.8350 C   0  0  0  0  0  0
   -1.6480    3.7580  -24.8430 C   0  0  0  0  0  0
    4.4910    1.8410  -23.2390 C   0  0  0  0  0  0
    5.4080    1.4870  -22.0790 C   0  0  2  0  0  0
    6.9830    3.0630  -22.5640 C   0  0  2  0  0  0
    5.3490    2.4720  -20.9000 C   0  0  0  0  0  0
   -1.9480    3.9310  -26.2740 C   0  0  0  0  0  0
   -1.2760    3.1250  -21.8990 C   0  0  0  0  0  0
   -0.2490    2.7900  -21.3770 C   0  0  0  0  0  0
   -0.5770    6.0200  -23.4930 F   0  0  0  0  0  0
   -3.4960    3.3540  -20.4090 F   0  0  0  0  0  0
    2.0520    6.3680  -22.9990 N   0  0  0  0  0  0
    4.2880    5.4840  -23.0400 N   0  0  0  0  0  0
    0.6430    2.8920  -24.8710 N   0  0  0  0  0  0
    4.7850    3.3030  -23.6830 N   0  0  0  0  0  0
    6.8230    1.5860  -22.5330 N   0  0  1  0  0  0
   -3.4440    4.1240  -28.0570 O   0  0  0  0  0  0
   -5.7365    3.8842  -21.4420 H   0  0  0  0  0  0
   -6.1743    4.2286  -23.8371 H   0  0  0  0  0  0
    5.8522    4.4467  -21.3250 H   0  0  0  0  0  0
    7.1102    3.4801  -20.4347 H   0  0  0  0  0  0
    6.6678    3.2152  -24.6923 H   0  0  0  0  0  0
    6.3711    4.7329  -23.7841 H   0  0  0  0  0  0
   -5.3298    4.3406  -26.1834 H   0  0  0  0  0  0
    2.6015    2.1879  -24.8201 H   0  0  0  0  0  0
    3.4428    1.7603  -22.9152 H   0  0  0  0  0  0
    4.6817    1.1577  -24.0797 H   0  0  0  0  0  0
    5.1961    0.4660  -21.7289 H   0  0  0  0  0  0
    8.0472    3.3406  -22.5862 H   0  0  0  0  0  0
    4.3556    2.9434  -20.8687 H   0  0  0  0  0  0
    5.6406    1.9514  -19.9759 H   0  0  0  0  0  0
   -1.1641    3.9360  -27.0227 H   0  0  0  0  0  0
    0.6548    2.4941  -20.9181 H   0  0  0  0  0  0
    7.4660    1.0907  -21.8205 H   0  0  0  0  0  0
   -2.5896    4.0567  -28.4669 H   0  0  0  0  0  0
    6.4590   10.8370  -22.8160 O   0  0  0  0  0  0
    5.1170    9.0080  -20.4720 N   0  3  0  0  0  0
    7.1370    8.8480  -23.1910 N   0  0  0  0  0  0
    4.6280    7.6730  -20.9750 C   0  0  0  0  0  0
    6.5330    9.3880  -20.8260 C   0  0  0  0  0  0
    3.8950    7.7700  -22.3280 C   0  0  0  0  0  0
    7.5910    8.8210  -25.6990 C   0  0  0  0  0  0
    6.7110    9.7100  -22.2960 C   0  0  0  0  0  0
    6.7370   10.7090  -24.1580 C   0  0  0  0  0  0
    7.1610    9.4760  -24.4040 C   0  0  0  0  0  0
    5.0040    9.0470  -19.4711 H   0  0  0  0  0  0
    4.4901    9.7318  -20.7869 H   0  0  0  0  0  0
    3.9571    7.2251  -20.2271 H   0  0  0  0  0  0
    5.4793    6.9828  -21.0690 H   0  0  0  0  0  0
    7.2124    8.5695  -20.5458 H   0  0  0  0  0  0
    6.8410   10.2549  -20.2230 H   0  0  0  0  0  0
    4.5730    8.1980  -23.0810 H   0  0  0  0  0  0
    3.0588    8.4792  -22.2400 H   0  0  0  0  0  0
    7.5150    9.5480  -26.5210 H   0  0  0  0  0  0
    8.6320    8.4770  -25.6090 H   0  0  0  0  0  0
    6.9380    7.9610  -25.9090 H   0  0  0  0  0  0
    6.6600   11.4298  -24.9707 H   0  0  0  0  0  0
  1  2  2  0  0  0
  1  3  1  0  0  0
  1 34  1  0  0  0
  2  6  1  0  0  0
  2 35  1  0  0  0
  3  5  2  0  0  0
  3 27  1  0  0  0
  4  5  1  0  0  0
  4  6  2  0  0  0
  4 18  1  0  0  0
  5 24  1  0  0  0
  6 10  1  0  0  0
  7 10  2  0  0  0
  7 23  1  0  0  0
  7 33  1  0  0  0
  8 21  1  0  0  0
  8 22  1  0  0  0
  8 36  1  0  0  0
  8 37  1  0  0  0
  9 21  1  0  0  0
  9 31  1  0  0  0
  9 38  1  0  0  0
  9 39  1  0  0  0
 10 40  1  0  0  0
 11 12  1  0  0  0
 11 14  2  0  0  0
 11 15  1  0  0  0
 12 17  1  0  0  0
 12 28  2  0  0  0
 13 28  1  0  0  0
 13 29  2  0  0  0
 13 57  1  0  0  0
 14 29  1  0  0  0
 14 31  1  0  0  0
 15 30  2  0  0  0
 15 41  1  0  0  0
 16 17  2  0  0  0
 16 18  1  0  0  0
 16 30  1  0  0  0
 17 26  1  0  0  0
 18 23  2  0  0  0
 19 20  1  0  0  0
 19 31  1  0  0  0
 19 42  1  0  0  0
 19 43  1  0  0  0
 20 22  1  0  0  0
 20 32  1  0  0  0
 20 44  1  0  0  0
 21 32  1  0  0  0
 21 45  1  0  0  0
 22 46  1  0  0  0
 22 47  1  0  0  0
 23 48  1  0  0  0
 24 25  3  0  0  0
 25 49  1  0  0  0
 32 50  1  0  0  0
 33 51  1  0  0  0
 52 59  1  0  0  0
 52 60  1  0  0  0
 53 55  1  0  0  0
 53 56  1  0  0  0
 53 62  1  0  0  0
 53 63  1  0  0  0
 54 59  2  0  0  0
 54 61  1  0  0  0
 55 57  1  0  0  0
 55 64  1  0  0  0
 55 65  1  0  0  0
 56 59  1  0  0  0
 56 66  1  0  0  0
 56 67  1  0  0  0
 57 68  1  0  0  0
 57 69  1  0  0  0
 58 61  1  0  0  0
 58 70  1  0  0  0
 58 71  1  0  0  0
 58 72  1  0  0  0
 60 61  2  0  0  0
 60 73  1  0  0  0
M  CHG  1  53   1
M  END
> <s_m_entry_id>
297

> <s_m_entry_name>
000000139.1

> <s_m_Source_Path>
/Users/zaksoul/Documents/3r_UNI/2nd_SEMESTER/BSC/FRAG_RECON/RESULTS/2

> <s_m_Source_File>
000000139.mol2

> <i_m_Source_File_Index>
1

$$$$
No_0_152
                    3D
 Schrodinger Suite 2022-4.
 73 79  0  0  1  0            999 V2000
   -4.9330    3.5300  -21.7400 C   0  0  0  0  0  0
   -5.2340    3.7070  -23.0700 C   0  0  0  0  0  0
   -3.6850    3.2890  -21.4290 C   0  0  0  0  0  0
   -2.8490    3.4050  -23.6170 C   0  0  0  0  0  0
   -2.6510    3.1720  -22.1990 C   0  0  0  0  0  0
   -4.2110    3.6540  -24.1060 C   0  0  0  0  0  0
   -3.5120    3.6640  -26.3230 C   0  0  0  0  0  0
    6.3520    3.0400  -21.2990 C   0  0  0  0  0  0
    6.1480    3.1620  -23.8450 C   0  0  0  0  0  0
   -4.4970    3.7690  -25.4360 C   0  0  0  0  0  0
    2.3600    3.6820  -23.7710 C   0  0  0  0  0  0
    1.5390    4.7870  -23.4590 C   0  0  0  0  0  0
    3.3450    6.0010  -22.8340 C   0  0  0  0  0  0
    3.7670    3.8860  -23.4940 C   0  0  0  0  0  0
    1.8060    2.5560  -24.4100 C   0  0  0  0  0  0
   -0.3240    3.3550  -24.2520 C   0  0  0  0  0  0
    0.2090    4.5840  -23.6750 C   0  0  0  0  0  0
   -1.7850    3.3480  -24.5690 C   0  0  0  0  0  0
    4.3980    1.3940  -23.1990 C   0  0  0  0  0  0
    5.3620    1.0540  -22.0740 C   0  0  2  0  0  0
    6.9300    2.6020  -22.6620 C   0  0  2  0  0  0
    5.3670    2.0640  -20.9140 C   0  0  0  0  0  0
   -2.1480    3.4940  -25.9900 C   0  0  0  0  0  0
   -1.2890    2.7730  -21.6320 C   0  0  0  0  0  0
   -0.2430    2.4370  -21.1500 C   0  0  0  0  0  0
   -0.6320    5.6250  -23.3180 F   0  0  0  0  0  0
   -3.4380    3.0580  -20.0510 F   0  0  0  0  0  0
    2.0210    5.9540  -22.9490 N   0  0  0  0  0  0
    4.2420    5.0430  -23.0690 N   0  0  0  0  0  0
    0.4930    2.4550  -24.6810 N   0  0  0  0  0  0
    4.6880    2.8430  -23.6870 N   0  0  0  0  0  0
    6.7560    1.1280  -22.5920 N   0  0  1  0  0  0
   -3.7190    3.6670  -27.7080 O   0  0  0  0  0  0
   -5.7170    3.5932  -20.9941 H   0  0  0  0  0  0
   -6.2578    3.8927  -23.3741 H   0  0  0  0  0  0
    5.8716    4.0240  -21.4040 H   0  0  0  0  0  0
    7.1569    3.0622  -20.5496 H   0  0  0  0  0  0
    6.5225    2.7128  -24.7767 H   0  0  0  0  0  0
    6.2822    4.2529  -23.8894 H   0  0  0  0  0  0
   -5.5170    3.9447  -25.7583 H   0  0  0  0  0  0
    2.4438    1.7293  -24.7013 H   0  0  0  0  0  0
    3.3647    1.3335  -22.8267 H   0  0  0  0  0  0
    4.5444    0.6915  -24.0327 H   0  0  0  0  0  0
    5.1550    0.0433  -21.6923 H   0  0  0  0  0  0
    7.9950    2.8665  -22.7377 H   0  0  0  0  0  0
    4.3814    2.5482  -20.8494 H   0  0  0  0  0  0
    5.6939    1.5595  -19.9928 H   0  0  0  0  0  0
   -1.3973    3.4739  -26.7718 H   0  0  0  0  0  0
    0.6772    2.1409  -20.7249 H   0  0  0  0  0  0
    7.4248    0.6398  -21.8986 H   0  0  0  0  0  0
   -2.8847    3.5819  -28.1543 H   0  0  0  0  0  0
    6.9410    8.2980  -21.4130 O   0  0  0  0  0  0
    3.7740    9.2120  -20.6720 N   0  3  0  0  0  0
    6.6120   10.3320  -21.9650 N   0  0  0  0  0  0
    3.3820    7.7950  -21.0120 C   0  0  0  0  0  0
    5.1670    9.4270  -20.1300 C   0  0  0  0  0  0
    3.9060    7.3480  -22.3900 C   0  0  0  0  0  0
    8.8270    7.6380  -22.9970 C   0  0  0  0  0  0
    6.2570    9.3410  -21.1820 C   0  0  0  0  0  0
    7.6180    9.8810  -22.7680 C   0  0  0  0  0  0
    7.8230    8.6160  -22.4250 C   0  0  0  0  0  0
    3.1033    9.5949  -20.0242 H   0  0  0  0  0  0
    3.6399    9.7963  -21.4824 H   0  0  0  0  0  0
    2.2860    7.7040  -20.9910 H   0  0  0  0  0  0
    3.7631    7.1139  -20.2369 H   0  0  0  0  0  0
    5.3671    8.6928  -19.3357 H   0  0  0  0  0  0
    5.2170   10.4070  -19.6330 H   0  0  0  0  0  0
    5.0044    7.2950  -22.3640 H   0  0  0  0  0  0
    3.6579    8.1123  -23.1412 H   0  0  0  0  0  0
    9.4100    8.1310  -23.7889 H   0  0  0  0  0  0
    9.5055    7.2988  -22.2004 H   0  0  0  0  0  0
    8.2960    6.7720  -23.4190 H   0  0  0  0  0  0
    8.0688   10.5466  -23.5026 H   0  0  0  0  0  0
  1  2  2  0  0  0
  1  3  1  0  0  0
  1 34  1  0  0  0
  2  6  1  0  0  0
  2 35  1  0  0  0
  3  5  2  0  0  0
  3 27  1  0  0  0
  4  5  1  0  0  0
  4  6  2  0  0  0
  4 18  1  0  0  0
  5 24  1  0  0  0
  6 10  1  0  0  0
  7 10  2  0  0  0
  7 23  1  0  0  0
  7 33  1  0  0  0
  8 21  1  0  0  0
  8 22  1  0  0  0
  8 36  1  0  0  0
  8 37  1  0  0  0
  9 21  1  0  0  0
  9 31  1  0  0  0
  9 38  1  0  0  0
  9 39  1  0  0  0
 10 40  1  0  0  0
 11 12  1  0  0  0
 11 14  2  0  0  0
 11 15  1  0  0  0
 12 17  1  0  0  0
 12 28  2  0  0  0
 13 28  1  0  0  0
 13 29  2  0  0  0
 13 57  1  0  0  0
 14 29  1  0  0  0
 14 31  1  0  0  0
 15 30  2  0  0  0
 15 41  1  0  0  0
 16 17  2  0  0  0
 16 18  1  0  0  0
 16 30  1  0  0  0
 17 26  1  0  0  0
 18 23  2  0  0  0
 19 20  1  0  0  0
 19 31  1  0  0  0
 19 42  1  0  0  0
 19 43  1  0  0  0
 20 22  1  0  0  0
 20 32  1  0  0  0
 20 44  1  0  0  0
 21 32  1  0  0  0
 21 45  1  0  0  0
 22 46  1  0  0  0
 22 47  1  0  0  0
 23 48  1  0  0  0
 24 25  3  0  0  0
 25 49  1  0  0  0
 32 50  1  0  0  0
 33 51  1  0  0  0
 52 59  1  0  0  0
 52 61  1  0  0  0
 53 55  1  0  0  0
 53 56  1  0  0  0
 53 62  1  0  0  0
 53 63  1  0  0  0
 54 59  2  0  0  0
 54 60  1  0  0  0
 55 57  1  0  0  0
 55 64  1  0  0  0
 55 65  1  0  0  0
 56 59  1  0  0  0
 56 66  1  0  0  0
 56 67  1  0  0  0
 57 68  1  0  0  0
 57 69  1  0  0  0
 58 61  1  0  0  0
 58 70  1  0  0  0
 58 71  1  0  0  0
 58 72  1  0  0  0
 60 61  2  0  0  0
 60 73  1  0  0  0
M  CHG  1  53   1
M  END
> <s_m_entry_id>
298

> <s_m_entry_name>
000000140.1

> <s_m_Source_Path>
/Users/zaksoul/Documents/3r_UNI/2nd_SEMESTER/BSC/FRAG_RECON/RESULTS/2

> <s_m_Source_File>
000000140.mol2

> <i_m_Source_File_Index>
1

$$$$
No_0_153
                    3D
 Schrodinger Suite 2022-4.
 74 80  0  0  1  0            999 V2000
   -5.0450    3.7890  -21.7370 C   0  0  0  0  0  0
   -5.3440    3.9610  -23.0680 C   0  0  0  0  0  0
   -3.7980    3.5450  -21.4230 C   0  0  0  0  0  0
   -2.9600    3.6500  -23.6110 C   0  0  0  0  0  0
   -2.7630    3.4220  -22.1920 C   0  0  0  0  0  0
   -4.3200    3.9010  -24.1020 C   0  0  0  0  0  0
   -3.6190    3.9010  -26.3180 C   0  0  0  0  0  0
    6.2380    3.2670  -21.2820 C   0  0  0  0  0  0
    6.0370    3.3800  -23.8290 C   0  0  0  0  0  0
   -4.6050    4.0120  -25.4330 C   0  0  0  0  0  0
    2.2510    3.9120  -23.7610 C   0  0  0  0  0  0
    1.4320    5.0200  -23.4540 C   0  0  0  0  0  0
    3.2410    6.2310  -22.8320 C   0  0  0  0  0  0
    3.6570    4.1120  -23.4840 C   0  0  0  0  0  0
    1.6940    2.7850  -24.3960 C   0  0  0  0  0  0
   -0.4340    3.5910  -24.2430 C   0  0  0  0  0  0
    0.1020    4.8200  -23.6710 C   0  0  0  0  0  0
   -1.8950    3.5870  -24.5620 C   0  0  0  0  0  0
    4.2810    1.6200  -23.1790 C   0  0  0  0  0  0
    5.2440    1.2810  -22.0510 C   0  0  2  0  0  0
    6.8160    2.8220  -22.6430 C   0  0  2  0  0  0
    5.2490    2.2960  -20.8950 C   0  0  0  0  0  0
   -2.2560    3.7280  -25.9840 C   0  0  0  0  0  0
   -1.4030    3.0210  -21.6220 C   0  0  0  0  0  0
   -0.3590    2.6840  -21.1370 C   0  0  0  0  0  0
   -0.7360    5.8650  -23.3180 F   0  0  0  0  0  0
   -3.5530    3.3190  -20.0440 F   0  0  0  0  0  0
    1.9170    6.1870  -22.9480 N   0  0  0  0  0  0
    4.1360    5.2700  -23.0630 N   0  0  0  0  0  0
    0.3810    2.6860  -24.6680 N   0  0  0  0  0  0
    4.5760    3.0660  -23.6710 N   0  0  0  0  0  0
    6.6380    1.3490  -22.5680 N   0  0  1  0  0  0
   -3.8250    3.8990  -27.7040 O   0  0  0  0  0  0
   -5.8294    3.8563  -20.9918 H   0  0  0  0  0  0
   -6.3672    4.1478  -23.3733 H   0  0  0  0  0  0
    5.7607    4.2519  -21.3920 H   0  0  0  0  0  0
    7.0424    3.2892  -20.5321 H   0  0  0  0  0  0
    6.4114    2.9259  -24.7583 H   0  0  0  0  0  0
    6.1743    4.4703  -23.8775 H   0  0  0  0  0  0
   -5.6244    4.1888  -25.7564 H   0  0  0  0  0  0
    2.3292    1.9551  -24.6840 H   0  0  0  0  0  0
    3.2471    1.5635  -22.8078 H   0  0  0  0  0  0
    4.4264    0.9131  -24.0091 H   0  0  0  0  0  0
    5.0330    0.2726  -21.6654 H   0  0  0  0  0  0
    7.8818    3.0834  -22.7187 H   0  0  0  0  0  0
    4.2645    2.7827  -20.8334 H   0  0  0  0  0  0
    5.5738    1.7936  -19.9719 H   0  0  0  0  0  0
   -1.5049    3.7029  -26.7652 H   0  0  0  0  0  0
    0.5604    2.3869  -20.7108 H   0  0  0  0  0  0
    7.3043    0.8613  -21.8718 H   0  0  0  0  0  0
   -2.9902    3.8099  -28.1486 H   0  0  0  0  0  0
    4.9800    8.8050  -20.4770 N   0  0  1  0  0  0
    6.4580   11.0760  -22.2880 N   0  0  0  0  0  0
    6.7850    9.2330  -23.4230 N   0  0  0  0  0  0
    4.1930    7.5900  -20.8990 C   0  0  0  0  0  0
    6.4070    8.8870  -20.9620 C   0  0  0  0  0  0
    6.5460    9.7230  -22.2210 C   0  0  3  0  0  0
    6.1940   12.0180  -21.1940 C   0  0  0  0  0  0
    3.8060    7.5780  -22.3920 C   0  0  0  0  0  0
    6.6560   11.3870  -23.5940 C   0  0  0  0  0  0
    6.8570   10.2790  -24.3020 C   0  0  0  0  0  0
    4.4926    9.6957  -20.8453 H   0  0  0  0  0  0
    6.8810    8.2160  -23.5550 H   0  0  0  0  0  0
    3.2832    7.5139  -20.2854 H   0  0  0  0  0  0
    4.7691    6.6829  -20.6640 H   0  0  0  0  0  0
    6.7878    7.8726  -21.1519 H   0  0  0  0  0  0
    7.0387    9.3128  -20.1684 H   0  0  0  0  0  0
    6.1870   13.0455  -21.5868 H   0  0  0  0  0  0
    5.2168   11.7929  -20.7419 H   0  0  0  0  0  0
    6.9804   11.9241  -20.4306 H   0  0  0  0  0  0
    4.6889    7.8200  -23.0019 H   0  0  0  0  0  0
    3.0630    8.3660  -22.5840 H   0  0  0  0  0  0
    6.6350   12.4228  -23.9129 H   0  0  0  0  0  0
    7.0489   10.0921  -25.3524 H   0  0  0  0  0  0
  1  2  2  0  0  0
  1  3  1  0  0  0
  1 34  1  0  0  0
  2  6  1  0  0  0
  2 35  1  0  0  0
  3  5  2  0  0  0
  3 27  1  0  0  0
  4  5  1  0  0  0
  4  6  2  0  0  0
  4 18  1  0  0  0
  5 24  1  0  0  0
  6 10  1  0  0  0
  7 10  2  0  0  0
  7 23  1  0  0  0
  7 33  1  0  0  0
  8 21  1  0  0  0
  8 22  1  0  0  0
  8 36  1  0  0  0
  8 37  1  0  0  0
  9 21  1  0  0  0
  9 31  1  0  0  0
  9 38  1  0  0  0
  9 39  1  0  0  0
 10 40  1  0  0  0
 11 12  2  0  0  0
 11 14  1  0  0  0
 11 15  1  0  0  0
 12 17  1  0  0  0
 12 28  1  0  0  0
 13 28  2  0  0  0
 13 29  1  0  0  0
 13 59  1  0  0  0
 14 29  2  0  0  0
 14 31  1  0  0  0
 15 30  2  0  0  0
 15 41  1  0  0  0
 16 17  2  0  0  0
 16 18  1  0  0  0
 16 30  1  0  0  0
 17 26  1  0  0  0
 18 23  2  0  0  0
 19 20  1  0  0  0
 19 31  1  0  0  0
 19 42  1  0  0  0
 19 43  1  0  0  0
 20 22  1  0  0  0
 20 32  1  0  0  0
 20 44  1  0  0  0
 21 32  1  0  0  0
 21 45  1  0  0  0
 22 46  1  0  0  0
 22 47  1  0  0  0
 23 48  1  0  0  0
 24 25  3  0  0  0
 25 49  1  0  0  0
 32 50  1  0  0  0
 33 51  1  0  0  0
 52 55  1  0  0  0
 52 56  1  0  0  0
 52 62  1  0  0  0
 53 57  1  0  0  0
 53 58  1  0  0  0
 53 60  1  0  0  0
 54 57  1  0  0  0
 54 61  1  0  0  0
 54 63  1  0  0  0
 55 59  1  0  0  0
 55 64  1  0  0  0
 55 65  1  0  0  0
 56 57  1  0  0  0
 56 66  1  0  0  0
 56 67  1  0  0  0
 58 68  1  0  0  0
 58 69  1  0  0  0
 58 70  1  0  0  0
 59 71  1  0  0  0
 59 72  1  0  0  0
 60 61  2  0  0  0
 60 73  1  0  0  0
 61 74  1  0  0  0
M  END
> <s_m_entry_id>
299

> <s_m_entry_name>
000000141.1

> <s_m_Source_Path>
/Users/zaksoul/Documents/3r_UNI/2nd_SEMESTER/BSC/FRAG_RECON/RESULTS/2

> <s_m_Source_File>
000000141.mol2

> <i_m_Source_File_Index>
1

$$$$
No_0_154
                    3D
 Schrodinger Suite 2022-4.
 73 79  0  0  1  0            999 V2000
   -5.3470    3.2770  -21.8500 C   0  0  0  0  0  0
   -5.6110    3.4940  -23.1810 C   0  0  0  0  0  0
   -4.1050    3.0420  -21.5100 C   0  0  0  0  0  0
   -3.2070    3.2430  -23.6670 C   0  0  0  0  0  0
   -3.0470    2.9650  -22.2520 C   0  0  0  0  0  0
   -4.5580    3.4900  -24.1880 C   0  0  0  0  0  0
   -3.7940    3.5840  -26.3810 C   0  0  0  0  0  0
    5.9260    2.9220  -21.0890 C   0  0  0  0  0  0
    5.7950    3.1270  -23.6340 C   0  0  0  0  0  0
   -4.8060    3.6460  -25.5200 C   0  0  0  0  0  0
    2.0000    3.5940  -23.6560 C   0  0  0  0  0  0
    1.1540    4.6770  -23.3330 C   0  0  0  0  0  0
    2.9230    5.8930  -22.6130 C   0  0  0  0  0  0
    3.3950    3.8070  -23.3310 C   0  0  0  0  0  0
    1.4810    2.4830  -24.3480 C   0  0  0  0  0  0
   -0.6640    3.2480  -24.2270 C   0  0  0  0  0  0
   -0.1660    4.4630  -23.5950 C   0  0  0  0  0  0
   -2.1150    3.2320  -24.5880 C   0  0  0  0  0  0
    4.0520    1.3160  -23.1010 C   0  0  0  0  0  0
    4.9880    0.9500  -21.9590 C   0  0  2  0  0  0
    6.5500    2.5380  -22.4480 C   0  0  2  0  0  0
    4.9440    1.9210  -20.7670 C   0  0  0  0  0  0
   -2.4380    3.4210  -26.0130 C   0  0  0  0  0  0
   -1.6970    2.5650  -21.6580 C   0  0  0  0  0  0
   -0.6610    2.2270  -21.1560 C   0  0  0  0  0  0
   -1.0320    5.4810  -23.2270 F   0  0  0  0  0  0
   -3.8950    2.7680  -20.1330 F   0  0  0  0  0  0
    1.6040    5.8320  -22.7690 N   0  0  0  0  0  0
    3.8410    4.9550  -22.8540 N   0  0  0  0  0  0
    0.1780    2.3740  -24.6620 N   0  0  0  0  0  0
    4.3360    2.7830  -23.5310 N   0  0  0  0  0  0
    6.3950    1.0600  -22.4330 N   0  0  1  0  0  0
   -3.9610    3.6310  -27.7700 O   0  0  0  0  0  0
   -6.1528    3.3041  -21.1255 H   0  0  0  0  0  0
   -6.6280    3.6757  -23.5093 H   0  0  0  0  0  0
    5.4344    3.9022  -21.1758 H   0  0  0  0  0  0
    6.7083    2.9291  -20.3158 H   0  0  0  0  0  0
    6.2024    2.7145  -24.5688 H   0  0  0  0  0  0
    5.9151    4.2204  -23.6390 H   0  0  0  0  0  0
   -5.8186    3.8186  -25.8662 H   0  0  0  0  0  0
    2.1389    1.6755  -24.6483 H   0  0  0  0  0  0
    3.0093    1.2282  -22.7618 H   0  0  0  0  0  0
    4.2327    0.6427  -23.9519 H   0  0  0  0  0  0
    4.7841   -0.0757  -21.6178 H   0  0  0  0  0  0
    7.6130    2.8186  -22.4833 H   0  0  0  0  0  0
    3.9500    2.3893  -20.7155 H   0  0  0  0  0  0
    5.2508    1.3902  -19.8537 H   0  0  0  0  0  0
   -1.6651    3.4381  -26.7729 H   0  0  0  0  0  0
    0.2508    1.9287  -20.7146 H   0  0  0  0  0  0
    7.0499    0.5578  -21.7364 H   0  0  0  0  0  0
   -3.1132    3.5716  -28.1944 H   0  0  0  0  0  0
    7.3530   10.7300  -21.1700 N   0  3  0  0  0  0
    5.4830    8.8010  -22.2140 N   0  0  0  0  0  0
    5.9520   10.7550  -20.7290 C   0  0  0  0  0  0
    7.4180   10.3490  -22.5880 C   0  0  0  0  0  0
    3.4520    7.2310  -22.1080 C   0  0  0  0  0  0
    6.8850    8.9150  -22.7550 C   0  0  0  0  0  0
    5.3510    9.3390  -20.8110 C   0  0  0  0  0  0
    4.9660    7.3960  -22.3660 C   0  0  0  0  0  0
    7.8668   10.0602  -20.6192 H   0  0  0  0  0  0
    7.7601   11.6443  -21.0500 H   0  0  0  0  0  0
    5.3760   11.4349  -21.3739 H   0  0  0  0  0  0
    5.9010   11.1151  -19.6908 H   0  0  0  0  0  0
    8.4617   10.3950  -22.9322 H   0  0  0  0  0  0
    6.8010   11.0401  -23.1810 H   0  0  0  0  0  0
    2.9058    8.0492  -22.6001 H   0  0  0  0  0  0
    3.2530    7.3200  -21.0298 H   0  0  0  0  0  0
    6.8900    8.6449  -23.8213 H   0  0  0  0  0  0
    7.5426    8.2154  -22.2183 H   0  0  0  0  0  0
    5.8809    8.6751  -20.1121 H   0  0  0  0  0  0
    4.2879    9.3750  -20.5310 H   0  0  0  0  0  0
    5.5242    6.7268  -21.6948 H   0  0  0  0  0  0
    5.2051    7.0269  -23.3743 H   0  0  0  0  0  0
  1  2  2  0  0  0
  1  3  1  0  0  0
  1 34  1  0  0  0
  2  6  1  0  0  0
  2 35  1  0  0  0
  3  5  2  0  0  0
  3 27  1  0  0  0
  4  5  1  0  0  0
  4  6  2  0  0  0
  4 18  1  0  0  0
  5 24  1  0  0  0
  6 10  1  0  0  0
  7 10  2  0  0  0
  7 23  1  0  0  0
  7 33  1  0  0  0
  8 21  1  0  0  0
  8 22  1  0  0  0
  8 36  1  0  0  0
  8 37  1  0  0  0
  9 21  1  0  0  0
  9 31  1  0  0  0
  9 38  1  0  0  0
  9 39  1  0  0  0
 10 40  1  0  0  0
 11 12  1  0  0  0
 11 14  2  0  0  0
 11 15  1  0  0  0
 12 17  1  0  0  0
 12 28  2  0  0  0
 13 28  1  0  0  0
 13 29  2  0  0  0
 13 56  1  0  0  0
 14 29  1  0  0  0
 14 31  1  0  0  0
 15 30  2  0  0  0
 15 41  1  0  0  0
 16 17  2  0  0  0
 16 18  1  0  0  0
 16 30  1  0  0  0
 17 26  1  0  0  0
 18 23  2  0  0  0
 19 20  1  0  0  0
 19 31  1  0  0  0
 19 42  1  0  0  0
 19 43  1  0  0  0
 20 22  1  0  0  0
 20 32  1  0  0  0
 20 44  1  0  0  0
 21 32  1  0  0  0
 21 45  1  0  0  0
 22 46  1  0  0  0
 22 47  1  0  0  0
 23 48  1  0  0  0
 24 25  3  0  0  0
 25 49  1  0  0  0
 32 50  1  0  0  0
 33 51  1  0  0  0
 52 54  1  0  0  0
 52 55  1  0  0  0
 52 60  1  0  0  0
 52 61  1  0  0  0
 53 57  1  0  0  0
 53 58  1  0  0  0
 53 59  1  0  0  0
 54 58  1  0  0  0
 54 62  1  0  0  0
 54 63  1  0  0  0
 55 57  1  0  0  0
 55 64  1  0  0  0
 55 65  1  0  0  0
 56 59  1  0  0  0
 56 66  1  0  0  0
 56 67  1  0  0  0
 57 68  1  0  0  0
 57 69  1  0  0  0
 58 70  1  0  0  0
 58 71  1  0  0  0
 59 72  1  0  0  0
 59 73  1  0  0  0
M  CHG  1  52   1
M  END
> <s_m_entry_id>
300

> <s_m_entry_name>
000000142.1

> <s_m_Source_Path>
/Users/zaksoul/Documents/3r_UNI/2nd_SEMESTER/BSC/FRAG_RECON/RESULTS/2

> <s_m_Source_File>
000000142.mol2

> <i_m_Source_File_Index>
1

$$$$
No_0_155
                    3D
 Schrodinger Suite 2022-4.
 73 79  0  0  1  0            999 V2000
   -5.4890    3.5950  -21.7100 C   0  0  0  0  0  0
   -5.7340    3.7930  -23.0480 C   0  0  0  0  0  0
   -4.2590    3.3200  -21.3540 C   0  0  0  0  0  0
   -3.3370    3.4410  -23.5070 C   0  0  0  0  0  0
   -3.2000    3.1890  -22.0850 C   0  0  0  0  0  0
   -4.6730    3.7280  -24.0450 C   0  0  0  0  0  0
   -3.8890    3.7470  -26.2320 C   0  0  0  0  0  0
    5.7560    2.8350  -20.8410 C   0  0  0  0  0  0
    5.6540    2.9900  -23.3920 C   0  0  0  0  0  0
   -4.9050    3.8650  -25.3830 C   0  0  0  0  0  0
    1.8790    3.5980  -23.4570 C   0  0  0  0  0  0
    1.0720    4.7190  -23.1640 C   0  0  0  0  0  0
    2.8800    5.8830  -22.4550 C   0  0  0  0  0  0
    3.2780    3.7650  -23.1240 C   0  0  0  0  0  0
    1.3240    2.4930  -24.1300 C   0  0  0  0  0  0
   -0.7910    3.3400  -24.0440 C   0  0  0  0  0  0
   -0.2530    4.5490  -23.4330 C   0  0  0  0  0  0
   -2.2390    3.3710  -24.4180 C   0  0  0  0  0  0
    3.8400    1.2570  -22.8350 C   0  0  0  0  0  0
    4.7520    0.8810  -21.6780 C   0  0  2  0  0  0
    6.3760    2.3990  -22.1860 C   0  0  2  0  0  0
    4.7350    1.8780  -20.5070 C   0  0  0  0  0  0
   -2.5430    3.5410  -25.8500 C   0  0  0  0  0  0
   -1.8700    2.7510  -21.4710 C   0  0  0  0  0  0
   -0.8520    2.3850  -20.9530 C   0  0  0  0  0  0
   -1.0830    5.6060  -23.0950 F   0  0  0  0  0  0
   -4.0710    3.0690  -19.9700 F   0  0  0  0  0  0
    1.5600    5.8680  -22.6210 N   0  0  0  0  0  0
    3.7640    4.9070  -22.6670 N   0  0  0  0  0  0
    0.0200    2.4260  -24.4530 N   0  0  0  0  0  0
    4.1820    2.7040  -23.2940 N   0  0  0  0  0  0
    6.1660    0.9280  -22.1410 N   0  0  1  0  0  0
   -4.0430    3.7700  -27.6240 O   0  0  0  0  0  0
   -6.2995    3.6673  -20.9939 H   0  0  0  0  0  0
   -6.7406    4.0058  -23.3892 H   0  0  0  0  0  0
    5.3025    3.8309  -20.9531 H   0  0  0  0  0  0
    6.5323    2.8289  -20.0617 H   0  0  0  0  0  0
    6.0539    2.5427  -24.3139 H   0  0  0  0  0  0
    5.8145    4.0779  -23.4182 H   0  0  0  0  0  0
   -5.9078    4.0678  -25.7413 H   0  0  0  0  0  0
    1.9533    1.6550  -24.4070 H   0  0  0  0  0  0
    2.7918    1.2156  -22.5041 H   0  0  0  0  0  0
    4.0014    0.5598  -23.6704 H   0  0  0  0  0  0
    4.5067   -0.1286  -21.3166 H   0  0  0  0  0  0
    7.4490    2.6390  -22.2183 H   0  0  0  0  0  0
    3.7589    2.3842  -20.4737 H   0  0  0  0  0  0
    5.0144    1.3556  -19.5802 H   0  0  0  0  0  0
   -1.7633    3.5129  -26.6026 H   0  0  0  0  0  0
    0.0440    2.0620  -20.4970 H   0  0  0  0  0  0
    6.7962    0.4166  -21.4284 H   0  0  0  0  0  0
   -3.1941    3.6701  -28.0386 H   0  0  0  0  0  0
    7.3270   10.8470  -21.6320 N   0  3  0  0  0  0
    5.3500    8.8930  -22.3930 N   0  0  0  0  0  0
    6.0570   10.7650  -20.8970 C   0  0  0  0  0  0
    7.0930   10.5670  -23.0550 C   0  0  0  0  0  0
    3.4540    7.2110  -21.9730 C   0  0  0  0  0  0
    6.5930    9.1200  -23.2140 C   0  0  0  0  0  0
    5.5090    9.3270  -20.9570 C   0  0  0  0  0  0
    4.8660    7.4760  -22.5390 C   0  0  0  0  0  0
    7.9756   10.1714  -21.2592 H   0  0  0  0  0  0
    7.7141   11.7722  -21.5310 H   0  0  0  0  0  0
    5.3276   11.4544  -21.3472 H   0  0  0  0  0  0
    6.2221   11.0501  -19.8475 H   0  0  0  0  0  0
    8.0327   10.6930  -23.6128 H   0  0  0  0  0  0
    6.3349   11.2621  -23.4450 H   0  0  0  0  0  0
    2.7817    8.0294  -22.2701 H   0  0  0  0  0  0
    3.4940    7.2150  -20.8737 H   0  0  0  0  0  0
    6.3731    8.9231  -24.2736 H   0  0  0  0  0  0
    7.3793    8.4228  -22.8889 H   0  0  0  0  0  0
    6.2050    8.6470  -20.4440 H   0  0  0  0  0  0
    4.5325    9.2860  -20.4523 H   0  0  0  0  0  0
    5.5841    6.7949  -22.0589 H   0  0  0  0  0  0
    4.8930    7.1900  -23.6008 H   0  0  0  0  0  0
  1  2  2  0  0  0
  1  3  1  0  0  0
  1 34  1  0  0  0
  2  6  1  0  0  0
  2 35  1  0  0  0
  3  5  2  0  0  0
  3 27  1  0  0  0
  4  5  1  0  0  0
  4  6  2  0  0  0
  4 18  1  0  0  0
  5 24  1  0  0  0
  6 10  1  0  0  0
  7 10  2  0  0  0
  7 23  1  0  0  0
  7 33  1  0  0  0
  8 21  1  0  0  0
  8 22  1  0  0  0
  8 36  1  0  0  0
  8 37  1  0  0  0
  9 21  1  0  0  0
  9 31  1  0  0  0
  9 38  1  0  0  0
  9 39  1  0  0  0
 10 40  1  0  0  0
 11 12  1  0  0  0
 11 14  2  0  0  0
 11 15  1  0  0  0
 12 17  1  0  0  0
 12 28  2  0  0  0
 13 28  1  0  0  0
 13 29  2  0  0  0
 13 56  1  0  0  0
 14 29  1  0  0  0
 14 31  1  0  0  0
 15 30  2  0  0  0
 15 41  1  0  0  0
 16 17  2  0  0  0
 16 18  1  0  0  0
 16 30  1  0  0  0
 17 26  1  0  0  0
 18 23  2  0  0  0
 19 20  1  0  0  0
 19 31  1  0  0  0
 19 42  1  0  0  0
 19 43  1  0  0  0
 20 22  1  0  0  0
 20 32  1  0  0  0
 20 44  1  0  0  0
 21 32  1  0  0  0
 21 45  1  0  0  0
 22 46  1  0  0  0
 22 47  1  0  0  0
 23 48  1  0  0  0
 24 25  3  0  0  0
 25 49  1  0  0  0
 32 50  1  0  0  0
 33 51  1  0  0  0
 52 54  1  0  0  0
 52 55  1  0  0  0
 52 60  1  0  0  0
 52 61  1  0  0  0
 53 57  1  0  0  0
 53 58  1  0  0  0
 53 59  1  0  0  0
 54 58  1  0  0  0
 54 62  1  0  0  0
 54 63  1  0  0  0
 55 57  1  0  0  0
 55 64  1  0  0  0
 55 65  1  0  0  0
 56 59  1  0  0  0
 56 66  1  0  0  0
 56 67  1  0  0  0
 57 68  1  0  0  0
 57 69  1  0  0  0
 58 70  1  0  0  0
 58 71  1  0  0  0
 59 72  1  0  0  0
 59 73  1  0  0  0
M  CHG  1  52   1
M  END
> <s_m_entry_id>
301

> <s_m_entry_name>
000000143.1

> <s_m_Source_Path>
/Users/zaksoul/Documents/3r_UNI/2nd_SEMESTER/BSC/FRAG_RECON/RESULTS/2

> <s_m_Source_File>
000000143.mol2

> <i_m_Source_File_Index>
1

$$$$
No_0_156
                    3D
 Schrodinger Suite 2022-4.
 74 80  0  0  1  0            999 V2000
   -5.2770    3.3070  -21.9880 C   0  0  0  0  0  0
   -5.5660    3.4610  -23.3230 C   0  0  0  0  0  0
   -4.0310    3.0740  -21.6610 C   0  0  0  0  0  0
   -3.1750    3.1580  -23.8430 C   0  0  0  0  0  0
   -2.9890    2.9490  -22.4200 C   0  0  0  0  0  0
   -4.5330    3.3950  -24.3490 C   0  0  0  0  0  0
   -3.8130    3.3730  -26.5590 C   0  0  0  0  0  0
    6.0050    2.8590  -21.4330 C   0  0  0  0  0  0
    5.8250    2.9400  -23.9830 C   0  0  0  0  0  0
   -4.8070    3.4890  -25.6820 C   0  0  0  0  0  0
    2.0350    3.4500  -23.9520 C   0  0  0  0  0  0
    1.2070    4.5570  -23.6660 C   0  0  0  0  0  0
    3.0030    5.7860  -23.0430 C   0  0  0  0  0  0
    3.4380    3.6620  -23.6660 C   0  0  0  0  0  0
    1.4900    2.3120  -24.5790 C   0  0  0  0  0  0
   -0.6440    3.1070  -24.4530 C   0  0  0  0  0  0
   -0.1200    4.3460  -23.8910 C   0  0  0  0  0  0
   -2.1020    3.0900  -24.7840 C   0  0  0  0  0  0
    4.0740    1.1780  -23.3260 C   0  0  0  0  0  0
    5.0290    0.8580  -22.1860 C   0  0  2  0  0  0
    6.5970    2.4020  -22.7840 C   0  0  2  0  0  0
    5.0190    1.8860  -21.0430 C   0  0  0  0  0  0
   -2.4520    3.2130  -26.2100 C   0  0  0  0  0  0
   -1.6320    2.5630  -21.8340 C   0  0  0  0  0  0
   -0.5900    2.2370  -21.3360 C   0  0  0  0  0  0
   -0.9670    5.3900  -23.5570 F   0  0  0  0  0  0
   -3.7960    2.8660  -20.2770 F   0  0  0  0  0  0
    1.6810    5.7330  -23.1690 N   0  0  0  0  0  0
    3.9060    4.8280  -23.2550 N   0  0  0  0  0  0
    0.1800    2.2030  -24.8610 N   0  0  0  0  0  0
    4.3640    2.6190  -23.8330 N   0  0  0  0  0  0
    6.4270    0.9280  -22.6930 N   0  0  1  0  0  0
   -4.0080    3.3540  -27.9450 O   0  0  0  0  0  0
   -6.0680    3.3783  -21.2502 H   0  0  0  0  0  0
   -6.5872    3.6387  -23.6403 H   0  0  0  0  0  0
    5.5223    3.8395  -21.5582 H   0  0  0  0  0  0
    6.8033    2.8953  -20.6771 H   0  0  0  0  0  0
    6.2099    2.4784  -24.9043 H   0  0  0  0  0  0
    5.9561    4.0305  -24.0435 H   0  0  0  0  0  0
   -5.8242    3.6557  -26.0174 H   0  0  0  0  0  0
    2.1330    1.4832  -24.8523 H   0  0  0  0  0  0
    3.0374    1.1195  -22.9626 H   0  0  0  0  0  0
    4.2305    0.4624  -24.1466 H   0  0  0  0  0  0
    4.8210   -0.1475  -21.7913 H   0  0  0  0  0  0
    7.6620    2.6685  -22.8537 H   0  0  0  0  0  0
    4.0315    2.3682  -20.9946 H   0  0  0  0  0  0
    5.3389    1.3976  -20.1107 H   0  0  0  0  0  0
   -1.6944    3.1829  -26.9847 H   0  0  0  0  0  0
    0.3279    1.9510  -20.8991 H   0  0  0  0  0  0
    7.0907    0.4534  -21.9854 H   0  0  0  0  0  0
   -3.1694    3.2640  -28.3821 H   0  0  0  0  0  0
    5.2640    8.3470  -21.1680 N   0  3  1  0  0  0
    6.3110    8.2720  -20.0990 C   0  0  0  0  0  0
    6.1610    8.9360  -22.2150 C   0  0  0  0  0  0
    4.6250    7.0280  -21.5090 C   0  0  0  0  0  0
    8.4820    8.0940  -21.4480 C   0  0  0  0  0  0
    7.2510    8.9580  -21.1160 C   0  0  2  0  0  0
    3.5560    7.1410  -22.6140 C   0  0  0  0  0  0
    9.3600    8.7950  -22.4980 C   0  0  0  0  0  0
    4.5557    9.0153  -20.9079 H   0  0  0  0  0  0
    6.6250    7.2200  -20.0300 H   0  0  0  0  0  0
    6.0511    9.0258  -19.3412 H   0  0  0  0  0  0
    5.8370    9.9761  -22.3670 H   0  0  0  0  0  0
    6.4210    8.1231  -22.9089 H   0  0  0  0  0  0
    4.1702    6.5982  -20.6044 H   0  0  0  0  0  0
    5.4016    6.3154  -21.8238 H   0  0  0  0  0  0
    8.1512    7.1205  -21.8388 H   0  0  0  0  0  0
    9.0694    7.9249  -20.5334 H   0  0  0  0  0  0
    7.5240    9.9802  -20.8150 H   0  0  0  0  0  0
    3.9867    7.6526  -23.4874 H   0  0  0  0  0  0
    2.7313    7.7777  -22.2611 H   0  0  0  0  0  0
   10.2341    8.1669  -22.7250 H   0  0  0  0  0  0
    8.7759    8.9560  -23.4161 H   0  0  0  0  0  0
    9.6979    9.7648  -22.1041 H   0  0  0  0  0  0
  1  2  2  0  0  0
  1  3  1  0  0  0
  1 34  1  0  0  0
  2  6  1  0  0  0
  2 35  1  0  0  0
  3  5  2  0  0  0
  3 27  1  0  0  0
  4  5  1  0  0  0
  4  6  2  0  0  0
  4 18  1  0  0  0
  5 24  1  0  0  0
  6 10  1  0  0  0
  7 10  2  0  0  0
  7 23  1  0  0  0
  7 33  1  0  0  0
  8 21  1  0  0  0
  8 22  1  0  0  0
  8 36  1  0  0  0
  8 37  1  0  0  0
  9 21  1  0  0  0
  9 31  1  0  0  0
  9 38  1  0  0  0
  9 39  1  0  0  0
 10 40  1  0  0  0
 11 12  1  0  0  0
 11 14  2  0  0  0
 11 15  1  0  0  0
 12 17  1  0  0  0
 12 28  2  0  0  0
 13 28  1  0  0  0
 13 29  2  0  0  0
 13 58  1  0  0  0
 14 29  1  0  0  0
 14 31  1  0  0  0
 15 30  2  0  0  0
 15 41  1  0  0  0
 16 17  2  0  0  0
 16 18  1  0  0  0
 16 30  1  0  0  0
 17 26  1  0  0  0
 18 23  2  0  0  0
 19 20  1  0  0  0
 19 31  1  0  0  0
 19 42  1  0  0  0
 19 43  1  0  0  0
 20 22  1  0  0  0
 20 32  1  0  0  0
 20 44  1  0  0  0
 21 32  1  0  0  0
 21 45  1  0  0  0
 22 46  1  0  0  0
 22 47  1  0  0  0
 23 48  1  0  0  0
 24 25  3  0  0  0
 25 49  1  0  0  0
 32 50  1  0  0  0
 33 51  1  0  0  0
 52 53  1  0  0  0
 52 54  1  0  0  0
 52 55  1  0  0  0
 52 60  1  0  0  0
 53 57  1  0  0  0
 53 61  1  0  0  0
 53 62  1  0  0  0
 54 57  1  0  0  0
 54 63  1  0  0  0
 54 64  1  0  0  0
 55 58  1  0  0  0
 55 65  1  0  0  0
 55 66  1  0  0  0
 56 57  1  0  0  0
 56 59  1  0  0  0
 56 67  1  0  0  0
 56 68  1  0  0  0
 57 69  1  0  0  0
 58 70  1  0  0  0
 58 71  1  0  0  0
 59 72  1  0  0  0
 59 73  1  0  0  0
 59 74  1  0  0  0
M  CHG  1  52   1
M  END
> <s_m_entry_id>
302

> <s_m_entry_name>
000000144.1

> <s_m_Source_Path>
/Users/zaksoul/Documents/3r_UNI/2nd_SEMESTER/BSC/FRAG_RECON/RESULTS/2

> <s_m_Source_File>
000000144.mol2

> <i_m_Source_File_Index>
1

$$$$
No_0_157
                    3D
 Schrodinger Suite 2022-4.
 71 77  0  0  1  0            999 V2000
   -4.9960    3.7640  -21.9140 C   0  0  0  0  0  0
   -5.2980    3.9360  -23.2440 C   0  0  0  0  0  0
   -3.7550    3.4870  -21.6050 C   0  0  0  0  0  0
   -2.9260    3.5570  -23.7980 C   0  0  0  0  0  0
   -2.7280    3.3320  -22.3790 C   0  0  0  0  0  0
   -4.2820    3.8420  -24.2840 C   0  0  0  0  0  0
   -3.5930    3.8090  -26.5030 C   0  0  0  0  0  0
    6.2700    2.9360  -21.5160 C   0  0  0  0  0  0
    6.0590    3.0390  -24.0620 C   0  0  0  0  0  0
   -4.5700    3.9530  -25.6130 C   0  0  0  0  0  0
    2.2890    3.6750  -23.9770 C   0  0  0  0  0  0
    1.5030    4.8070  -23.6730 C   0  0  0  0  0  0
    3.3470    5.9710  -23.0670 C   0  0  0  0  0  0
    3.7020    3.8380  -23.7090 C   0  0  0  0  0  0
    1.6970    2.5600  -24.6020 C   0  0  0  0  0  0
   -0.4070    3.4240  -24.4430 C   0  0  0  0  0  0
    0.1660    4.6420  -23.8810 C   0  0  0  0  0  0
   -1.8690    3.4580  -24.7540 C   0  0  0  0  0  0
    4.2590    1.3320  -23.3910 C   0  0  0  0  0  0
    5.2180    0.9730  -22.2670 C   0  0  2  0  0  0
    6.8290    2.4670  -22.8770 C   0  0  2  0  0  0
    5.2580    1.9940  -21.1170 C   0  0  0  0  0  0
   -2.2330    3.6020  -26.1740 C   0  0  0  0  0  0
   -1.3770    2.8980  -21.8130 C   0  0  0  0  0  0
   -0.3390    2.5340  -21.3320 C   0  0  0  0  0  0
   -0.6410    5.7120  -23.5300 F   0  0  0  0  0  0
   -3.5080    3.2630  -20.2260 F   0  0  0  0  0  0
    2.0220    5.9630  -23.1760 N   0  0  0  0  0  0
    4.2140    4.9850  -23.2970 N   0  0  0  0  0  0
    0.3810    2.4960  -24.8670 N   0  0  0  0  0  0
    4.5900    2.7660  -23.8950 N   0  0  0  0  0  0
    6.6100    0.9990  -22.7920 N   0  0  1  0  0  0
   -3.8070    3.8050  -27.8870 O   0  0  0  0  0  0
   -5.7746    3.8573  -21.1655 H   0  0  0  0  0  0
   -6.3171    4.1499  -23.5452 H   0  0  0  0  0  0
    5.8190    3.9329  -21.6290 H   0  0  0  0  0  0
    7.0789    2.9410  -20.7706 H   0  0  0  0  0  0
    6.4151    2.5699  -24.9911 H   0  0  0  0  0  0
    6.2255    4.1249  -24.1185 H   0  0  0  0  0  0
   -5.5859    4.1558  -25.9322 H   0  0  0  0  0  0
    2.3083    1.7118  -24.8881 H   0  0  0  0  0  0
    3.2257    1.3058  -23.0146 H   0  0  0  0  0  0
    4.3790    0.6168  -24.2181 H   0  0  0  0  0  0
    4.9819   -0.0271  -21.8744 H   0  0  0  0  0  0
    7.9012    2.6982  -22.9598 H   0  0  0  0  0  0
    4.2878    2.5084  -21.0535 H   0  0  0  0  0  0
    5.5740    1.4892  -20.1922 H   0  0  0  0  0  0
   -1.4877    3.5508  -26.9594 H   0  0  0  0  0  0
    0.5744    2.2149  -20.9088 H   0  0  0  0  0  0
    7.2673    0.4988  -22.0962 H   0  0  0  0  0  0
   -2.9778    3.6902  -28.3362 H   0  0  0  0  0  0
    9.5870    8.9190  -22.5710 F   0  0  0  0  0  0
    5.7000    8.4590  -21.2020 N   0  3  2  0  0  0
    7.6770    9.0890  -21.1490 C   0  0  1  0  0  0
    3.9510    7.3050  -22.6390 C   0  0  0  0  0  0
    6.5930    9.0520  -22.2510 C   0  0  0  0  0  0
    6.7570    8.3580  -20.1440 C   0  0  0  0  0  0
    5.0310    7.1570  -21.5490 C   0  0  0  0  0  0
    8.9320    8.2820  -21.5230 C   0  0  0  0  0  0
    5.0052    9.1348  -20.9251 H   0  0  0  0  0  0
    7.9169   10.1137  -20.8291 H   0  0  0  0  0  0
    4.3841    7.8081  -23.5161 H   0  0  0  0  0  0
    3.1517    7.9672  -22.2749 H   0  0  0  0  0  0
    6.2592   10.0885  -22.4069 H   0  0  0  0  0  0
    6.8631    8.2376  -22.9393 H   0  0  0  0  0  0
    7.0831    7.3078  -20.1170 H   0  0  0  0  0  0
    6.4958    9.0845  -19.3604 H   0  0  0  0  0  0
    4.5788    6.7258  -20.6437 H   0  0  0  0  0  0
    5.7901    6.4339  -21.8820 H   0  0  0  0  0  0
    9.6022    8.2230  -20.6527 H   0  0  0  0  0  0
    8.6360    7.2701  -21.8370 H   0  0  0  0  0  0
  1  2  2  0  0  0
  1  3  1  0  0  0
  1 34  1  0  0  0
  2  6  1  0  0  0
  2 35  1  0  0  0
  3  5  2  0  0  0
  3 27  1  0  0  0
  4  5  1  0  0  0
  4  6  2  0  0  0
  4 18  1  0  0  0
  5 24  1  0  0  0
  6 10  1  0  0  0
  7 10  2  0  0  0
  7 23  1  0  0  0
  7 33  1  0  0  0
  8 21  1  0  0  0
  8 22  1  0  0  0
  8 36  1  0  0  0
  8 37  1  0  0  0
  9 21  1  0  0  0
  9 31  1  0  0  0
  9 38  1  0  0  0
  9 39  1  0  0  0
 10 40  1  0  0  0
 11 12  1  0  0  0
 11 14  2  0  0  0
 11 15  1  0  0  0
 12 17  1  0  0  0
 12 28  2  0  0  0
 13 28  1  0  0  0
 13 29  2  0  0  0
 13 55  1  0  0  0
 14 29  1  0  0  0
 14 31  1  0  0  0
 15 30  2  0  0  0
 15 41  1  0  0  0
 16 17  2  0  0  0
 16 18  1  0  0  0
 16 30  1  0  0  0
 17 26  1  0  0  0
 18 23  2  0  0  0
 19 20  1  0  0  0
 19 31  1  0  0  0
 19 42  1  0  0  0
 19 43  1  0  0  0
 20 22  1  0  0  0
 20 32  1  0  0  0
 20 44  1  0  0  0
 21 32  1  0  0  0
 21 45  1  0  0  0
 22 46  1  0  0  0
 22 47  1  0  0  0
 23 48  1  0  0  0
 24 25  3  0  0  0
 25 49  1  0  0  0
 32 50  1  0  0  0
 33 51  1  0  0  0
 52 59  1  0  0  0
 53 56  1  0  0  0
 53 57  1  0  0  0
 53 58  1  0  0  0
 53 60  1  0  0  0
 54 56  1  0  0  0
 54 57  1  0  0  0
 54 59  1  0  0  0
 54 61  1  0  0  0
 55 58  1  0  0  0
 55 62  1  0  0  0
 55 63  1  0  0  0
 56 64  1  0  0  0
 56 65  1  0  0  0
 57 66  1  0  0  0
 57 67  1  0  0  0
 58 68  1  0  0  0
 58 69  1  0  0  0
 59 70  1  0  0  0
 59 71  1  0  0  0
M  CHG  1  53   1
M  END
> <s_m_entry_id>
303

> <s_m_entry_name>
000000145.1

> <s_m_Source_Path>
/Users/zaksoul/Documents/3r_UNI/2nd_SEMESTER/BSC/FRAG_RECON/RESULTS/2

> <s_m_Source_File>
000000145.mol2

> <i_m_Source_File_Index>
1

$$$$
No_0_158
                    3D
 Schrodinger Suite 2022-4.
 71 77  0  0  1  0            999 V2000
   -5.3230    3.5360  -22.0140 C   0  0  0  0  0  0
   -5.5870    3.7180  -23.3510 C   0  0  0  0  0  0
   -4.0860    3.2830  -21.6700 C   0  0  0  0  0  0
   -3.1910    3.3950  -23.8350 C   0  0  0  0  0  0
   -3.0330    3.1590  -22.4120 C   0  0  0  0  0  0
   -4.5370    3.6570  -24.3590 C   0  0  0  0  0  0
   -3.7780    3.6650  -26.5560 C   0  0  0  0  0  0
    5.9410    2.9440  -21.2700 C   0  0  0  0  0  0
    5.8070    3.0720  -23.8200 C   0  0  0  0  0  0
   -4.7860    3.7780  -25.6960 C   0  0  0  0  0  0
    2.0230    3.6260  -23.8470 C   0  0  0  0  0  0
    1.2030    4.7380  -23.5560 C   0  0  0  0  0  0
    3.0030    5.9350  -22.8800 C   0  0  0  0  0  0
    3.4230    3.8170  -23.5330 C   0  0  0  0  0  0
    1.4760    2.5070  -24.5030 C   0  0  0  0  0  0
   -0.6500    3.3240  -24.4010 C   0  0  0  0  0  0
   -0.1220    4.5470  -23.8080 C   0  0  0  0  0  0
   -2.1030    3.3310  -24.7580 C   0  0  0  0  0  0
    4.0240    1.3190  -23.2260 C   0  0  0  0  0  0
    4.9550    0.9680  -22.0760 C   0  0  2  0  0  0
    6.5510    2.5030  -22.6180 C   0  0  2  0  0  0
    4.9370    1.9760  -20.9140 C   0  0  0  0  0  0
   -2.4250    3.4830  -26.1870 C   0  0  0  0  0  0
   -1.6910    2.7460  -21.8090 C   0  0  0  0  0  0
   -0.6610    2.4000  -21.3000 C   0  0  0  0  0  0
   -0.9630    5.5960  -23.4710 F   0  0  0  0  0  0
   -3.8790    3.0480  -20.2860 F   0  0  0  0  0  0
    1.6820    5.8990  -23.0300 N   0  0  0  0  0  0
    3.8980    4.9690  -23.0930 N   0  0  0  0  0  0
    0.1700    2.4180  -24.8100 N   0  0  0  0  0  0
    4.3400    2.7660  -23.7020 N   0  0  0  0  0  0
    6.3620    1.0300  -22.5560 N   0  0  1  0  0  0
   -3.9490    3.6730  -27.9470 O   0  0  0  0  0  0
   -6.1261    3.6053  -21.2892 H   0  0  0  0  0  0
   -6.6006    3.9127  -23.6822 H   0  0  0  0  0  0
    5.4717    3.9321  -21.3861 H   0  0  0  0  0  0
    6.7253    2.9571  -20.4988 H   0  0  0  0  0  0
    6.2017    2.6217  -24.7427 H   0  0  0  0  0  0
    5.9513    4.1618  -23.8594 H   0  0  0  0  0  0
   -5.7955    3.9626  -26.0452 H   0  0  0  0  0  0
    2.1134    1.6748  -24.7791 H   0  0  0  0  0  0
    2.9805    1.2665  -22.8819 H   0  0  0  0  0  0
    4.1865    0.6165  -24.0567 H   0  0  0  0  0  0
    4.7280   -0.0411  -21.7016 H   0  0  0  0  0  0
    7.6200    2.7581  -22.6644 H   0  0  0  0  0  0
    3.9546    2.4692  -20.8747 H   0  0  0  0  0  0
    5.2348    1.4672  -19.9853 H   0  0  0  0  0  0
   -1.6542    3.4579  -26.9488 H   0  0  0  0  0  0
    0.2449    2.0950  -20.8511 H   0  0  0  0  0  0
    7.0079    0.5349  -21.8460 H   0  0  0  0  0  0
   -3.1035    3.5810  -28.3703 H   0  0  0  0  0  0
    5.5710    8.4150  -21.2850 N   0  3  0  0  0  0
    4.8730    9.3310  -20.3560 C   0  0  0  0  0  0
    6.1750    8.5230  -19.9380 C   0  0  0  0  0  0
    3.5640    7.2750  -22.4180 C   0  0  0  0  0  0
    6.3750    9.0570  -22.3910 C   0  0  0  0  0  0
    4.8520    7.1190  -21.5790 C   0  0  0  0  0  0
    7.6510    8.2640  -22.7330 C   0  0  0  0  0  0
    4.1217    8.6237  -19.9748 H   0  0  0  0  0  0
    5.3628   10.2666  -20.6639 H   0  0  0  0  0  0
    6.9194    9.3004  -20.1648 H   0  0  0  0  0  0
    5.6787    7.6575  -19.4747 H   0  0  0  0  0  0
    3.7720    7.9059  -23.2948 H   0  0  0  0  0  0
    2.8035    7.8046  -21.8254 H   0  0  0  0  0  0
    6.6481   10.0812  -22.0969 H   0  0  0  0  0  0
    5.7496    9.1489  -23.2912 H   0  0  0  0  0  0
    4.6109    6.6128  -20.6326 H   0  0  0  0  0  0
    5.5390    6.4300  -22.0920 H   0  0  0  0  0  0
    8.1958    8.7748  -23.5407 H   0  0  0  0  0  0
    8.2936    8.2000  -21.8425 H   0  0  0  0  0  0
    7.3780    7.2499  -23.0600 H   0  0  0  0  0  0
  1  2  2  0  0  0
  1  3  1  0  0  0
  1 34  1  0  0  0
  2  6  1  0  0  0
  2 35  1  0  0  0
  3  5  2  0  0  0
  3 27  1  0  0  0
  4  5  1  0  0  0
  4  6  2  0  0  0
  4 18  1  0  0  0
  5 24  1  0  0  0
  6 10  1  0  0  0
  7 10  2  0  0  0
  7 23  1  0  0  0
  7 33  1  0  0  0
  8 21  1  0  0  0
  8 22  1  0  0  0
  8 36  1  0  0  0
  8 37  1  0  0  0
  9 21  1  0  0  0
  9 31  1  0  0  0
  9 38  1  0  0  0
  9 39  1  0  0  0
 10 40  1  0  0  0
 11 12  1  0  0  0
 11 14  2  0  0  0
 11 15  1  0  0  0
 12 17  1  0  0  0
 12 28  2  0  0  0
 13 28  1  0  0  0
 13 29  2  0  0  0
 13 55  1  0  0  0
 14 29  1  0  0  0
 14 31  1  0  0  0
 15 30  2  0  0  0
 15 41  1  0  0  0
 16 17  2  0  0  0
 16 18  1  0  0  0
 16 30  1  0  0  0
 17 26  1  0  0  0
 18 23  2  0  0  0
 19 20  1  0  0  0
 19 31  1  0  0  0
 19 42  1  0  0  0
 19 43  1  0  0  0
 20 22  1  0  0  0
 20 32  1  0  0  0
 20 44  1  0  0  0
 21 32  1  0  0  0
 21 45  1  0  0  0
 22 46  1  0  0  0
 22 47  1  0  0  0
 23 48  1  0  0  0
 24 25  3  0  0  0
 25 49  1  0  0  0
 32 50  1  0  0  0
 33 51  1  0  0  0
 52 53  1  0  0  0
 52 54  1  0  0  0
 52 56  1  0  0  0
 52 57  1  0  0  0
 53 54  1  0  0  0
 53 59  1  0  0  0
 53 60  1  0  0  0
 54 61  1  0  0  0
 54 62  1  0  0  0
 55 57  1  0  0  0
 55 63  1  0  0  0
 55 64  1  0  0  0
 56 58  1  0  0  0
 56 65  1  0  0  0
 56 66  1  0  0  0
 57 67  1  0  0  0
 57 68  1  0  0  0
 58 69  1  0  0  0
 58 70  1  0  0  0
 58 71  1  0  0  0
M  CHG  1  52   1
M  END
> <s_m_entry_id>
304

> <s_m_entry_name>
000000146.1

> <s_m_Source_Path>
/Users/zaksoul/Documents/3r_UNI/2nd_SEMESTER/BSC/FRAG_RECON/RESULTS/2

> <s_m_Source_File>
000000146.mol2

> <i_m_Source_File_Index>
1

$$$$
No_0_159
                    3D
 Schrodinger Suite 2022-4.
 71 77  0  0  1  0            999 V2000
   -5.1810    3.6090  -21.8530 C   0  0  0  0  0  0
   -5.4520    3.8050  -23.1860 C   0  0  0  0  0  0
   -3.9420    3.3510  -21.5190 C   0  0  0  0  0  0
   -3.0590    3.4860  -23.6870 C   0  0  0  0  0  0
   -2.8930    3.2340  -22.2690 C   0  0  0  0  0  0
   -4.4090    3.7540  -24.2010 C   0  0  0  0  0  0
   -3.6630    3.7850  -26.4030 C   0  0  0  0  0  0
    6.0870    3.0010  -21.1820 C   0  0  0  0  0  0
    5.9380    3.1560  -23.7310 C   0  0  0  0  0  0
   -4.6650    3.8890  -25.5350 C   0  0  0  0  0  0
    2.1540    3.7130  -23.7290 C   0  0  0  0  0  0
    1.3370    4.8230  -23.4210 C   0  0  0  0  0  0
    3.1410    6.0110  -22.7430 C   0  0  0  0  0  0
    3.5570    3.8990  -23.4210 C   0  0  0  0  0  0
    1.6030    2.6010  -24.3930 C   0  0  0  0  0  0
   -0.5220    3.4190  -24.2700 C   0  0  0  0  0  0
    0.0100    4.6350  -23.6670 C   0  0  0  0  0  0
   -1.9770    3.4300  -24.6180 C   0  0  0  0  0  0
    4.1570    1.3990  -23.1440 C   0  0  0  0  0  0
    5.0950    1.0350  -22.0030 C   0  0  2  0  0  0
    6.6890    2.5740  -22.5390 C   0  0  2  0  0  0
    5.0840    2.0310  -20.8310 C   0  0  0  0  0  0
   -2.3080    3.5970  -26.0440 C   0  0  0  0  0  0
   -1.5470    2.8150  -21.6780 C   0  0  0  0  0  0
   -0.5150    2.4620  -21.1780 C   0  0  0  0  0  0
   -0.8280    5.6800  -23.3140 F   0  0  0  0  0  0
   -3.7260    3.1020  -20.1390 F   0  0  0  0  0  0
    1.8200    5.9780  -22.8860 N   0  0  0  0  0  0
    4.0350    5.0470  -22.9720 N   0  0  0  0  0  0
    0.2950    2.5160  -24.6930 N   0  0  0  0  0  0
    4.4710    2.8500  -23.6070 N   0  0  0  0  0  0
    6.5000    1.1010  -22.4910 N   0  0  1  0  0  0
   -3.8410    3.8060  -27.7920 O   0  0  0  0  0  0
   -5.9796    3.6712  -21.1226 H   0  0  0  0  0  0
   -6.4675    4.0037  -23.5091 H   0  0  0  0  0  0
    5.6179    3.9906  -21.2849 H   0  0  0  0  0  0
    6.8763    3.0060  -20.4159 H   0  0  0  0  0  0
    6.3275    2.7150  -24.6604 H   0  0  0  0  0  0
    6.0833    4.2460  -23.7593 H   0  0  0  0  0  0
   -5.6765    4.0776  -25.8762 H   0  0  0  0  0  0
    2.2385    1.7718  -24.6821 H   0  0  0  0  0  0
    3.1157    1.3435  -22.7939 H   0  0  0  0  0  0
    4.3144    0.7047  -23.9826 H   0  0  0  0  0  0
    4.8700    0.0218  -21.6387 H   0  0  0  0  0  0
    7.7578    2.8293  -22.5885 H   0  0  0  0  0  0
    4.1018    2.5236  -20.7805 H   0  0  0  0  0  0
    5.3877    1.5123  -19.9097 H   0  0  0  0  0  0
   -1.5411    3.5789  -26.8099 H   0  0  0  0  0  0
    0.3934    2.1519  -20.7378 H   0  0  0  0  0  0
    7.1492    0.5983  -21.7894 H   0  0  0  0  0  0
   -2.9984    3.7179  -28.2217 H   0  0  0  0  0  0
    5.8450    8.5490  -21.5040 N   0  3  0  0  0  0
    5.3290    9.3040  -20.3410 C   0  0  0  0  0  0
    6.7430    8.5820  -20.3270 C   0  0  0  0  0  0
    3.7060    7.3460  -22.2710 C   0  0  0  0  0  0
    6.3200    9.3650  -22.6830 C   0  0  0  0  0  0
    5.1640    7.2280  -21.7730 C   0  0  0  0  0  0
    7.5290    8.7290  -23.3970 C   0  0  0  0  0  0
    4.7379    8.4979  -19.8819 H   0  0  0  0  0  0
    5.6689   10.3057  -20.6429 H   0  0  0  0  0  0
    7.3599    9.4419  -20.6270 H   0  0  0  0  0  0
    6.4290    7.6339  -19.8660 H   0  0  0  0  0  0
    3.6590    8.0747  -23.0937 H   0  0  0  0  0  0
    3.0751    7.7450  -21.4631 H   0  0  0  0  0  0
    6.5870   10.3769  -22.3440 H   0  0  0  0  0  0
    5.4943    9.4859  -23.3997 H   0  0  0  0  0  0
    5.1890    6.6132  -20.8612 H   0  0  0  0  0  0
    5.7540    6.6570  -22.5050 H   0  0  0  0  0  0
    7.8313    9.3626  -24.2438 H   0  0  0  0  0  0
    8.3665    8.6380  -22.6896 H   0  0  0  0  0  0
    7.2522    7.7307  -23.7668 H   0  0  0  0  0  0
  1  2  2  0  0  0
  1  3  1  0  0  0
  1 34  1  0  0  0
  2  6  1  0  0  0
  2 35  1  0  0  0
  3  5  2  0  0  0
  3 27  1  0  0  0
  4  5  1  0  0  0
  4  6  2  0  0  0
  4 18  1  0  0  0
  5 24  1  0  0  0
  6 10  1  0  0  0
  7 10  2  0  0  0
  7 23  1  0  0  0
  7 33  1  0  0  0
  8 21  1  0  0  0
  8 22  1  0  0  0
  8 36  1  0  0  0
  8 37  1  0  0  0
  9 21  1  0  0  0
  9 31  1  0  0  0
  9 38  1  0  0  0
  9 39  1  0  0  0
 10 40  1  0  0  0
 11 12  1  0  0  0
 11 14  2  0  0  0
 11 15  1  0  0  0
 12 17  1  0  0  0
 12 28  2  0  0  0
 13 28  1  0  0  0
 13 29  2  0  0  0
 13 55  1  0  0  0
 14 29  1  0  0  0
 14 31  1  0  0  0
 15 30  2  0  0  0
 15 41  1  0  0  0
 16 17  2  0  0  0
 16 18  1  0  0  0
 16 30  1  0  0  0
 17 26  1  0  0  0
 18 23  2  0  0  0
 19 20  1  0  0  0
 19 31  1  0  0  0
 19 42  1  0  0  0
 19 43  1  0  0  0
 20 22  1  0  0  0
 20 32  1  0  0  0
 20 44  1  0  0  0
 21 32  1  0  0  0
 21 45  1  0  0  0
 22 46  1  0  0  0
 22 47  1  0  0  0
 23 48  1  0  0  0
 24 25  3  0  0  0
 25 49  1  0  0  0
 32 50  1  0  0  0
 33 51  1  0  0  0
 52 53  1  0  0  0
 52 54  1  0  0  0
 52 56  1  0  0  0
 52 57  1  0  0  0
 53 54  1  0  0  0
 53 59  1  0  0  0
 53 60  1  0  0  0
 54 61  1  0  0  0
 54 62  1  0  0  0
 55 57  1  0  0  0
 55 63  1  0  0  0
 55 64  1  0  0  0
 56 58  1  0  0  0
 56 65  1  0  0  0
 56 66  1  0  0  0
 57 67  1  0  0  0
 57 68  1  0  0  0
 58 69  1  0  0  0
 58 70  1  0  0  0
 58 71  1  0  0  0
M  CHG  1  52   1
M  END
> <s_m_entry_id>
305

> <s_m_entry_name>
000000147.1

> <s_m_Source_Path>
/Users/zaksoul/Documents/3r_UNI/2nd_SEMESTER/BSC/FRAG_RECON/RESULTS/2

> <s_m_Source_File>
000000147.mol2

> <i_m_Source_File_Index>
1

$$$$
No_0_160
                    3D
 Schrodinger Suite 2022-4.
 71 77  0  0  1  0            999 V2000
   -5.1810    3.6090  -21.8530 C   0  0  0  0  0  0
   -5.4520    3.8050  -23.1860 C   0  0  0  0  0  0
   -3.9420    3.3510  -21.5190 C   0  0  0  0  0  0
   -3.0590    3.4860  -23.6870 C   0  0  0  0  0  0
   -2.8930    3.2340  -22.2690 C   0  0  0  0  0  0
   -4.4090    3.7540  -24.2010 C   0  0  0  0  0  0
   -3.6630    3.7850  -26.4030 C   0  0  0  0  0  0
    6.0870    3.0010  -21.1820 C   0  0  0  0  0  0
    5.9380    3.1560  -23.7310 C   0  0  0  0  0  0
   -4.6650    3.8890  -25.5350 C   0  0  0  0  0  0
    2.1540    3.7130  -23.7290 C   0  0  0  0  0  0
    1.3370    4.8230  -23.4210 C   0  0  0  0  0  0
    3.1410    6.0110  -22.7430 C   0  0  0  0  0  0
    3.5570    3.8990  -23.4210 C   0  0  0  0  0  0
    1.6030    2.6010  -24.3930 C   0  0  0  0  0  0
   -0.5220    3.4190  -24.2700 C   0  0  0  0  0  0
    0.0100    4.6350  -23.6670 C   0  0  0  0  0  0
   -1.9770    3.4300  -24.6180 C   0  0  0  0  0  0
    4.1570    1.3990  -23.1440 C   0  0  0  0  0  0
    5.0950    1.0350  -22.0030 C   0  0  2  0  0  0
    6.6890    2.5740  -22.5390 C   0  0  2  0  0  0
    5.0840    2.0310  -20.8310 C   0  0  0  0  0  0
   -2.3080    3.5970  -26.0440 C   0  0  0  0  0  0
   -1.5470    2.8150  -21.6780 C   0  0  0  0  0  0
   -0.5150    2.4620  -21.1780 C   0  0  0  0  0  0
   -0.8280    5.6800  -23.3140 F   0  0  0  0  0  0
   -3.7260    3.1020  -20.1390 F   0  0  0  0  0  0
    1.8200    5.9780  -22.8860 N   0  0  0  0  0  0
    4.0350    5.0470  -22.9720 N   0  0  0  0  0  0
    0.2950    2.5160  -24.6930 N   0  0  0  0  0  0
    4.4710    2.8500  -23.6070 N   0  0  0  0  0  0
    6.5000    1.1010  -22.4910 N   0  0  1  0  0  0
   -3.8410    3.8060  -27.7920 O   0  0  0  0  0  0
   -5.9796    3.6712  -21.1226 H   0  0  0  0  0  0
   -6.4675    4.0037  -23.5091 H   0  0  0  0  0  0
    5.6179    3.9906  -21.2849 H   0  0  0  0  0  0
    6.8763    3.0060  -20.4159 H   0  0  0  0  0  0
    6.3275    2.7150  -24.6604 H   0  0  0  0  0  0
    6.0833    4.2460  -23.7593 H   0  0  0  0  0  0
   -5.6765    4.0776  -25.8762 H   0  0  0  0  0  0
    2.2385    1.7718  -24.6821 H   0  0  0  0  0  0
    3.1157    1.3435  -22.7939 H   0  0  0  0  0  0
    4.3144    0.7047  -23.9826 H   0  0  0  0  0  0
    4.8700    0.0218  -21.6387 H   0  0  0  0  0  0
    7.7578    2.8293  -22.5885 H   0  0  0  0  0  0
    4.1018    2.5236  -20.7805 H   0  0  0  0  0  0
    5.3877    1.5123  -19.9097 H   0  0  0  0  0  0
   -1.5411    3.5789  -26.8099 H   0  0  0  0  0  0
    0.3934    2.1519  -20.7378 H   0  0  0  0  0  0
    7.1492    0.5983  -21.7894 H   0  0  0  0  0  0
   -2.9984    3.7179  -28.2217 H   0  0  0  0  0  0
    5.8760    8.6680  -21.8770 N   0  3  0  0  0  0
    5.5910    9.2700  -20.5560 C   0  0  0  0  0  0
    7.0170    8.6810  -20.9340 C   0  0  0  0  0  0
    3.7060    7.3460  -22.2710 C   0  0  0  0  0  0
    6.0080    9.6230  -23.0400 C   0  0  0  0  0  0
    5.2440    7.3190  -22.1250 C   0  0  0  0  0  0
    7.0610    9.1640  -24.0680 C   0  0  0  0  0  0
    5.1792    8.3764  -20.0642 H   0  0  0  0  0  0
    5.7820   10.3209  -20.8190 H   0  0  0  0  0  0
    7.4864    9.6169  -21.2713 H   0  0  0  0  0  0
    6.8840    7.6722  -20.5161 H   0  0  0  0  0  0
    3.4202    8.1355  -22.9816 H   0  0  0  0  0  0
    3.2518    7.6141  -21.3057 H   0  0  0  0  0  0
    6.2760   10.6218  -22.6651 H   0  0  0  0  0  0
    5.0332    9.7301  -23.5384 H   0  0  0  0  0  0
    5.5210    6.6319  -21.3119 H   0  0  0  0  0  0
    5.6877    6.8693  -23.0255 H   0  0  0  0  0  0
    7.1150    9.8930  -24.8900 H   0  0  0  0  0  0
    8.0436    9.0890  -23.5792 H   0  0  0  0  0  0
    6.7771    8.1802  -24.4699 H   0  0  0  0  0  0
  1  2  2  0  0  0
  1  3  1  0  0  0
  1 34  1  0  0  0
  2  6  1  0  0  0
  2 35  1  0  0  0
  3  5  2  0  0  0
  3 27  1  0  0  0
  4  5  1  0  0  0
  4  6  2  0  0  0
  4 18  1  0  0  0
  5 24  1  0  0  0
  6 10  1  0  0  0
  7 10  2  0  0  0
  7 23  1  0  0  0
  7 33  1  0  0  0
  8 21  1  0  0  0
  8 22  1  0  0  0
  8 36  1  0  0  0
  8 37  1  0  0  0
  9 21  1  0  0  0
  9 31  1  0  0  0
  9 38  1  0  0  0
  9 39  1  0  0  0
 10 40  1  0  0  0
 11 12  1  0  0  0
 11 14  2  0  0  0
 11 15  1  0  0  0
 12 17  1  0  0  0
 12 28  2  0  0  0
 13 28  1  0  0  0
 13 29  2  0  0  0
 13 55  1  0  0  0
 14 29  1  0  0  0
 14 31  1  0  0  0
 15 30  2  0  0  0
 15 41  1  0  0  0
 16 17  2  0  0  0
 16 18  1  0  0  0
 16 30  1  0  0  0
 17 26  1  0  0  0
 18 23  2  0  0  0
 19 20  1  0  0  0
 19 31  1  0  0  0
 19 42  1  0  0  0
 19 43  1  0  0  0
 20 22  1  0  0  0
 20 32  1  0  0  0
 20 44  1  0  0  0
 21 32  1  0  0  0
 21 45  1  0  0  0
 22 46  1  0  0  0
 22 47  1  0  0  0
 23 48  1  0  0  0
 24 25  3  0  0  0
 25 49  1  0  0  0
 32 50  1  0  0  0
 33 51  1  0  0  0
 52 53  1  0  0  0
 52 54  1  0  0  0
 52 56  1  0  0  0
 52 57  1  0  0  0
 53 54  1  0  0  0
 53 59  1  0  0  0
 53 60  1  0  0  0
 54 61  1  0  0  0
 54 62  1  0  0  0
 55 57  1  0  0  0
 55 63  1  0  0  0
 55 64  1  0  0  0
 56 58  1  0  0  0
 56 65  1  0  0  0
 56 66  1  0  0  0
 57 67  1  0  0  0
 57 68  1  0  0  0
 58 69  1  0  0  0
 58 70  1  0  0  0
 58 71  1  0  0  0
M  CHG  1  52   1
M  END
> <s_m_entry_id>
306

> <s_m_entry_name>
000000148.1

> <s_m_Source_Path>
/Users/zaksoul/Documents/3r_UNI/2nd_SEMESTER/BSC/FRAG_RECON/RESULTS/2

> <s_m_Source_File>
000000148.mol2

> <i_m_Source_File_Index>
1

$$$$
No_0_161
                    3D
 Schrodinger Suite 2022-4.
 71 77  0  0  1  0            999 V2000
   -5.3440    3.6020  -21.7210 C   0  0  0  0  0  0
   -5.5900    3.8020  -23.0580 C   0  0  0  0  0  0
   -4.1090    3.3600  -21.3620 C   0  0  0  0  0  0
   -3.1830    3.5200  -23.5110 C   0  0  0  0  0  0
   -3.0430    3.2620  -22.0900 C   0  0  0  0  0  0
   -4.5250    3.7720  -24.0520 C   0  0  0  0  0  0
   -3.7340    3.8260  -26.2360 C   0  0  0  0  0  0
    5.9150    3.1510  -20.8170 C   0  0  0  0  0  0
    5.8170    3.3190  -23.3670 C   0  0  0  0  0  0
   -4.7550    3.9110  -25.3900 C   0  0  0  0  0  0
    2.0270    3.8220  -23.4420 C   0  0  0  0  0  0
    1.1880    4.9180  -23.1450 C   0  0  0  0  0  0
    2.9600    6.1270  -22.4230 C   0  0  0  0  0  0
    3.4190    4.0260  -23.1040 C   0  0  0  0  0  0
    1.5050    2.7060  -24.1240 C   0  0  0  0  0  0
   -0.6340    3.4920  -24.0400 C   0  0  0  0  0  0
   -0.1310    4.7130  -23.4200 C   0  0  0  0  0  0
   -2.0810    3.4850  -24.4190 C   0  0  0  0  0  0
    4.0500    1.5330  -22.8280 C   0  0  0  0  0  0
    4.9690    1.1760  -21.6690 C   0  0  2  0  0  0
    6.5520    2.7410  -22.1630 C   0  0  2  0  0  0
    4.9190    2.1640  -20.4920 C   0  0  0  0  0  0
   -2.3840    3.6560  -25.8500 C   0  0  0  0  0  0
   -1.7040    2.8590  -21.4740 C   0  0  0  0  0  0
   -0.6780    2.5180  -20.9550 C   0  0  0  0  0  0
   -0.9910    5.7440  -23.0790 F   0  0  0  0  0  0
   -3.9180    3.1060  -19.9790 F   0  0  0  0  0  0
    1.6420    6.0760  -22.5940 N   0  0  0  0  0  0
    3.8710    5.1780  -22.6380 N   0  0  0  0  0  0
    0.2050    2.6040  -24.4520 N   0  0  0  0  0  0
    4.3530    2.9910  -23.2760 N   0  0  0  0  0  0
    6.3820    1.2640  -22.1270 N   0  0  1  0  0  0
   -3.8840    3.8530  -27.6290 O   0  0  0  0  0  0
   -6.1579    3.6482  -21.0065 H   0  0  0  0  0  0
   -6.6012    3.9886  -23.4011 H   0  0  0  0  0  0
    5.4347    4.1347  -20.9250 H   0  0  0  0  0  0
    6.6882    3.1621  -20.0347 H   0  0  0  0  0  0
    6.2317    2.8882  -24.2902 H   0  0  0  0  0  0
    5.9472    4.4111  -23.3862 H   0  0  0  0  0  0
   -5.7619    4.0877  -25.7504 H   0  0  0  0  0  0
    2.1581    1.8874  -24.4039 H   0  0  0  0  0  0
    3.0025    1.4603  -22.5000 H   0  0  0  0  0  0
    4.2347    0.8457  -23.6667 H   0  0  0  0  0  0
    4.7512    0.1575  -21.3151 H   0  0  0  0  0  0
    7.6181    3.0106  -22.1892 H   0  0  0  0  0  0
    3.9296    2.6436  -20.4597 H   0  0  0  0  0  0
    5.2107    1.6442  -19.5675 H   0  0  0  0  0  0
   -1.6021    3.6530  -26.6008 H   0  0  0  0  0  0
    0.2253    2.2182  -20.4974 H   0  0  0  0  0  0
    7.0241    0.7664  -21.4153 H   0  0  0  0  0  0
   -3.0310    3.7798  -28.0407 H   0  0  0  0  0  0
    5.5780    8.9730  -21.8420 N   0  3  0  0  0  0
    5.5290    9.4200  -20.4330 C   0  0  0  0  0  0
    6.8870    9.0220  -21.1530 C   0  0  0  0  0  0
    3.4950    7.4680  -21.9320 C   0  0  0  0  0  0
    5.3800   10.0360  -22.8970 C   0  0  0  0  0  0
    5.0260    7.5910  -22.1030 C   0  0  0  0  0  0
    6.2260    9.7840  -24.1600 C   0  0  0  0  0  0
    5.3080    8.4479  -19.9680 H   0  0  0  0  0  0
    5.5690   10.5045  -20.6129 H   0  0  0  0  0  0
    7.1929   10.0287  -21.4739 H   0  0  0  0  0  0
    6.9320    7.9718  -20.8289 H   0  0  0  0  0  0
    2.9989    8.2832  -22.4791 H   0  0  0  0  0  0
    3.2351    7.5990  -20.8712 H   0  0  0  0  0  0
    5.6340   11.0200  -22.4760 H   0  0  0  0  0  0
    4.3162   10.0830  -23.1729 H   0  0  0  0  0  0
    5.5261    6.8679  -21.4419 H   0  0  0  0  0  0
    5.3060    7.2730  -23.1181 H   0  0  0  0  0  0
    6.0430   10.5861  -24.8901 H   0  0  0  0  0  0
    7.2923    9.7720  -23.8902 H   0  0  0  0  0  0
    5.9488    8.8153  -24.6013 H   0  0  0  0  0  0
  1  2  2  0  0  0
  1  3  1  0  0  0
  1 34  1  0  0  0
  2  6  1  0  0  0
  2 35  1  0  0  0
  3  5  2  0  0  0
  3 27  1  0  0  0
  4  5  1  0  0  0
  4  6  2  0  0  0
  4 18  1  0  0  0
  5 24  1  0  0  0
  6 10  1  0  0  0
  7 10  2  0  0  0
  7 23  1  0  0  0
  7 33  1  0  0  0
  8 21  1  0  0  0
  8 22  1  0  0  0
  8 36  1  0  0  0
  8 37  1  0  0  0
  9 21  1  0  0  0
  9 31  1  0  0  0
  9 38  1  0  0  0
  9 39  1  0  0  0
 10 40  1  0  0  0
 11 12  1  0  0  0
 11 14  2  0  0  0
 11 15  1  0  0  0
 12 17  1  0  0  0
 12 28  2  0  0  0
 13 28  1  0  0  0
 13 29  2  0  0  0
 13 55  1  0  0  0
 14 29  1  0  0  0
 14 31  1  0  0  0
 15 30  2  0  0  0
 15 41  1  0  0  0
 16 17  2  0  0  0
 16 18  1  0  0  0
 16 30  1  0  0  0
 17 26  1  0  0  0
 18 23  2  0  0  0
 19 20  1  0  0  0
 19 31  1  0  0  0
 19 42  1  0  0  0
 19 43  1  0  0  0
 20 22  1  0  0  0
 20 32  1  0  0  0
 20 44  1  0  0  0
 21 32  1  0  0  0
 21 45  1  0  0  0
 22 46  1  0  0  0
 22 47  1  0  0  0
 23 48  1  0  0  0
 24 25  3  0  0  0
 25 49  1  0  0  0
 32 50  1  0  0  0
 33 51  1  0  0  0
 52 53  1  0  0  0
 52 54  1  0  0  0
 52 56  1  0  0  0
 52 57  1  0  0  0
 53 54  1  0  0  0
 53 59  1  0  0  0
 53 60  1  0  0  0
 54 61  1  0  0  0
 54 62  1  0  0  0
 55 57  1  0  0  0
 55 63  1  0  0  0
 55 64  1  0  0  0
 56 58  1  0  0  0
 56 65  1  0  0  0
 56 66  1  0  0  0
 57 67  1  0  0  0
 57 68  1  0  0  0
 58 69  1  0  0  0
 58 70  1  0  0  0
 58 71  1  0  0  0
M  CHG  1  52   1
M  END
> <s_m_entry_id>
307

> <s_m_entry_name>
000000149.1

> <s_m_Source_Path>
/Users/zaksoul/Documents/3r_UNI/2nd_SEMESTER/BSC/FRAG_RECON/RESULTS/2

> <s_m_Source_File>
000000149.mol2

> <i_m_Source_File_Index>
1

$$$$
No_0_162
                    3D
 Schrodinger Suite 2022-4.
 71 77  0  0  1  0            999 V2000
   -5.0850    3.4350  -21.6480 C   0  0  0  0  0  0
   -5.3800    3.6540  -22.9730 C   0  0  0  0  0  0
   -3.8330    3.2190  -21.3340 C   0  0  0  0  0  0
   -2.9830    3.4450  -23.5090 C   0  0  0  0  0  0
   -2.7890    3.1640  -22.0990 C   0  0  0  0  0  0
   -4.3480    3.6720  -24.0000 C   0  0  0  0  0  0
   -3.6310    3.7890  -26.2080 C   0  0  0  0  0  0
    6.2050    3.2660  -21.1190 C   0  0  0  0  0  0
    6.0190    3.4810  -23.6600 C   0  0  0  0  0  0
   -4.6260    3.8300  -25.3270 C   0  0  0  0  0  0
    2.2170    3.8840  -23.6020 C   0  0  0  0  0  0
    1.3600    4.9510  -23.2560 C   0  0  0  0  0  0
    3.1230    6.1930  -22.5680 C   0  0  0  0  0  0
    3.6140    4.1190  -23.3050 C   0  0  0  0  0  0
    1.7020    2.7680  -24.2890 C   0  0  0  0  0  0
   -0.4520    3.4960  -24.1210 C   0  0  0  0  0  0
    0.0380    4.7160  -23.4920 C   0  0  0  0  0  0
   -1.9100    3.4570  -24.4520 C   0  0  0  0  0  0
    4.3180    1.6380  -23.1000 C   0  0  0  0  0  0
    5.2830    1.2830  -21.9790 C   0  0  2  0  0  0
    6.8080    2.8990  -22.4920 C   0  0  2  0  0  0
    5.2470    2.2470  -20.7820 C   0  0  0  0  0  0
   -2.2650    3.6470  -25.8690 C   0  0  0  0  0  0
   -1.4210    2.7840  -21.5340 C   0  0  0  0  0  0
   -0.3700    2.4610  -21.0560 C   0  0  0  0  0  0
   -0.8370    5.7180  -23.1030 F   0  0  0  0  0  0
   -3.5900    2.9430  -19.9640 F   0  0  0  0  0  0
    1.8020    6.1110  -22.6970 N   0  0  0  0  0  0
    4.0510    5.2730  -22.8310 N   0  0  0  0  0  0
    0.3950    2.6380  -24.5770 N   0  0  0  0  0  0
    4.5680    3.1120  -23.5290 N   0  0  0  0  0  0
    6.6780    1.4190  -22.4810 N   0  0  1  0  0  0
   -3.8270    3.8390  -27.5940 O   0  0  0  0  0  0
   -5.8766    3.4460  -20.9075 H   0  0  0  0  0  0
   -6.4065    3.8206  -23.2790 H   0  0  0  0  0  0
    5.6964    4.2387  -21.1906 H   0  0  0  0  0  0
    7.0031    3.2832  -20.3622 H   0  0  0  0  0  0
    6.4143    3.0797  -24.6048 H   0  0  0  0  0  0
    6.1210    4.5763  -23.6620 H   0  0  0  0  0  0
   -5.6481    3.9866  -25.6523 H   0  0  0  0  0  0
    2.3674    1.9732  -24.6061 H   0  0  0  0  0  0
    3.2841    1.5311  -22.7399 H   0  0  0  0  0  0
    4.4926    0.9719  -23.9578 H   0  0  0  0  0  0
    5.1033    0.2525  -21.6389 H   0  0  0  0  0  0
    7.8652    3.1979  -22.5475 H   0  0  0  0  0  0
    4.2470    2.6991  -20.7073 H   0  0  0  0  0  0
    5.5821    1.7181  -19.8776 H   0  0  0  0  0  0
   -1.5084    3.6801  -26.6446 H   0  0  0  0  0  0
    0.5553    2.1762  -20.6343 H   0  0  0  0  0  0
    7.3556    0.9252  -21.8002 H   0  0  0  0  0  0
   -2.9868    3.7964  -28.0354 H   0  0  0  0  0  0
    5.5180    9.2740  -22.3230 N   0  3  0  0  0  0
    5.8020    9.5780  -20.9030 C   0  0  0  0  0  0
    6.9520    9.4210  -21.9870 C   0  0  0  0  0  0
    3.6390    7.5380  -22.0670 C   0  0  0  0  0  0
    4.9470   10.3990  -23.1540 C   0  0  0  0  0  0
    5.0510    7.8660  -22.6040 C   0  0  0  0  0  0
    5.4480   10.3740  -24.6110 C   0  0  0  0  0  0
    5.8060    8.5465  -20.5208 H   0  0  0  0  0  0
    5.6891   10.6711  -20.9530 H   0  0  0  0  0  0
    7.0649   10.4834  -22.2489 H   0  0  0  0  0  0
    7.1811    8.3586  -21.8169 H   0  0  0  0  0  0
    2.9402    8.3328  -22.3669 H   0  0  0  0  0  0
    3.6580    7.5360  -20.9672 H   0  0  0  0  0  0
    5.2091   11.3632  -22.6939 H   0  0  0  0  0  0
    3.8487   10.3390  -23.1440 H   0  0  0  0  0  0
    5.7747    7.1513  -22.1852 H   0  0  0  0  0  0
    5.0800    7.6810  -23.6879 H   0  0  0  0  0  0
    5.0020   11.2111  -25.1681 H   0  0  0  0  0  0
    6.5439   10.4680  -24.6240 H   0  0  0  0  0  0
    5.1570    9.4240  -25.0830 H   0  0  0  0  0  0
  1  2  2  0  0  0
  1  3  1  0  0  0
  1 34  1  0  0  0
  2  6  1  0  0  0
  2 35  1  0  0  0
  3  5  2  0  0  0
  3 27  1  0  0  0
  4  5  1  0  0  0
  4  6  2  0  0  0
  4 18  1  0  0  0
  5 24  1  0  0  0
  6 10  1  0  0  0
  7 10  2  0  0  0
  7 23  1  0  0  0
  7 33  1  0  0  0
  8 21  1  0  0  0
  8 22  1  0  0  0
  8 36  1  0  0  0
  8 37  1  0  0  0
  9 21  1  0  0  0
  9 31  1  0  0  0
  9 38  1  0  0  0
  9 39  1  0  0  0
 10 40  1  0  0  0
 11 12  1  0  0  0
 11 14  2  0  0  0
 11 15  1  0  0  0
 12 17  1  0  0  0
 12 28  2  0  0  0
 13 28  1  0  0  0
 13 29  2  0  0  0
 13 55  1  0  0  0
 14 29  1  0  0  0
 14 31  1  0  0  0
 15 30  2  0  0  0
 15 41  1  0  0  0
 16 17  2  0  0  0
 16 18  1  0  0  0
 16 30  1  0  0  0
 17 26  1  0  0  0
 18 23  2  0  0  0
 19 20  1  0  0  0
 19 31  1  0  0  0
 19 42  1  0  0  0
 19 43  1  0  0  0
 20 22  1  0  0  0
 20 32  1  0  0  0
 20 44  1  0  0  0
 21 32  1  0  0  0
 21 45  1  0  0  0
 22 46  1  0  0  0
 22 47  1  0  0  0
 23 48  1  0  0  0
 24 25  3  0  0  0
 25 49  1  0  0  0
 32 50  1  0  0  0
 33 51  1  0  0  0
 52 53  1  0  0  0
 52 54  1  0  0  0
 52 56  1  0  0  0
 52 57  1  0  0  0
 53 54  1  0  0  0
 53 59  1  0  0  0
 53 60  1  0  0  0
 54 61  1  0  0  0
 54 62  1  0  0  0
 55 57  1  0  0  0
 55 63  1  0  0  0
 55 64  1  0  0  0
 56 58  1  0  0  0
 56 65  1  0  0  0
 56 66  1  0  0  0
 57 67  1  0  0  0
 57 68  1  0  0  0
 58 69  1  0  0  0
 58 70  1  0  0  0
 58 71  1  0  0  0
M  CHG  1  52   1
M  END
> <s_m_entry_id>
308

> <s_m_entry_name>
000000150.1

> <s_m_Source_Path>
/Users/zaksoul/Documents/3r_UNI/2nd_SEMESTER/BSC/FRAG_RECON/RESULTS/2

> <s_m_Source_File>
000000150.mol2

> <i_m_Source_File_Index>
1

$$$$
No_0_163
                    3D
 Schrodinger Suite 2022-4.
 71 77  0  0  1  0            999 V2000
   -5.3330    3.6270  -21.8930 C   0  0  0  0  0  0
   -5.5630    3.8530  -23.2290 C   0  0  0  0  0  0
   -4.1020    3.3770  -21.5240 C   0  0  0  0  0  0
   -3.1500    3.5780  -23.6580 C   0  0  0  0  0  0
   -3.0280    3.2930  -22.2410 C   0  0  0  0  0  0
   -4.4850    3.8420  -24.2100 C   0  0  0  0  0  0
   -3.6680    3.9390  -26.3840 C   0  0  0  0  0  0
    5.9140    3.1490  -20.8620 C   0  0  0  0  0  0
    5.8470    3.3670  -23.4090 C   0  0  0  0  0  0
   -4.7000    4.0080  -25.5480 C   0  0  0  0  0  0
    2.0580    3.8750  -23.5200 C   0  0  0  0  0  0
    1.2160    4.9650  -23.2120 C   0  0  0  0  0  0
    2.9800    6.1590  -22.4440 C   0  0  0  0  0  0
    3.4470    4.0710  -23.1610 C   0  0  0  0  0  0
    1.5440    2.7730  -24.2300 C   0  0  0  0  0  0
   -0.5950    3.5600  -24.1570 C   0  0  0  0  0  0
   -0.1000    4.7670  -23.5070 C   0  0  0  0  0  0
   -2.0370    3.5610  -24.5530 C   0  0  0  0  0  0
    4.0730    1.5720  -22.9270 C   0  0  0  0  0  0
    4.9770    1.1920  -21.7650 C   0  0  2  0  0  0
    6.5670    2.7650  -22.2080 C   0  0  2  0  0  0
    4.9140    2.1570  -20.5690 C   0  0  0  0  0  0
   -2.3230    3.7600  -25.9840 C   0  0  0  0  0  0
   -1.6960    2.8760  -21.6170 C   0  0  0  0  0  0
   -0.6770    2.5240  -21.0920 C   0  0  0  0  0  0
   -0.9630    5.7920  -23.1550 F   0  0  0  0  0  0
   -3.9280    3.0950  -20.1440 F   0  0  0  0  0  0
    1.6640    6.1120  -22.6320 N   0  0  0  0  0  0
    3.8940    5.2130  -22.6670 N   0  0  0  0  0  0
    0.2480    2.6790  -24.5760 N   0  0  0  0  0  0
    4.3820    3.0390  -23.3430 N   0  0  0  0  0  0
    6.3960    1.2890  -22.2040 N   0  0  1  0  0  0
   -3.8010    3.9940  -27.7770 O   0  0  0  0  0  0
   -6.1561    3.6591  -21.1883 H   0  0  0  0  0  0
   -6.5695    4.0477  -23.5812 H   0  0  0  0  0  0
    5.4356    4.1351  -20.9559 H   0  0  0  0  0  0
    6.6781    3.1450  -20.0707 H   0  0  0  0  0  0
    6.2727    2.9554  -24.3360 H   0  0  0  0  0  0
    5.9782    4.4591  -23.4050 H   0  0  0  0  0  0
   -5.7023    4.1918  -25.9176 H   0  0  0  0  0  0
    2.2005    1.9599  -24.5181 H   0  0  0  0  0  0
    3.0216    1.4943  -22.6132 H   0  0  0  0  0  0
    4.2669    0.9015  -23.7772 H   0  0  0  0  0  0
    4.7540    0.1669  -21.4341 H   0  0  0  0  0  0
    7.6334    3.0346  -22.2161 H   0  0  0  0  0  0
    3.9239    2.6354  -20.5387 H   0  0  0  0  0  0
    5.1935    1.6181  -19.6517 H   0  0  0  0  0  0
   -1.5319    3.7720  -26.7249 H   0  0  0  0  0  0
    0.2207    2.2141  -20.6302 H   0  0  0  0  0  0
    7.0288    0.7770  -21.4942 H   0  0  0  0  0  0
   -2.9431    3.9277  -28.1797 H   0  0  0  0  0  0
    5.2160    9.3650  -22.3460 N   0  3  0  0  0  0
    5.7430    9.5680  -20.9790 C   0  0  0  0  0  0
    6.6780    9.5810  -22.2620 C   0  0  0  0  0  0
    3.5110    7.4890  -21.9200 C   0  0  0  0  0  0
    4.4420   10.5140  -22.9490 C   0  0  0  0  0  0
    4.7780    7.9560  -22.6700 C   0  0  0  0  0  0
    4.6640   10.6450  -24.4690 C   0  0  0  0  0  0
    5.8720    8.5110  -20.7030 H   0  0  0  0  0  0
    5.5670   10.6512  -20.9030 H   0  0  0  0  0  0
    6.6850   10.6668  -22.4380 H   0  0  0  0  0  0
    6.9901    8.5265  -22.2380 H   0  0  0  0  0  0
    2.7279    8.2561  -22.0120 H   0  0  0  0  0  0
    3.7340    7.3960  -20.8469 H   0  0  0  0  0  0
    4.7350   11.4521  -22.4549 H   0  0  0  0  0  0
    3.3693   10.3780  -22.7471 H   0  0  0  0  0  0
    5.6041    7.2609  -22.4590 H   0  0  0  0  0  0
    4.6140    7.8660  -23.7540 H   0  0  0  0  0  0
    4.0793   11.4936  -24.8538 H   0  0  0  0  0  0
    5.7319   10.8150  -24.6710 H   0  0  0  0  0  0
    4.3392    9.7205  -24.9687 H   0  0  0  0  0  0
  1  2  2  0  0  0
  1  3  1  0  0  0
  1 34  1  0  0  0
  2  6  1  0  0  0
  2 35  1  0  0  0
  3  5  2  0  0  0
  3 27  1  0  0  0
  4  5  1  0  0  0
  4  6  2  0  0  0
  4 18  1  0  0  0
  5 24  1  0  0  0
  6 10  1  0  0  0
  7 10  2  0  0  0
  7 23  1  0  0  0
  7 33  1  0  0  0
  8 21  1  0  0  0
  8 22  1  0  0  0
  8 36  1  0  0  0
  8 37  1  0  0  0
  9 21  1  0  0  0
  9 31  1  0  0  0
  9 38  1  0  0  0
  9 39  1  0  0  0
 10 40  1  0  0  0
 11 12  1  0  0  0
 11 14  2  0  0  0
 11 15  1  0  0  0
 12 17  1  0  0  0
 12 28  2  0  0  0
 13 28  1  0  0  0
 13 29  2  0  0  0
 13 55  1  0  0  0
 14 29  1  0  0  0
 14 31  1  0  0  0
 15 30  2  0  0  0
 15 41  1  0  0  0
 16 17  2  0  0  0
 16 18  1  0  0  0
 16 30  1  0  0  0
 17 26  1  0  0  0
 18 23  2  0  0  0
 19 20  1  0  0  0
 19 31  1  0  0  0
 19 42  1  0  0  0
 19 43  1  0  0  0
 20 22  1  0  0  0
 20 32  1  0  0  0
 20 44  1  0  0  0
 21 32  1  0  0  0
 21 45  1  0  0  0
 22 46  1  0  0  0
 22 47  1  0  0  0
 23 48  1  0  0  0
 24 25  3  0  0  0
 25 49  1  0  0  0
 32 50  1  0  0  0
 33 51  1  0  0  0
 52 53  1  0  0  0
 52 54  1  0  0  0
 52 56  1  0  0  0
 52 57  1  0  0  0
 53 54  1  0  0  0
 53 59  1  0  0  0
 53 60  1  0  0  0
 54 61  1  0  0  0
 54 62  1  0  0  0
 55 57  1  0  0  0
 55 63  1  0  0  0
 55 64  1  0  0  0
 56 58  1  0  0  0
 56 65  1  0  0  0
 56 66  1  0  0  0
 57 67  1  0  0  0
 57 68  1  0  0  0
 58 69  1  0  0  0
 58 70  1  0  0  0
 58 71  1  0  0  0
M  CHG  1  52   1
M  END
> <s_m_entry_id>
309

> <s_m_entry_name>
000000151.1

> <s_m_Source_Path>
/Users/zaksoul/Documents/3r_UNI/2nd_SEMESTER/BSC/FRAG_RECON/RESULTS/2

> <s_m_Source_File>
000000151.mol2

> <i_m_Source_File_Index>
1

$$$$
No_0_164
                    3D
 Schrodinger Suite 2022-4.
 66 72  0  0  1  0            999 V2000
   -5.1050    3.5200  -22.4010 C   0  0  0  0  0  0
   -5.3400    3.6890  -23.7450 C   0  0  0  0  0  0
   -3.8750    3.2710  -22.0280 C   0  0  0  0  0  0
   -2.9350    3.3640  -24.1740 C   0  0  0  0  0  0
   -2.8070    3.1400  -22.7470 C   0  0  0  0  0  0
   -4.2700    3.6200  -24.7300 C   0  0  0  0  0  0
   -3.4640    3.6090  -26.9100 C   0  0  0  0  0  0
    6.1410    2.9410  -21.4130 C   0  0  0  0  0  0
    6.0610    3.0460  -23.9670 C   0  0  0  0  0  0
   -4.4900    3.7280  -26.0720 C   0  0  0  0  0  0
    2.2780    3.5980  -24.0790 C   0  0  0  0  0  0
    1.4520    4.7120  -23.8150 C   0  0  0  0  0  0
    3.2360    5.9150  -23.1120 C   0  0  0  0  0  0
    3.6710    3.7920  -23.7370 C   0  0  0  0  0  0
    1.7450    2.4720  -24.7360 C   0  0  0  0  0  0
   -0.3830    3.2890  -24.6860 C   0  0  0  0  0  0
    0.1320    4.5180  -24.0930 C   0  0  0  0  0  0
   -1.8270    3.2920  -25.0740 C   0  0  0  0  0  0
    4.2660    1.2980  -23.3940 C   0  0  0  0  0  0
    5.1730    0.9580  -22.2220 C   0  0  2  0  0  0
    6.7800    2.4890  -22.7440 C   0  0  2  0  0  0
    5.1300    1.9770  -21.0700 C   0  0  0  0  0  0
   -2.1200    3.4300  -26.5110 C   0  0  0  0  0  0
   -1.4770    2.7340  -22.1120 C   0  0  0  0  0  0
   -0.4590    2.3930  -21.5770 C   0  0  0  0  0  0
   -0.7160    5.5690  -23.7840 F   0  0  0  0  0  0
   -3.6970    3.0480  -20.6380 F   0  0  0  0  0  0
    1.9190    5.8780  -23.2900 N   0  0  0  0  0  0
    4.1360    4.9490  -23.2980 N   0  0  0  0  0  0
    0.4460    2.3790  -25.0700 N   0  0  0  0  0  0
    4.5920    2.7400  -23.8770 N   0  0  0  0  0  0
    6.5910    1.0160  -22.6730 N   0  0  1  0  0  0
   -3.6050    3.6030  -28.3040 O   0  0  0  0  0  0
   -5.9229    3.5953  -21.6935 H   0  0  0  0  0  0
   -6.3464    3.8807  -24.0992 H   0  0  0  0  0  0
    5.6739    3.9277  -21.5482 H   0  0  0  0  0  0
    6.9095    2.9622  -20.6263 H   0  0  0  0  0  0
    6.4757    2.5879  -24.8771 H   0  0  0  0  0  0
    6.2063    4.1354  -24.0134 H   0  0  0  0  0  0
   -5.4918    3.9087  -26.4444 H   0  0  0  0  0  0
    2.3891    1.6382  -24.9908 H   0  0  0  0  0  0
    3.2154    1.2475  -23.0721 H   0  0  0  0  0  0
    4.4466    0.5877  -24.2143 H   0  0  0  0  0  0
    4.9389   -0.0480  -21.8436 H   0  0  0  0  0  0
    7.8496    2.7443  -22.7702 H   0  0  0  0  0  0
    4.1464    2.4693  -21.0559 H   0  0  0  0  0  0
    5.4084    1.4766  -20.1308 H   0  0  0  0  0  0
   -1.3330    3.3989  -27.2558 H   0  0  0  0  0  0
    0.4379    2.0931  -21.1071 H   0  0  0  0  0  0
    7.2209    0.5284  -21.9437 H   0  0  0  0  0  0
   -2.7508    3.5080  -28.7088 H   0  0  0  0  0  0
    5.4390    8.3320  -21.1190 N   0  3  0  0  0  0
    6.8220   10.0230  -20.9320 N   0  0  0  0  0  0
    4.8040    7.0910  -21.5090 C   0  0  0  0  0  0
    6.6770    8.7960  -21.7510 C   0  0  0  0  0  0
    4.9660    9.1180  -20.1710 C   0  0  0  0  0  0
    5.8960   10.2080  -20.0710 C   0  0  0  0  0  0
    3.7870    7.2610  -22.6510 C   0  0  0  0  0  0
    4.3031    6.6470  -20.6361 H   0  0  0  0  0  0
    5.5746    6.3664  -21.8108 H   0  0  0  0  0  0
    6.4540    9.0901  -22.7872 H   0  0  0  0  0  0
    7.4877    8.1002  -21.4891 H   0  0  0  0  0  0
    4.0421    8.8570  -19.6570 H   0  0  0  0  0  0
    5.9190   11.0856  -19.4266 H   0  0  0  0  0  0
    4.2699    7.7689  -23.4988 H   0  0  0  0  0  0
    2.9580    7.8990  -22.3110 H   0  0  0  0  0  0
  1  2  2  0  0  0
  1  3  1  0  0  0
  1 34  1  0  0  0
  2  6  1  0  0  0
  2 35  1  0  0  0
  3  5  2  0  0  0
  3 27  1  0  0  0
  4  5  1  0  0  0
  4  6  2  0  0  0
  4 18  1  0  0  0
  5 24  1  0  0  0
  6 10  1  0  0  0
  7 10  2  0  0  0
  7 23  1  0  0  0
  7 33  1  0  0  0
  8 21  1  0  0  0
  8 22  1  0  0  0
  8 36  1  0  0  0
  8 37  1  0  0  0
  9 21  1  0  0  0
  9 31  1  0  0  0
  9 38  1  0  0  0
  9 39  1  0  0  0
 10 40  1  0  0  0
 11 12  1  0  0  0
 11 14  2  0  0  0
 11 15  1  0  0  0
 12 17  1  0  0  0
 12 28  2  0  0  0
 13 28  1  0  0  0
 13 29  2  0  0  0
 13 58  1  0  0  0
 14 29  1  0  0  0
 14 31  1  0  0  0
 15 30  2  0  0  0
 15 41  1  0  0  0
 16 17  2  0  0  0
 16 18  1  0  0  0
 16 30  1  0  0  0
 17 26  1  0  0  0
 18 23  2  0  0  0
 19 20  1  0  0  0
 19 31  1  0  0  0
 19 42  1  0  0  0
 19 43  1  0  0  0
 20 22  1  0  0  0
 20 32  1  0  0  0
 20 44  1  0  0  0
 21 32  1  0  0  0
 21 45  1  0  0  0
 22 46  1  0  0  0
 22 47  1  0  0  0
 23 48  1  0  0  0
 24 25  3  0  0  0
 25 49  1  0  0  0
 32 50  1  0  0  0
 33 51  1  0  0  0
 52 54  1  0  0  0
 52 55  1  0  0  0
 52 56  2  0  0  0
 53 55  1  0  0  0
 53 57  2  0  0  0
 54 58  1  0  0  0
 54 59  1  0  0  0
 54 60  1  0  0  0
 55 61  1  0  0  0
 55 62  1  0  0  0
 56 57  1  0  0  0
 56 63  1  0  0  0
 57 64  1  0  0  0
 58 65  1  0  0  0
 58 66  1  0  0  0
M  CHG  1  52   1
M  END
> <s_m_entry_id>
310

> <s_m_entry_name>
000000152.1

> <s_m_Source_Path>
/Users/zaksoul/Documents/3r_UNI/2nd_SEMESTER/BSC/FRAG_RECON/RESULTS/2

> <s_m_Source_File>
000000152.mol2

> <i_m_Source_File_Index>
1

$$$$
No_0_165
                    3D
 Schrodinger Suite 2022-4.
 66 72  0  0  1  0            999 V2000
   -5.3440    3.4270  -21.9000 C   0  0  0  0  0  0
   -5.6140    3.5900  -23.2380 C   0  0  0  0  0  0
   -4.1000    3.2080  -21.5570 C   0  0  0  0  0  0
   -3.2120    3.3260  -23.7240 C   0  0  0  0  0  0
   -3.0450    3.1050  -22.3000 C   0  0  0  0  0  0
   -4.5650    3.5480  -24.2480 C   0  0  0  0  0  0
   -3.8110    3.5580  -26.4470 C   0  0  0  0  0  0
    5.9330    3.1300  -21.1760 C   0  0  0  0  0  0
    5.7910    3.2330  -23.7270 C   0  0  0  0  0  0
   -4.8200    3.6510  -25.5850 C   0  0  0  0  0  0
    1.9940    3.6900  -23.7500 C   0  0  0  0  0  0
    1.1470    4.7830  -23.4660 C   0  0  0  0  0  0
    2.9160    6.0310  -22.8040 C   0  0  0  0  0  0
    3.3900    3.9190  -23.4410 C   0  0  0  0  0  0
    1.4750    2.5510  -24.3960 C   0  0  0  0  0  0
   -0.6710    3.3150  -24.2960 C   0  0  0  0  0  0
   -0.1740    4.5560  -23.7140 C   0  0  0  0  0  0
   -2.1240    3.2810  -24.6490 C   0  0  0  0  0  0
    4.0550    1.4410  -23.1140 C   0  0  0  0  0  0
    4.9970    1.1230  -21.9630 C   0  0  2  0  0  0
    6.5530    2.6940  -22.5220 C   0  0  2  0  0  0
    4.9550    2.1400  -20.8100 C   0  0  0  0  0  0
   -2.4530    3.4130  -26.0790 C   0  0  0  0  0  0
   -1.6910    2.7320  -21.6970 C   0  0  0  0  0  0
   -0.6520    2.4160  -21.1870 C   0  0  0  0  0  0
   -1.0400    5.5850  -23.3840 F   0  0  0  0  0  0
   -3.8830    2.9900  -20.1710 F   0  0  0  0  0  0
    1.5960    5.9600  -22.9510 N   0  0  0  0  0  0
    3.8350    5.0870  -23.0110 N   0  0  0  0  0  0
    0.1710    2.4260  -24.6990 N   0  0  0  0  0  0
    4.3330    2.8910  -23.6030 N   0  0  0  0  0  0
    6.4020    1.2170  -22.4470 N   0  0  1  0  0  0
   -3.9850    3.5490  -27.8360 O   0  0  0  0  0  0
   -6.1472    3.4812  -21.1741 H   0  0  0  0  0  0
   -6.6329    3.7566  -23.5683 H   0  0  0  0  0  0
    5.4393    4.1052  -21.2992 H   0  0  0  0  0  0
    6.7188    3.1704  -20.4073 H   0  0  0  0  0  0
    6.1959    2.7857  -24.6468 H   0  0  0  0  0  0
    5.9080    4.3257  -23.7754 H   0  0  0  0  0  0
   -5.8345    3.8075  -25.9332 H   0  0  0  0  0  0
    2.1337    1.7336  -24.6661 H   0  0  0  0  0  0
    3.0140    1.3643  -22.7670 H   0  0  0  0  0  0
    4.2337    0.7354  -23.9387 H   0  0  0  0  0  0
    4.7971    0.1113  -21.5803 H   0  0  0  0  0  0
    7.6151    2.9757  -22.5725 H   0  0  0  0  0  0
    3.9599    2.6073  -20.7727 H   0  0  0  0  0  0
    5.2677    1.6467  -19.8779 H   0  0  0  0  0  0
   -1.6830    3.4010  -26.8419 H   0  0  0  0  0  0
    0.2624    2.1379  -20.7378 H   0  0  0  0  0  0
    7.0611    0.7451  -21.7333 H   0  0  0  0  0  0
   -3.1387    3.4748  -28.2611 H   0  0  0  0  0  0
    5.3300    8.5170  -21.1750 N   0  3  0  0  0  0
    6.5570   10.3340  -21.1580 N   0  0  0  0  0  0
    4.7310    7.2460  -21.5240 C   0  0  0  0  0  0
    6.3180    9.1670  -22.0410 C   0  0  0  0  0  0
    5.0480    9.1670  -20.0620 C   0  0  0  0  0  0
    5.8700   10.3440  -20.0820 C   0  0  0  0  0  0
    3.4440    7.3890  -22.3550 C   0  0  0  0  0  0
    4.5131    6.6813  -20.6055 H   0  0  0  0  0  0
    5.4603    6.6397  -22.0812 H   0  0  0  0  0  0
    5.8108    9.5141  -22.9533 H   0  0  0  0  0  0
    7.2278    8.5491  -22.0620 H   0  0  0  0  0  0
    4.3139    8.7639  -19.3659 H   0  0  0  0  0  0
    5.9789   11.1646  -19.3744 H   0  0  0  0  0  0
    3.6449    8.0138  -23.2377 H   0  0  0  0  0  0
    2.6763    7.8998  -21.7552 H   0  0  0  0  0  0
  1  2  2  0  0  0
  1  3  1  0  0  0
  1 34  1  0  0  0
  2  6  1  0  0  0
  2 35  1  0  0  0
  3  5  2  0  0  0
  3 27  1  0  0  0
  4  5  1  0  0  0
  4  6  2  0  0  0
  4 18  1  0  0  0
  5 24  1  0  0  0
  6 10  1  0  0  0
  7 10  2  0  0  0
  7 23  1  0  0  0
  7 33  1  0  0  0
  8 21  1  0  0  0
  8 22  1  0  0  0
  8 36  1  0  0  0
  8 37  1  0  0  0
  9 21  1  0  0  0
  9 31  1  0  0  0
  9 38  1  0  0  0
  9 39  1  0  0  0
 10 40  1  0  0  0
 11 12  1  0  0  0
 11 14  2  0  0  0
 11 15  1  0  0  0
 12 17  1  0  0  0
 12 28  2  0  0  0
 13 28  1  0  0  0
 13 29  2  0  0  0
 13 58  1  0  0  0
 14 29  1  0  0  0
 14 31  1  0  0  0
 15 30  2  0  0  0
 15 41  1  0  0  0
 16 17  2  0  0  0
 16 18  1  0  0  0
 16 30  1  0  0  0
 17 26  1  0  0  0
 18 23  2  0  0  0
 19 20  1  0  0  0
 19 31  1  0  0  0
 19 42  1  0  0  0
 19 43  1  0  0  0
 20 22  1  0  0  0
 20 32  1  0  0  0
 20 44  1  0  0  0
 21 32  1  0  0  0
 21 45  1  0  0  0
 22 46  1  0  0  0
 22 47  1  0  0  0
 23 48  1  0  0  0
 24 25  3  0  0  0
 25 49  1  0  0  0
 32 50  1  0  0  0
 33 51  1  0  0  0
 52 54  1  0  0  0
 52 55  1  0  0  0
 52 56  2  0  0  0
 53 55  1  0  0  0
 53 57  2  0  0  0
 54 58  1  0  0  0
 54 59  1  0  0  0
 54 60  1  0  0  0
 55 61  1  0  0  0
 55 62  1  0  0  0
 56 57  1  0  0  0
 56 63  1  0  0  0
 57 64  1  0  0  0
 58 65  1  0  0  0
 58 66  1  0  0  0
M  CHG  1  52   1
M  END
> <s_m_entry_id>
311

> <s_m_entry_name>
000000153.1

> <s_m_Source_Path>
/Users/zaksoul/Documents/3r_UNI/2nd_SEMESTER/BSC/FRAG_RECON/RESULTS/2

> <s_m_Source_File>
000000153.mol2

> <i_m_Source_File_Index>
1

$$$$
No_0_166
                    3D
 Schrodinger Suite 2022-4.
 66 72  0  0  1  0            999 V2000
   -5.3070    3.5890  -21.7980 C   0  0  0  0  0  0
   -5.5890    3.7490  -23.1340 C   0  0  0  0  0  0
   -4.0660    3.3400  -21.4670 C   0  0  0  0  0  0
   -3.2000    3.4180  -23.6450 C   0  0  0  0  0  0
   -3.0230    3.2040  -22.2220 C   0  0  0  0  0  0
   -4.5530    3.6720  -24.1560 C   0  0  0  0  0  0
   -3.8250    3.6450  -26.3630 C   0  0  0  0  0  0
    5.9660    3.0020  -21.2010 C   0  0  0  0  0  0
    5.7960    3.0900  -23.7510 C   0  0  0  0  0  0
   -4.8210    3.7710  -25.4900 C   0  0  0  0  0  0
    2.0130    3.6460  -23.7340 C   0  0  0  0  0  0
    1.1980    4.7620  -23.4490 C   0  0  0  0  0  0
    3.0070    5.9680  -22.8170 C   0  0  0  0  0  0
    3.4170    3.8400  -23.4420 C   0  0  0  0  0  0
    1.4560    2.5160  -24.3640 C   0  0  0  0  0  0
   -0.6680    3.3360  -24.2460 C   0  0  0  0  0  0
   -0.1310    4.5680  -23.6800 C   0  0  0  0  0  0
   -2.1250    3.3380  -24.5830 C   0  0  0  0  0  0
    4.0210    1.3480  -23.1030 C   0  0  0  0  0  0
    4.9680    1.0150  -21.9610 C   0  0  2  0  0  0
    6.5580    2.5400  -22.5500 C   0  0  2  0  0  0
    4.9660    2.0410  -20.8150 C   0  0  0  0  0  0
   -2.4670    3.4670  -26.0100 C   0  0  0  0  0  0
   -1.6720    2.8000  -21.6310 C   0  0  0  0  0  0
   -0.6360    2.4610  -21.1300 C   0  0  0  0  0  0
   -0.9670    5.6220  -23.3480 F   0  0  0  0  0  0
   -3.8390    3.1270  -20.0820 F   0  0  0  0  0  0
    1.6840    5.9320  -22.9490 N   0  0  0  0  0  0
    3.8980    4.9990  -23.0270 N   0  0  0  0  0  0
    0.1460    2.4230  -24.6520 N   0  0  0  0  0  0
    4.3310    2.7860  -23.6080 N   0  0  0  0  0  0
    6.3690    1.0680  -22.4620 N   0  0  1  0  0  0
   -4.0150    3.6300  -27.7500 O   0  0  0  0  0  0
   -6.1000    3.6693  -21.0633 H   0  0  0  0  0  0
   -6.6069    3.9397  -23.4542 H   0  0  0  0  0  0
    5.4959    3.9886  -21.3261 H   0  0  0  0  0  0
    6.7611    3.0272  -20.4412 H   0  0  0  0  0  0
    6.1785    2.6247  -24.6714 H   0  0  0  0  0  0
    5.9413    4.1788  -23.8085 H   0  0  0  0  0  0
   -5.8350    3.9507  -25.8283 H   0  0  0  0  0  0
    2.0902    1.6800  -24.6360 H   0  0  0  0  0  0
    2.9824    1.3016  -22.7437 H   0  0  0  0  0  0
    4.1723    0.6318  -23.9241 H   0  0  0  0  0  0
    4.7469    0.0116  -21.5683 H   0  0  0  0  0  0
    7.6264    2.7935  -22.6146 H   0  0  0  0  0  0
    3.9841    2.5350  -20.7706 H   0  0  0  0  0  0
    5.2770    1.5463  -19.8831 H   0  0  0  0  0  0
   -1.7065    3.4288  -26.7815 H   0  0  0  0  0  0
    0.2760    2.1630  -20.6890 H   0  0  0  0  0  0
    7.0242    0.5849  -21.7523 H   0  0  0  0  0  0
   -3.1758    3.5302  -28.1839 H   0  0  0  0  0  0
    5.6460    8.4570  -21.5920 N   0  3  0  0  0  0
    6.7690   10.3370  -21.7030 N   0  0  0  0  0  0
    5.0300    7.1850  -21.9020 C   0  0  0  0  0  0
    6.3680    9.2310  -22.6060 C   0  0  0  0  0  0
    5.6190    9.0000  -20.3890 C   0  0  0  0  0  0
    6.3650   10.2210  -20.4970 C   0  0  0  0  0  0
    3.5740    7.3160  -22.3850 C   0  0  0  0  0  0
    5.0630    6.5369  -21.0138 H   0  0  0  0  0  0
    5.6250    6.6690  -22.6700 H   0  0  0  0  0  0
    5.6412    9.6189  -23.3348 H   0  0  0  0  0  0
    7.2690    8.6720  -22.8990 H   0  0  0  0  0  0
    5.0921    8.4991  -19.5782 H   0  0  0  0  0  0
    6.6110   10.9879  -19.7641 H   0  0  0  0  0  0
    3.5310    8.0201  -23.2291 H   0  0  0  0  0  0
    2.9561    7.7310  -21.5751 H   0  0  0  0  0  0
  1  2  2  0  0  0
  1  3  1  0  0  0
  1 34  1  0  0  0
  2  6  1  0  0  0
  2 35  1  0  0  0
  3  5  2  0  0  0
  3 27  1  0  0  0
  4  5  1  0  0  0
  4  6  2  0  0  0
  4 18  1  0  0  0
  5 24  1  0  0  0
  6 10  1  0  0  0
  7 10  2  0  0  0
  7 23  1  0  0  0
  7 33  1  0  0  0
  8 21  1  0  0  0
  8 22  1  0  0  0
  8 36  1  0  0  0
  8 37  1  0  0  0
  9 21  1  0  0  0
  9 31  1  0  0  0
  9 38  1  0  0  0
  9 39  1  0  0  0
 10 40  1  0  0  0
 11 12  1  0  0  0
 11 14  2  0  0  0
 11 15  1  0  0  0
 12 17  1  0  0  0
 12 28  2  0  0  0
 13 28  1  0  0  0
 13 29  2  0  0  0
 13 58  1  0  0  0
 14 29  1  0  0  0
 14 31  1  0  0  0
 15 30  2  0  0  0
 15 41  1  0  0  0
 16 17  2  0  0  0
 16 18  1  0  0  0
 16 30  1  0  0  0
 17 26  1  0  0  0
 18 23  2  0  0  0
 19 20  1  0  0  0
 19 31  1  0  0  0
 19 42  1  0  0  0
 19 43  1  0  0  0
 20 22  1  0  0  0
 20 32  1  0  0  0
 20 44  1  0  0  0
 21 32  1  0  0  0
 21 45  1  0  0  0
 22 46  1  0  0  0
 22 47  1  0  0  0
 23 48  1  0  0  0
 24 25  3  0  0  0
 25 49  1  0  0  0
 32 50  1  0  0  0
 33 51  1  0  0  0
 52 54  1  0  0  0
 52 55  1  0  0  0
 52 56  2  0  0  0
 53 55  1  0  0  0
 53 57  2  0  0  0
 54 58  1  0  0  0
 54 59  1  0  0  0
 54 60  1  0  0  0
 55 61  1  0  0  0
 55 62  1  0  0  0
 56 57  1  0  0  0
 56 63  1  0  0  0
 57 64  1  0  0  0
 58 65  1  0  0  0
 58 66  1  0  0  0
M  CHG  1  52   1
M  END
> <s_m_entry_id>
312

> <s_m_entry_name>
000000154.1

> <s_m_Source_Path>
/Users/zaksoul/Documents/3r_UNI/2nd_SEMESTER/BSC/FRAG_RECON/RESULTS/2

> <s_m_Source_File>
000000154.mol2

> <i_m_Source_File_Index>
1

$$$$
No_0_167
                    3D
 Schrodinger Suite 2022-4.
 66 72  0  0  1  0            999 V2000
   -5.3170    3.2110  -22.1060 C   0  0  0  0  0  0
   -5.5740    3.4160  -23.4410 C   0  0  0  0  0  0
   -4.0740    2.9950  -21.7550 C   0  0  0  0  0  0
   -3.1640    3.1940  -23.9080 C   0  0  0  0  0  0
   -3.0100    2.9280  -22.4900 C   0  0  0  0  0  0
   -4.5140    3.4190  -24.4400 C   0  0  0  0  0  0
   -3.7360    3.5090  -26.6280 C   0  0  0  0  0  0
    5.9540    3.0170  -21.2630 C   0  0  0  0  0  0
    5.8390    3.2030  -23.8110 C   0  0  0  0  0  0
   -4.7550    3.5630  -25.7750 C   0  0  0  0  0  0
    2.0380    3.6170  -23.8620 C   0  0  0  0  0  0
    1.1750    4.6910  -23.5520 C   0  0  0  0  0  0
    2.9220    5.9360  -22.8290 C   0  0  0  0  0  0
    3.4270    3.8510  -23.5290 C   0  0  0  0  0  0
    1.5390    2.4950  -24.5500 C   0  0  0  0  0  0
   -0.6170    3.2310  -24.4500 C   0  0  0  0  0  0
   -0.1410    4.4570  -23.8220 C   0  0  0  0  0  0
   -2.0650    3.1920  -24.8210 C   0  0  0  0  0  0
    4.1170    1.3710  -23.2770 C   0  0  0  0  0  0
    5.0500    1.0270  -22.1260 C   0  0  2  0  0  0
    6.5930    2.6320  -22.6150 C   0  0  2  0  0  0
    4.9840    2.0040  -20.9410 C   0  0  0  0  0  0
   -2.3800    3.3670  -26.2500 C   0  0  0  0  0  0
   -1.6590    2.5510  -21.8840 C   0  0  0  0  0  0
   -0.6220    2.2300  -21.3720 C   0  0  0  0  0  0
   -1.0230    5.4650  -23.4680 F   0  0  0  0  0  0
   -3.8710    2.7340  -20.3760 F   0  0  0  0  0  0
    1.6050    5.8550  -22.9940 N   0  0  0  0  0  0
    3.8540    5.0090  -23.0570 N   0  0  0  0  0  0
    0.2400    2.3650  -24.8730 N   0  0  0  0  0  0
    4.3830    2.8400  -23.7150 N   0  0  0  0  0  0
    6.4590    1.1520  -22.5900 N   0  0  1  0  0  0
   -3.8930    3.5440  -28.0190 O   0  0  0  0  0  0
   -6.1286    3.2321  -21.3878 H   0  0  0  0  0  0
   -6.5912    3.5815  -23.7771 H   0  0  0  0  0  0
    5.4503    3.9901  -21.3599 H   0  0  0  0  0  0
    6.7306    3.0402  -20.4843 H   0  0  0  0  0  0
    6.2591    2.7900  -24.7400 H   0  0  0  0  0  0
    5.9440    4.2979  -23.8211 H   0  0  0  0  0  0
   -5.7675    3.7187  -26.1296 H   0  0  0  0  0  0
    2.2094    1.6941  -24.8401 H   0  0  0  0  0  0
    3.0733    1.2721  -22.9439 H   0  0  0  0  0  0
    4.3129    0.6946  -24.1220 H   0  0  0  0  0  0
    4.8573    0.0011  -21.7790 H   0  0  0  0  0  0
    7.6521    2.9276  -22.6443 H   0  0  0  0  0  0
    3.9833    2.4589  -20.8996 H   0  0  0  0  0  0
    5.2918    1.4843  -20.0217 H   0  0  0  0  0  0
   -1.6017    3.3891  -27.0042 H   0  0  0  0  0  0
    0.2906    1.9478  -20.9217 H   0  0  0  0  0  0
    7.1158    0.6642  -21.8850 H   0  0  0  0  0  0
   -3.0412    3.4935  -28.4365 H   0  0  0  0  0  0
    5.4950    8.5810  -21.8080 N   0  3  0  0  0  0
    6.3700   10.5910  -21.8700 N   0  0  0  0  0  0
    4.9590    7.2860  -22.1690 C   0  0  0  0  0  0
    5.9000    9.5580  -22.8230 C   0  0  0  0  0  0
    5.6690    8.9690  -20.5590 C   0  0  0  0  0  0
    6.2470   10.2810  -20.6370 C   0  0  0  0  0  0
    3.4290    7.2840  -22.3290 C   0  0  0  0  0  0
    5.2470    6.5469  -21.4069 H   0  0  0  0  0  0
    5.4260    6.9460  -23.1051 H   0  0  0  0  0  0
    4.9989    9.9320  -23.3311 H   0  0  0  0  0  0
    6.7693    9.1593  -23.3665 H   0  0  0  0  0  0
    5.3821    8.3121  -19.7392 H   0  0  0  0  0  0
    6.5639   10.9808  -19.8652 H   0  0  0  0  0  0
    3.1343    8.0713  -23.0384 H   0  0  0  0  0  0
    2.9591    7.5170  -21.3621 H   0  0  0  0  0  0
  1  2  2  0  0  0
  1  3  1  0  0  0
  1 34  1  0  0  0
  2  6  1  0  0  0
  2 35  1  0  0  0
  3  5  2  0  0  0
  3 27  1  0  0  0
  4  5  1  0  0  0
  4  6  2  0  0  0
  4 18  1  0  0  0
  5 24  1  0  0  0
  6 10  1  0  0  0
  7 10  2  0  0  0
  7 23  1  0  0  0
  7 33  1  0  0  0
  8 21  1  0  0  0
  8 22  1  0  0  0
  8 36  1  0  0  0
  8 37  1  0  0  0
  9 21  1  0  0  0
  9 31  1  0  0  0
  9 38  1  0  0  0
  9 39  1  0  0  0
 10 40  1  0  0  0
 11 12  1  0  0  0
 11 14  2  0  0  0
 11 15  1  0  0  0
 12 17  1  0  0  0
 12 28  2  0  0  0
 13 28  1  0  0  0
 13 29  2  0  0  0
 13 58  1  0  0  0
 14 29  1  0  0  0
 14 31  1  0  0  0
 15 30  2  0  0  0
 15 41  1  0  0  0
 16 17  2  0  0  0
 16 18  1  0  0  0
 16 30  1  0  0  0
 17 26  1  0  0  0
 18 23  2  0  0  0
 19 20  1  0  0  0
 19 31  1  0  0  0
 19 42  1  0  0  0
 19 43  1  0  0  0
 20 22  1  0  0  0
 20 32  1  0  0  0
 20 44  1  0  0  0
 21 32  1  0  0  0
 21 45  1  0  0  0
 22 46  1  0  0  0
 22 47  1  0  0  0
 23 48  1  0  0  0
 24 25  3  0  0  0
 25 49  1  0  0  0
 32 50  1  0  0  0
 33 51  1  0  0  0
 52 54  1  0  0  0
 52 55  1  0  0  0
 52 56  2  0  0  0
 53 55  1  0  0  0
 53 57  2  0  0  0
 54 58  1  0  0  0
 54 59  1  0  0  0
 54 60  1  0  0  0
 55 61  1  0  0  0
 55 62  1  0  0  0
 56 57  1  0  0  0
 56 63  1  0  0  0
 57 64  1  0  0  0
 58 65  1  0  0  0
 58 66  1  0  0  0
M  CHG  1  52   1
M  END
> <s_m_entry_id>
313

> <s_m_entry_name>
000000155.1

> <s_m_Source_Path>
/Users/zaksoul/Documents/3r_UNI/2nd_SEMESTER/BSC/FRAG_RECON/RESULTS/2

> <s_m_Source_File>
000000155.mol2

> <i_m_Source_File_Index>
1

$$$$
No_0_168
                    3D
 Schrodinger Suite 2022-4.
 66 72  0  0  1  0            999 V2000
   -5.3700    3.4240  -21.8310 C   0  0  0  0  0  0
   -5.6390    3.6320  -23.1630 C   0  0  0  0  0  0
   -4.1280    3.1880  -21.4930 C   0  0  0  0  0  0
   -3.2370    3.3690  -23.6550 C   0  0  0  0  0  0
   -3.0730    3.1030  -22.2390 C   0  0  0  0  0  0
   -4.5890    3.6160  -24.1730 C   0  0  0  0  0  0
   -3.8320    3.6910  -26.3690 C   0  0  0  0  0  0
    5.9040    3.0430  -21.1050 C   0  0  0  0  0  0
    5.7650    3.2280  -23.6510 C   0  0  0  0  0  0
   -4.8410    3.7620  -25.5060 C   0  0  0  0  0  0
    1.9710    3.7060  -23.6640 C   0  0  0  0  0  0
    1.1290    4.7940  -23.3460 C   0  0  0  0  0  0
    2.9040    6.0100  -22.6430 C   0  0  0  0  0  0
    3.3670    3.9170  -23.3460 C   0  0  0  0  0  0
    1.4460    2.5910  -24.3460 C   0  0  0  0  0  0
   -0.6960    3.3630  -24.2240 C   0  0  0  0  0  0
   -0.1920    4.5820  -23.6020 C   0  0  0  0  0  0
   -2.1480    3.3480  -24.5800 C   0  0  0  0  0  0
    4.0190    1.4260  -23.0970 C   0  0  0  0  0  0
    4.9580    1.0670  -21.9560 C   0  0  2  0  0  0
    6.5220    2.6470  -22.4630 C   0  0  2  0  0  0
    4.9200    2.0470  -20.7710 C   0  0  0  0  0  0
   -2.4750    3.5270  -26.0050 C   0  0  0  0  0  0
   -1.7220    2.7040  -21.6460 C   0  0  0  0  0  0
   -0.6860    2.3660  -21.1450 C   0  0  0  0  0  0
   -1.0540    5.6050  -23.2410 F   0  0  0  0  0  0
   -3.9150    2.9250  -20.1150 F   0  0  0  0  0  0
    1.5840    5.9520  -22.7940 N   0  0  0  0  0  0
    3.8190    5.0680  -22.8790 N   0  0  0  0  0  0
    0.1420    2.4830  -24.6540 N   0  0  0  0  0  0
    4.3050    2.8900  -23.5400 N   0  0  0  0  0  0
    6.3630    1.1690  -22.4350 N   0  0  1  0  0  0
   -4.0040    3.7270  -27.7590 O   0  0  0  0  0  0
   -6.1737    3.4601  -21.1045 H   0  0  0  0  0  0
   -6.6567    3.8137  -23.4892 H   0  0  0  0  0  0
    5.4146    4.0238  -21.1978 H   0  0  0  0  0  0
    6.6888    3.0541  -20.3343 H   0  0  0  0  0  0
    6.1684    2.8074  -24.5839 H   0  0  0  0  0  0
    5.8881    4.3210  -23.6651 H   0  0  0  0  0  0
   -5.8542    3.9347  -25.8504 H   0  0  0  0  0  0
    2.1005    1.7789  -24.6411 H   0  0  0  0  0  0
    2.9770    1.3443  -22.7540 H   0  0  0  0  0  0
    4.1946    0.7459  -23.9436 H   0  0  0  0  0  0
    4.7521    0.0447  -21.6058 H   0  0  0  0  0  0
    7.5857    2.9245  -22.5034 H   0  0  0  0  0  0
    3.9279    2.5194  -20.7205 H   0  0  0  0  0  0
    5.2289    1.5231  -19.8544 H   0  0  0  0  0  0
   -1.7045    3.5350  -26.7675 H   0  0  0  0  0  0
    0.2265    2.0691  -20.7042 H   0  0  0  0  0  0
    7.0194    0.6708  -21.7369 H   0  0  0  0  0  0
   -3.1571    3.6617  -28.1844 H   0  0  0  0  0  0
    5.4730    8.7940  -22.0770 N   0  3  0  0  0  0
    6.1520   10.8770  -22.1450 N   0  0  0  0  0  0
    4.9470    7.4900  -22.4230 C   0  0  0  0  0  0
    5.5010    9.8950  -23.0440 C   0  0  0  0  0  0
    5.9710    9.0800  -20.8890 C   0  0  0  0  0  0
    6.4100   10.4440  -20.9710 C   0  0  0  0  0  0
    3.4390    7.3510  -22.1510 C   0  0  0  0  0  0
    5.4918    6.7163  -21.8622 H   0  0  0  0  0  0
    5.1470    7.2860  -23.4852 H   0  0  0  0  0  0
    4.4682   10.2229  -23.2330 H   0  0  0  0  0  0
    6.2031    9.6359  -23.8502 H   0  0  0  0  0  0
    5.9780    8.3246  -20.1046 H   0  0  0  0  0  0
    6.8860   11.0981  -20.2419 H   0  0  0  0  0  0
    2.8991    8.1668  -22.6539 H   0  0  0  0  0  0
    3.2511    7.4460  -21.0713 H   0  0  0  0  0  0
  1  2  2  0  0  0
  1  3  1  0  0  0
  1 34  1  0  0  0
  2  6  1  0  0  0
  2 35  1  0  0  0
  3  5  2  0  0  0
  3 27  1  0  0  0
  4  5  1  0  0  0
  4  6  2  0  0  0
  4 18  1  0  0  0
  5 24  1  0  0  0
  6 10  1  0  0  0
  7 10  2  0  0  0
  7 23  1  0  0  0
  7 33  1  0  0  0
  8 21  1  0  0  0
  8 22  1  0  0  0
  8 36  1  0  0  0
  8 37  1  0  0  0
  9 21  1  0  0  0
  9 31  1  0  0  0
  9 38  1  0  0  0
  9 39  1  0  0  0
 10 40  1  0  0  0
 11 12  1  0  0  0
 11 14  2  0  0  0
 11 15  1  0  0  0
 12 17  1  0  0  0
 12 28  2  0  0  0
 13 28  1  0  0  0
 13 29  2  0  0  0
 13 58  1  0  0  0
 14 29  1  0  0  0
 14 31  1  0  0  0
 15 30  2  0  0  0
 15 41  1  0  0  0
 16 17  2  0  0  0
 16 18  1  0  0  0
 16 30  1  0  0  0
 17 26  1  0  0  0
 18 23  2  0  0  0
 19 20  1  0  0  0
 19 31  1  0  0  0
 19 42  1  0  0  0
 19 43  1  0  0  0
 20 22  1  0  0  0
 20 32  1  0  0  0
 20 44  1  0  0  0
 21 32  1  0  0  0
 21 45  1  0  0  0
 22 46  1  0  0  0
 22 47  1  0  0  0
 23 48  1  0  0  0
 24 25  3  0  0  0
 25 49  1  0  0  0
 32 50  1  0  0  0
 33 51  1  0  0  0
 52 54  1  0  0  0
 52 55  1  0  0  0
 52 56  2  0  0  0
 53 55  1  0  0  0
 53 57  2  0  0  0
 54 58  1  0  0  0
 54 59  1  0  0  0
 54 60  1  0  0  0
 55 61  1  0  0  0
 55 62  1  0  0  0
 56 57  1  0  0  0
 56 63  1  0  0  0
 57 64  1  0  0  0
 58 65  1  0  0  0
 58 66  1  0  0  0
M  CHG  1  52   1
M  END
> <s_m_entry_id>
314

> <s_m_entry_name>
000000156.1

> <s_m_Source_Path>
/Users/zaksoul/Documents/3r_UNI/2nd_SEMESTER/BSC/FRAG_RECON/RESULTS/2

> <s_m_Source_File>
000000156.mol2

> <i_m_Source_File_Index>
1

$$$$
No_0_169
                    3D
 Schrodinger Suite 2022-4.
 71 77  0  0  1  0            999 V2000
   -5.1580    3.6020  -21.7870 C   0  0  0  0  0  0
   -5.4210    3.7970  -23.1220 C   0  0  0  0  0  0
   -3.9210    3.3470  -21.4440 C   0  0  0  0  0  0
   -3.0240    3.4840  -23.6070 C   0  0  0  0  0  0
   -2.8670    3.2330  -22.1870 C   0  0  0  0  0  0
   -4.3700    3.7500  -24.1300 C   0  0  0  0  0  0
   -3.6090    3.7820  -26.3260 C   0  0  0  0  0  0
    6.1060    3.0220  -21.0390 C   0  0  0  0  0  0
    5.9740    3.1770  -23.5880 C   0  0  0  0  0  0
   -4.6180    3.8840  -25.4660 C   0  0  0  0  0  0
    2.1900    3.7250  -23.6130 C   0  0  0  0  0  0
    1.3680    4.8320  -23.3100 C   0  0  0  0  0  0
    3.1640    6.0240  -22.6190 C   0  0  0  0  0  0
    3.5890    3.9140  -23.2950 C   0  0  0  0  0  0
    1.6450    2.6110  -24.2810 C   0  0  0  0  0  0
   -0.4820    3.4240  -24.1720 C   0  0  0  0  0  0
    0.0430    4.6410  -23.5650 C   0  0  0  0  0  0
   -1.9350    3.4320  -24.5300 C   0  0  0  0  0  0
    4.1940    1.4150  -23.0140 C   0  0  0  0  0  0
    5.1250    1.0530  -21.8670 C   0  0  2  0  0  0
    6.7190    2.5970  -22.3910 C   0  0  2  0  0  0
    5.1040    2.0490  -20.6950 C   0  0  0  0  0  0
   -2.2560    3.5980  -25.9580 C   0  0  0  0  0  0
   -1.5240    2.8160  -21.5870 C   0  0  0  0  0  0
   -0.4950    2.4660  -21.0810 C   0  0  0  0  0  0
   -0.8000    5.6840  -23.2180 F   0  0  0  0  0  0
   -3.7140    3.0970  -20.0630 F   0  0  0  0  0  0
    1.8430    5.9880  -22.7710 N   0  0  0  0  0  0
    4.0610    5.0630  -22.8420 N   0  0  0  0  0  0
    0.3400    2.5230  -24.5900 N   0  0  0  0  0  0
    4.5080    2.8670  -23.4750 N   0  0  0  0  0  0
    6.5330    1.1230  -22.3450 N   0  0  1  0  0  0
   -3.7780    3.8040  -27.7160 O   0  0  0  0  0  0
   -5.9620    3.6612  -21.0623 H   0  0  0  0  0  0
   -6.4346    3.9937  -23.4522 H   0  0  0  0  0  0
    5.6354    4.0106  -21.1450 H   0  0  0  0  0  0
    6.8903    3.0281  -20.2678 H   0  0  0  0  0  0
    6.3713    2.7373  -24.5147 H   0  0  0  0  0  0
    6.1174    4.2673  -23.6153 H   0  0  0  0  0  0
   -5.6277    4.0707  -25.8133 H   0  0  0  0  0  0
    2.2854    1.7838  -24.5651 H   0  0  0  0  0  0
    3.1502    1.3565  -22.6718 H   0  0  0  0  0  0
    4.3585    0.7215  -23.8518 H   0  0  0  0  0  0
    4.8998    0.0392  -21.5045 H   0  0  0  0  0  0
    7.7876    2.8543  -22.4344 H   0  0  0  0  0  0
    4.1203    2.5393  -20.6516 H   0  0  0  0  0  0
    5.4017    1.5304  -19.7717 H   0  0  0  0  0  0
   -1.4841    3.5829  -26.7189 H   0  0  0  0  0  0
    0.4115    2.1582  -20.6353 H   0  0  0  0  0  0
    7.1788    0.6216  -21.6394 H   0  0  0  0  0  0
   -2.9323    3.7189  -28.1403 H   0  0  0  0  0  0
    7.9550    9.2890  -20.3800 N   0  3  0  0  0  0
    5.4940    8.9950  -22.7030 N   0  0  0  0  0  0
    5.2370    9.6820  -23.8420 N   0  0  0  0  0  0
    5.2000    7.5700  -22.5280 C   0  0  0  0  0  0
    6.0350    9.9040  -21.8480 C   0  0  0  0  0  0
    6.4810    9.5770  -20.4330 C   0  0  0  0  0  0
    3.7220    7.3610  -22.1430 C   0  0  0  0  0  0
    6.1210   11.1120  -22.4170 C   0  0  0  0  0  0
    5.5990   10.9300  -23.7000 C   0  0  0  0  0  0
    8.2230    9.0760  -19.4319 H   0  0  0  0  0  0
    8.1659    8.5023  -20.9738 H   0  0  0  0  0  0
    8.4671   10.0961  -20.7000 H   0  0  0  0  0  0
    5.8459    7.1571  -21.7391 H   0  0  0  0  0  0
    5.4141    7.0338  -23.4643 H   0  0  0  0  0  0
    6.2490   10.4242  -19.7709 H   0  0  0  0  0  0
    5.9232    8.7023  -20.0671 H   0  0  0  0  0  0
    3.1168    8.1793  -22.5602 H   0  0  0  0  0  0
    3.6160    7.4330  -21.0505 H   0  0  0  0  0  0
    6.5339   11.9447  -21.8592 H   0  0  0  0  0  0
    5.4670   11.6290  -24.5180 H   0  0  0  0  0  0
  1  2  2  0  0  0
  1  3  1  0  0  0
  1 34  1  0  0  0
  2  6  1  0  0  0
  2 35  1  0  0  0
  3  5  2  0  0  0
  3 27  1  0  0  0
  4  5  1  0  0  0
  4  6  2  0  0  0
  4 18  1  0  0  0
  5 24  1  0  0  0
  6 10  1  0  0  0
  7 10  2  0  0  0
  7 23  1  0  0  0
  7 33  1  0  0  0
  8 21  1  0  0  0
  8 22  1  0  0  0
  8 36  1  0  0  0
  8 37  1  0  0  0
  9 21  1  0  0  0
  9 31  1  0  0  0
  9 38  1  0  0  0
  9 39  1  0  0  0
 10 40  1  0  0  0
 11 12  1  0  0  0
 11 14  2  0  0  0
 11 15  1  0  0  0
 12 17  1  0  0  0
 12 28  2  0  0  0
 13 28  1  0  0  0
 13 29  2  0  0  0
 13 58  1  0  0  0
 14 29  1  0  0  0
 14 31  1  0  0  0
 15 30  2  0  0  0
 15 41  1  0  0  0
 16 17  2  0  0  0
 16 18  1  0  0  0
 16 30  1  0  0  0
 17 26  1  0  0  0
 18 23  2  0  0  0
 19 20  1  0  0  0
 19 31  1  0  0  0
 19 42  1  0  0  0
 19 43  1  0  0  0
 20 22  1  0  0  0
 20 32  1  0  0  0
 20 44  1  0  0  0
 21 32  1  0  0  0
 21 45  1  0  0  0
 22 46  1  0  0  0
 22 47  1  0  0  0
 23 48  1  0  0  0
 24 25  3  0  0  0
 25 49  1  0  0  0
 32 50  1  0  0  0
 33 51  1  0  0  0
 52 57  1  0  0  0
 52 61  1  0  0  0
 52 62  1  0  0  0
 52 63  1  0  0  0
 53 54  1  0  0  0
 53 55  1  0  0  0
 53 56  1  0  0  0
 54 60  2  0  0  0
 55 58  1  0  0  0
 55 64  1  0  0  0
 55 65  1  0  0  0
 56 57  1  0  0  0
 56 59  2  0  0  0
 57 66  1  0  0  0
 57 67  1  0  0  0
 58 68  1  0  0  0
 58 69  1  0  0  0
 59 60  1  0  0  0
 59 70  1  0  0  0
 60 71  1  0  0  0
M  CHG  1  52   1
M  END
> <s_m_entry_id>
315

> <s_m_entry_name>
000000157.1

> <s_m_Source_Path>
/Users/zaksoul/Documents/3r_UNI/2nd_SEMESTER/BSC/FRAG_RECON/RESULTS/2

> <s_m_Source_File>
000000157.mol2

> <i_m_Source_File_Index>
1

$$$$
No_0_170
                    3D
 Schrodinger Suite 2022-4.
 71 77  0  0  1  0            999 V2000
   -5.4520    3.6470  -21.8070 C   0  0  0  0  0  0
   -5.6900    3.8820  -23.1410 C   0  0  0  0  0  0
   -4.2230    3.3670  -21.4520 C   0  0  0  0  0  0
   -3.2890    3.5530  -23.5950 C   0  0  0  0  0  0
   -3.1590    3.2600  -22.1800 C   0  0  0  0  0  0
   -4.6230    3.8490  -24.1320 C   0  0  0  0  0  0
   -3.8250    3.9330  -26.3140 C   0  0  0  0  0  0
    5.7910    2.9040  -20.8930 C   0  0  0  0  0  0
    5.7030    3.1310  -23.4380 C   0  0  0  0  0  0
   -4.8470    4.0230  -25.4670 C   0  0  0  0  0  0
    1.9260    3.7270  -23.5090 C   0  0  0  0  0  0
    1.1130    4.8360  -23.1890 C   0  0  0  0  0  0
    2.9120    5.9860  -22.4360 C   0  0  0  0  0  0
    3.3230    3.8900  -23.1630 C   0  0  0  0  0  0
    1.3800    2.6390  -24.2170 C   0  0  0  0  0  0
   -0.7390    3.4760  -24.1200 C   0  0  0  0  0  0
   -0.2100    4.6690  -23.4710 C   0  0  0  0  0  0
   -2.1850    3.5120  -24.5010 C   0  0  0  0  0  0
    3.8920    1.3760  -22.9420 C   0  0  0  0  0  0
    4.7990    0.9710  -21.7910 C   0  0  2  0  0  0
    6.4210    2.5080  -22.2460 C   0  0  2  0  0  0
    4.7710    1.9340  -20.5920 C   0  0  0  0  0  0
   -2.4810    3.7220  -25.9290 C   0  0  0  0  0  0
   -1.8310    2.8100  -21.5700 C   0  0  0  0  0  0
   -0.8150    2.4330  -21.0570 C   0  0  0  0  0  0
   -1.0450    5.7130  -23.1080 F   0  0  0  0  0  0
   -4.0420    3.0770  -20.0750 F   0  0  0  0  0  0
    1.5940    5.9710  -22.6100 N   0  0  0  0  0  0
    3.8010    5.0190  -22.6710 N   0  0  0  0  0  0
    0.0780    2.5770  -24.5490 N   0  0  0  0  0  0
    4.2310    2.8370  -23.3570 N   0  0  0  0  0  0
    6.2160    1.0360  -22.2440 N   0  0  1  0  0  0
   -3.9710    3.9960  -27.7050 O   0  0  0  0  0  0
   -6.2668    3.6962  -21.0937 H   0  0  0  0  0  0
   -6.6956    4.1010  -23.4815 H   0  0  0  0  0  0
    5.3339    3.9009  -20.9788 H   0  0  0  0  0  0
    6.5620    2.8788  -20.1089 H   0  0  0  0  0  0
    6.1096    2.7122  -24.3704 H   0  0  0  0  0  0
    5.8604    4.2197  -23.4319 H   0  0  0  0  0  0
   -5.8479    4.2328  -25.8264 H   0  0  0  0  0  0
    2.0144    1.8118  -24.5141 H   0  0  0  0  0  0
    2.8419    1.3215  -22.6189 H   0  0  0  0  0  0
    4.0624    0.7043  -23.7963 H   0  0  0  0  0  0
    4.5558   -0.0494  -21.4599 H   0  0  0  0  0  0
    7.4931    2.7533  -22.2642 H   0  0  0  0  0  0
    3.7929    2.4357  -20.5506 H   0  0  0  0  0  0
    5.0475    1.3870  -19.6786 H   0  0  0  0  0  0
   -1.6971    3.7180  -26.6777 H   0  0  0  0  0  0
    0.0798    2.1011  -20.6051 H   0  0  0  0  0  0
    6.8440    0.5075  -21.5421 H   0  0  0  0  0  0
   -3.1194    3.9109  -28.1174 H   0  0  0  0  0  0
    7.8520    9.3140  -20.6600 N   0  3  0  0  0  0
    5.0530    9.0940  -22.5720 N   0  0  0  0  0  0
    4.5760    9.8730  -23.5730 N   0  0  0  0  0  0
    4.8600    7.6420  -22.5070 C   0  0  0  0  0  0
    5.6860    9.9470  -21.7220 C   0  0  0  0  0  0
    6.3770    9.5100  -20.4410 C   0  0  0  0  0  0
    3.4790    7.3020  -21.9130 C   0  0  0  0  0  0
    5.6180   11.2080  -22.1620 C   0  0  0  0  0  0
    4.8970   11.1210  -23.3560 C   0  0  0  0  0  0
    8.2838    9.0242  -19.7965 H   0  0  0  0  0  0
    7.9971    8.6047  -21.3613 H   0  0  0  0  0  0
    8.2643   10.1806  -20.9682 H   0  0  0  0  0  0
    5.6478    7.1956  -21.8824 H   0  0  0  0  0  0
    4.9390    7.2172  -23.5186 H   0  0  0  0  0  0
    6.2199   10.2703  -19.6617 H   0  0  0  0  0  0
    5.9313    8.5686  -20.0872 H   0  0  0  0  0  0
    2.7743    8.1167  -22.1359 H   0  0  0  0  0  0
    3.5530    7.2570  -20.8164 H   0  0  0  0  0  0
    6.0789   12.0059  -21.5911 H   0  0  0  0  0  0
    4.5980   11.8891  -24.0601 H   0  0  0  0  0  0
  1  2  2  0  0  0
  1  3  1  0  0  0
  1 34  1  0  0  0
  2  6  1  0  0  0
  2 35  1  0  0  0
  3  5  2  0  0  0
  3 27  1  0  0  0
  4  5  1  0  0  0
  4  6  2  0  0  0
  4 18  1  0  0  0
  5 24  1  0  0  0
  6 10  1  0  0  0
  7 10  2  0  0  0
  7 23  1  0  0  0
  7 33  1  0  0  0
  8 21  1  0  0  0
  8 22  1  0  0  0
  8 36  1  0  0  0
  8 37  1  0  0  0
  9 21  1  0  0  0
  9 31  1  0  0  0
  9 38  1  0  0  0
  9 39  1  0  0  0
 10 40  1  0  0  0
 11 12  1  0  0  0
 11 14  2  0  0  0
 11 15  1  0  0  0
 12 17  1  0  0  0
 12 28  2  0  0  0
 13 28  1  0  0  0
 13 29  2  0  0  0
 13 58  1  0  0  0
 14 29  1  0  0  0
 14 31  1  0  0  0
 15 30  2  0  0  0
 15 41  1  0  0  0
 16 17  2  0  0  0
 16 18  1  0  0  0
 16 30  1  0  0  0
 17 26  1  0  0  0
 18 23  2  0  0  0
 19 20  1  0  0  0
 19 31  1  0  0  0
 19 42  1  0  0  0
 19 43  1  0  0  0
 20 22  1  0  0  0
 20 32  1  0  0  0
 20 44  1  0  0  0
 21 32  1  0  0  0
 21 45  1  0  0  0
 22 46  1  0  0  0
 22 47  1  0  0  0
 23 48  1  0  0  0
 24 25  3  0  0  0
 25 49  1  0  0  0
 32 50  1  0  0  0
 33 51  1  0  0  0
 52 57  1  0  0  0
 52 61  1  0  0  0
 52 62  1  0  0  0
 52 63  1  0  0  0
 53 54  1  0  0  0
 53 55  1  0  0  0
 53 56  1  0  0  0
 54 60  2  0  0  0
 55 58  1  0  0  0
 55 64  1  0  0  0
 55 65  1  0  0  0
 56 57  1  0  0  0
 56 59  2  0  0  0
 57 66  1  0  0  0
 57 67  1  0  0  0
 58 68  1  0  0  0
 58 69  1  0  0  0
 59 60  1  0  0  0
 59 70  1  0  0  0
 60 71  1  0  0  0
M  CHG  1  52   1
M  END
> <s_m_entry_id>
316

> <s_m_entry_name>
000000158.1

> <s_m_Source_Path>
/Users/zaksoul/Documents/3r_UNI/2nd_SEMESTER/BSC/FRAG_RECON/RESULTS/2

> <s_m_Source_File>
000000158.mol2

> <i_m_Source_File_Index>
1

$$$$
No_0_171
                    3D
 Schrodinger Suite 2022-4.
 70 76  0  0  1  0            999 V2000
   -5.3790    3.4420  -22.0770 C   0  0  0  0  0  0
   -5.6270    3.6280  -23.4170 C   0  0  0  0  0  0
   -4.1510    3.1590  -21.7220 C   0  0  0  0  0  0
   -3.2350    3.2470  -23.8790 C   0  0  0  0  0  0
   -3.0950    3.0090  -22.4550 C   0  0  0  0  0  0
   -4.5700    3.5410  -24.4150 C   0  0  0  0  0  0
   -3.7920    3.5280  -26.6060 C   0  0  0  0  0  0
    5.8610    2.5810  -21.2340 C   0  0  0  0  0  0
    5.7520    2.7090  -23.7860 C   0  0  0  0  0  0
   -4.8040    3.6650  -25.7540 C   0  0  0  0  0  0
    1.9830    3.3540  -23.8460 C   0  0  0  0  0  0
    1.1880    4.4850  -23.5630 C   0  0  0  0  0  0
    3.0090    5.6390  -22.8730 C   0  0  0  0  0  0
    3.3840    3.5110  -23.5200 C   0  0  0  0  0  0
    1.4150    2.2460  -24.5050 C   0  0  0  0  0  0
   -0.6920    3.1150  -24.4230 C   0  0  0  0  0  0
   -0.1400    4.3250  -23.8260 C   0  0  0  0  0  0
   -2.1410    3.1560  -24.7920 C   0  0  0  0  0  0
    3.9220    1.0000  -23.2050 C   0  0  0  0  0  0
    4.8350    0.6290  -22.0460 C   0  0  2  0  0  0
    6.4720    2.1240  -22.5760 C   0  0  2  0  0  0
    4.8310    1.6380  -20.8860 C   0  0  0  0  0  0
   -2.4470    3.3130  -26.2250 C   0  0  0  0  0  0
   -1.7680    2.5660  -21.8390 C   0  0  0  0  0  0
   -0.7520    2.1950  -21.3210 C   0  0  0  0  0  0
   -0.9580    5.3940  -23.4980 F   0  0  0  0  0  0
   -3.9610    2.9210  -20.3360 F   0  0  0  0  0  0
    1.6890    5.6350  -23.0340 N   0  0  0  0  0  0
    3.8830    4.6520  -23.0770 N   0  0  0  0  0  0
    0.1100    2.1880  -24.8240 N   0  0  0  0  0  0
    4.2770    2.4380  -23.6800 N   0  0  0  0  0  0
    6.2480    0.6560  -22.5140 N   0  0  1  0  0  0
   -3.9500    3.5370  -27.9970 O   0  0  0  0  0  0
   -6.1868    3.5303  -21.3595 H   0  0  0  0  0  0
   -6.6330    3.8469  -23.7563 H   0  0  0  0  0  0
    5.4170    3.5801  -21.3551 H   0  0  0  0  0  0
    6.6393    2.5770  -20.4567 H   0  0  0  0  0  0
    6.1445    2.2478  -24.7043 H   0  0  0  0  0  0
    5.9236    3.7949  -23.8243 H   0  0  0  0  0  0
   -5.8056    3.8737  -26.1123 H   0  0  0  0  0  0
    2.0352    1.3990  -24.7750 H   0  0  0  0  0  0
    2.8747    0.9727  -22.8697 H   0  0  0  0  0  0
    4.0755    0.2922  -24.0329 H   0  0  0  0  0  0
    4.5809   -0.3741  -21.6730 H   0  0  0  0  0  0
    7.5473    2.3530  -22.6133 H   0  0  0  0  0  0
    3.8603    2.1546  -20.8557 H   0  0  0  0  0  0
    5.1086    1.1232  -19.9544 H   0  0  0  0  0  0
   -1.6702    3.2688  -26.9797 H   0  0  0  0  0  0
    0.1426    1.8691  -20.8642 H   0  0  0  0  0  0
    6.8750    0.1467  -21.7971 H   0  0  0  0  0  0
   -3.1035    3.4243  -28.4133 H   0  0  0  0  0  0
    7.1200    8.2710  -20.2880 N   0  3  1  0  0  0
    5.0290    6.7650  -22.1400 N   0  0  1  0  0  0
    7.1850    7.9440  -21.7460 C   0  0  0  0  0  0
    5.6260    8.2570  -20.1930 C   0  0  0  0  0  0
    7.8410    7.3140  -19.3810 C   0  0  0  0  0  0
    5.6410    8.0350  -21.7250 C   0  0  2  0  0  0
    3.5980    6.9670  -22.4080 C   0  0  0  0  0  0
    7.4610    9.2070  -20.1340 H   0  0  0  0  0  0
    5.5129    6.4071  -23.0368 H   0  0  0  0  0  0
    7.4431    6.8776  -21.8250 H   0  0  0  0  0  0
    7.5517    8.8444  -22.2606 H   0  0  0  0  0  0
    5.3058    9.2955  -20.0229 H   0  0  0  0  0  0
    5.3432    7.2985  -19.7333 H   0  0  0  0  0  0
    7.7309    7.6432  -18.3372 H   0  0  0  0  0  0
    7.4122    6.3074  -19.4940 H   0  0  0  0  0  0
    8.9081    7.2890  -19.6470 H   0  0  0  0  0  0
    5.2559    8.8992  -22.2861 H   0  0  0  0  0  0
    3.4760    7.7192  -23.2013 H   0  0  0  0  0  0
    3.0940    7.2870  -21.4841 H   0  0  0  0  0  0
  1  2  2  0  0  0
  1  3  1  0  0  0
  1 34  1  0  0  0
  2  6  1  0  0  0
  2 35  1  0  0  0
  3  5  2  0  0  0
  3 27  1  0  0  0
  4  5  1  0  0  0
  4  6  2  0  0  0
  4 18  1  0  0  0
  5 24  1  0  0  0
  6 10  1  0  0  0
  7 10  2  0  0  0
  7 23  1  0  0  0
  7 33  1  0  0  0
  8 21  1  0  0  0
  8 22  1  0  0  0
  8 36  1  0  0  0
  8 37  1  0  0  0
  9 21  1  0  0  0
  9 31  1  0  0  0
  9 38  1  0  0  0
  9 39  1  0  0  0
 10 40  1  0  0  0
 11 12  1  0  0  0
 11 14  2  0  0  0
 11 15  1  0  0  0
 12 17  1  0  0  0
 12 28  2  0  0  0
 13 28  1  0  0  0
 13 29  2  0  0  0
 13 58  1  0  0  0
 14 29  1  0  0  0
 14 31  1  0  0  0
 15 30  2  0  0  0
 15 41  1  0  0  0
 16 17  2  0  0  0
 16 18  1  0  0  0
 16 30  1  0  0  0
 17 26  1  0  0  0
 18 23  2  0  0  0
 19 20  1  0  0  0
 19 31  1  0  0  0
 19 42  1  0  0  0
 19 43  1  0  0  0
 20 22  1  0  0  0
 20 32  1  0  0  0
 20 44  1  0  0  0
 21 32  1  0  0  0
 21 45  1  0  0  0
 22 46  1  0  0  0
 22 47  1  0  0  0
 23 48  1  0  0  0
 24 25  3  0  0  0
 25 49  1  0  0  0
 32 50  1  0  0  0
 33 51  1  0  0  0
 52 54  1  0  0  0
 52 55  1  0  0  0
 52 56  1  0  0  0
 52 59  1  0  0  0
 53 57  1  0  0  0
 53 58  1  0  0  0
 53 60  1  0  0  0
 54 57  1  0  0  0
 54 61  1  0  0  0
 54 62  1  0  0  0
 55 57  1  0  0  0
 55 63  1  0  0  0
 55 64  1  0  0  0
 56 65  1  0  0  0
 56 66  1  0  0  0
 56 67  1  0  0  0
 57 68  1  0  0  0
 58 69  1  0  0  0
 58 70  1  0  0  0
M  CHG  1  52   1
M  END
> <s_m_entry_id>
317

> <s_m_entry_name>
000000159.1

> <s_m_Source_Path>
/Users/zaksoul/Documents/3r_UNI/2nd_SEMESTER/BSC/FRAG_RECON/RESULTS/2

> <s_m_Source_File>
000000159.mol2

> <i_m_Source_File_Index>
1

$$$$
No_0_172
                    3D
 Schrodinger Suite 2022-4.
 70 76  0  0  1  0            999 V2000
   -5.3580    3.4280  -21.8680 C   0  0  0  0  0  0
   -5.6290    3.6240  -23.2010 C   0  0  0  0  0  0
   -4.1190    3.1700  -21.5330 C   0  0  0  0  0  0
   -3.2360    3.3050  -23.7020 C   0  0  0  0  0  0
   -3.0700    3.0530  -22.2830 C   0  0  0  0  0  0
   -4.5850    3.5740  -24.2160 C   0  0  0  0  0  0
   -3.8390    3.6050  -26.4170 C   0  0  0  0  0  0
    5.9100    2.8180  -21.1960 C   0  0  0  0  0  0
    5.7610    2.9740  -23.7440 C   0  0  0  0  0  0
   -4.8410    3.7090  -25.5500 C   0  0  0  0  0  0
    1.9780    3.5320  -23.7430 C   0  0  0  0  0  0
    1.1610    4.6410  -23.4340 C   0  0  0  0  0  0
    2.9650    5.8290  -22.7560 C   0  0  0  0  0  0
    3.3800    3.7180  -23.4340 C   0  0  0  0  0  0
    1.4260    2.4200  -24.4070 C   0  0  0  0  0  0
   -0.6990    3.2380  -24.2840 C   0  0  0  0  0  0
   -0.1660    4.4540  -23.6810 C   0  0  0  0  0  0
   -2.1530    3.2500  -24.6320 C   0  0  0  0  0  0
    3.9800    1.2170  -23.1580 C   0  0  0  0  0  0
    4.9180    0.8520  -22.0170 C   0  0  2  0  0  0
    6.5120    2.3920  -22.5520 C   0  0  2  0  0  0
    4.9070    1.8480  -20.8440 C   0  0  0  0  0  0
   -2.4840    3.4170  -26.0580 C   0  0  0  0  0  0
   -1.7240    2.6330  -21.6930 C   0  0  0  0  0  0
   -0.6930    2.2800  -21.1930 C   0  0  0  0  0  0
   -1.0040    5.4990  -23.3270 F   0  0  0  0  0  0
   -3.9030    2.9200  -20.1530 F   0  0  0  0  0  0
    1.6430    5.7960  -22.8990 N   0  0  0  0  0  0
    3.8580    4.8650  -22.9850 N   0  0  0  0  0  0
    0.1180    2.3350  -24.7080 N   0  0  0  0  0  0
    4.2950    2.6680  -23.6210 N   0  0  0  0  0  0
    6.3230    0.9180  -22.5050 N   0  0  1  0  0  0
   -4.0170    3.6270  -27.8060 O   0  0  0  0  0  0
   -6.1562    3.4892  -21.1371 H   0  0  0  0  0  0
   -6.6442    3.8238  -23.5243 H   0  0  0  0  0  0
    5.4409    3.8077  -21.2979 H   0  0  0  0  0  0
    6.6993    2.8230  -20.4299 H   0  0  0  0  0  0
    6.1505    2.5330  -24.6734 H   0  0  0  0  0  0
    5.9073    4.0639  -23.7712 H   0  0  0  0  0  0
   -5.8525    3.8976  -25.8912 H   0  0  0  0  0  0
    2.0615    1.5908  -24.6961 H   0  0  0  0  0  0
    2.9387    1.1615  -22.8079 H   0  0  0  0  0  0
    4.1374    0.5227  -23.9966 H   0  0  0  0  0  0
    4.6920   -0.1610  -21.6528 H   0  0  0  0  0  0
    7.5811    2.6462  -22.6014 H   0  0  0  0  0  0
    3.9247    2.3406  -20.7945 H   0  0  0  0  0  0
    5.2099    1.3280  -19.9232 H   0  0  0  0  0  0
   -1.7176    3.3999  -26.8244 H   0  0  0  0  0  0
    0.2154    1.9692  -20.7533 H   0  0  0  0  0  0
    6.9722    0.4153  -21.8034 H   0  0  0  0  0  0
   -3.1744    3.5389  -28.2357 H   0  0  0  0  0  0
    7.2920    8.6210  -20.7590 N   0  3  1  0  0  0
    4.9970    7.0790  -22.3150 N   0  0  1  0  0  0
    7.0900    8.4230  -22.2270 C   0  0  0  0  0  0
    5.8530    8.4560  -20.3810 C   0  0  0  0  0  0
    8.2510    7.6660  -20.1060 C   0  0  0  0  0  0
    5.5790    8.3630  -21.9020 C   0  0  2  0  0  0
    3.5300    7.1640  -22.2830 C   0  0  0  0  0  0
    7.5831    9.5695  -20.5809 H   0  0  0  0  0  0
    5.3180    6.8440  -23.3191 H   0  0  0  0  0  0
    7.4090    7.3961  -22.4590 H   0  0  0  0  0  0
    7.2760    9.3931  -22.7111 H   0  0  0  0  0  0
    5.4931    9.4417  -20.0511 H   0  0  0  0  0  0
    5.7429    7.4405  -19.9728 H   0  0  0  0  0  0
    8.3270    7.8970  -19.0332 H   0  0  0  0  0  0
    7.8882    6.6355  -20.2339 H   0  0  0  0  0  0
    9.2426    7.7650  -20.5718 H   0  0  0  0  0  0
    5.0229    9.2291  -22.2901 H   0  0  0  0  0  0
    3.1940    7.9640  -22.9590 H   0  0  0  0  0  0
    3.1969    7.3580  -21.2528 H   0  0  0  0  0  0
  1  2  2  0  0  0
  1  3  1  0  0  0
  1 34  1  0  0  0
  2  6  1  0  0  0
  2 35  1  0  0  0
  3  5  2  0  0  0
  3 27  1  0  0  0
  4  5  1  0  0  0
  4  6  2  0  0  0
  4 18  1  0  0  0
  5 24  1  0  0  0
  6 10  1  0  0  0
  7 10  2  0  0  0
  7 23  1  0  0  0
  7 33  1  0  0  0
  8 21  1  0  0  0
  8 22  1  0  0  0
  8 36  1  0  0  0
  8 37  1  0  0  0
  9 21  1  0  0  0
  9 31  1  0  0  0
  9 38  1  0  0  0
  9 39  1  0  0  0
 10 40  1  0  0  0
 11 12  1  0  0  0
 11 14  2  0  0  0
 11 15  1  0  0  0
 12 17  1  0  0  0
 12 28  2  0  0  0
 13 28  1  0  0  0
 13 29  2  0  0  0
 13 58  1  0  0  0
 14 29  1  0  0  0
 14 31  1  0  0  0
 15 30  2  0  0  0
 15 41  1  0  0  0
 16 17  2  0  0  0
 16 18  1  0  0  0
 16 30  1  0  0  0
 17 26  1  0  0  0
 18 23  2  0  0  0
 19 20  1  0  0  0
 19 31  1  0  0  0
 19 42  1  0  0  0
 19 43  1  0  0  0
 20 22  1  0  0  0
 20 32  1  0  0  0
 20 44  1  0  0  0
 21 32  1  0  0  0
 21 45  1  0  0  0
 22 46  1  0  0  0
 22 47  1  0  0  0
 23 48  1  0  0  0
 24 25  3  0  0  0
 25 49  1  0  0  0
 32 50  1  0  0  0
 33 51  1  0  0  0
 52 54  1  0  0  0
 52 55  1  0  0  0
 52 56  1  0  0  0
 52 59  1  0  0  0
 53 57  1  0  0  0
 53 58  1  0  0  0
 53 60  1  0  0  0
 54 57  1  0  0  0
 54 61  1  0  0  0
 54 62  1  0  0  0
 55 57  1  0  0  0
 55 63  1  0  0  0
 55 64  1  0  0  0
 56 65  1  0  0  0
 56 66  1  0  0  0
 56 67  1  0  0  0
 57 68  1  0  0  0
 58 69  1  0  0  0
 58 70  1  0  0  0
M  CHG  1  52   1
M  END
> <s_m_entry_id>
318

> <s_m_entry_name>
000000160.1

> <s_m_Source_Path>
/Users/zaksoul/Documents/3r_UNI/2nd_SEMESTER/BSC/FRAG_RECON/RESULTS/2

> <s_m_Source_File>
000000160.mol2

> <i_m_Source_File_Index>
1

$$$$
No_0_173
                    3D
 Schrodinger Suite 2022-4.
 70 76  0  0  1  0            999 V2000
   -5.1700    3.7570  -21.8140 C   0  0  0  0  0  0
   -5.4410    3.9520  -23.1480 C   0  0  0  0  0  0
   -3.9320    3.4990  -21.4790 C   0  0  0  0  0  0
   -3.0480    3.6330  -23.6480 C   0  0  0  0  0  0
   -2.8830    3.3810  -22.2290 C   0  0  0  0  0  0
   -4.3970    3.9020  -24.1620 C   0  0  0  0  0  0
   -3.6510    3.9320  -26.3630 C   0  0  0  0  0  0
    6.0970    3.1460  -21.1400 C   0  0  0  0  0  0
    5.9490    3.3010  -23.6880 C   0  0  0  0  0  0
   -4.6530    4.0360  -25.4960 C   0  0  0  0  0  0
    2.1660    3.8590  -23.6880 C   0  0  0  0  0  0
    1.3490    4.9690  -23.3800 C   0  0  0  0  0  0
    3.1530    6.1560  -22.7020 C   0  0  0  0  0  0
    3.5680    4.0450  -23.3790 C   0  0  0  0  0  0
    1.6140    2.7470  -24.3520 C   0  0  0  0  0  0
   -0.5110    3.5650  -24.2290 C   0  0  0  0  0  0
    0.0210    4.7810  -23.6270 C   0  0  0  0  0  0
   -1.9650    3.5770  -24.5780 C   0  0  0  0  0  0
    4.1680    1.5440  -23.1020 C   0  0  0  0  0  0
    5.1050    1.1800  -21.9610 C   0  0  2  0  0  0
    6.7000    2.7190  -22.4960 C   0  0  2  0  0  0
    5.0940    2.1760  -20.7890 C   0  0  0  0  0  0
   -2.2960    3.7440  -26.0040 C   0  0  0  0  0  0
   -1.5370    2.9610  -21.6380 C   0  0  0  0  0  0
   -0.5050    2.6090  -21.1380 C   0  0  0  0  0  0
   -0.8160    5.8270  -23.2740 F   0  0  0  0  0  0
   -3.7160    3.2490  -20.0990 F   0  0  0  0  0  0
    1.8310    6.1240  -22.8450 N   0  0  0  0  0  0
    4.0460    5.1920  -22.9300 N   0  0  0  0  0  0
    0.3060    2.6620  -24.6530 N   0  0  0  0  0  0
    4.4820    2.9950  -23.5650 N   0  0  0  0  0  0
    6.5100    1.2460  -22.4480 N   0  0  1  0  0  0
   -3.8290    3.9540  -27.7520 O   0  0  0  0  0  0
   -5.9691    3.8182  -21.0841 H   0  0  0  0  0  0
   -6.4563    4.1516  -23.4711 H   0  0  0  0  0  0
    5.6287    4.1360  -21.2429 H   0  0  0  0  0  0
    6.8863    3.1510  -20.3739 H   0  0  0  0  0  0
    6.3385    2.8600  -24.6174 H   0  0  0  0  0  0
    6.0943    4.3910  -23.7163 H   0  0  0  0  0  0
   -5.6643    4.2256  -25.8371 H   0  0  0  0  0  0
    2.2495    1.9178  -24.6411 H   0  0  0  0  0  0
    3.1263    1.4885  -22.7531 H   0  0  0  0  0  0
    4.3244    0.8496  -23.9407 H   0  0  0  0  0  0
    4.8790    0.1670  -21.5968 H   0  0  0  0  0  0
    7.7688    2.9743  -22.5455 H   0  0  0  0  0  0
    4.1122    2.6694  -20.7385 H   0  0  0  0  0  0
    5.3968    1.6572  -19.8675 H   0  0  0  0  0  0
   -1.5291    3.7259  -26.7699 H   0  0  0  0  0  0
    0.4031    2.2980  -20.6979 H   0  0  0  0  0  0
    7.1592    0.7433  -21.7464 H   0  0  0  0  0  0
   -2.9861    3.8660  -28.1813 H   0  0  0  0  0  0
    7.6060    9.1020  -21.2900 N   0  3  1  0  0  0
    5.1560    7.5140  -22.5310 N   0  0  1  0  0  0
    7.1490    8.9940  -22.7100 C   0  0  0  0  0  0
    6.2730    8.8090  -20.6750 C   0  0  0  0  0  0
    8.7230    8.1740  -20.9010 C   0  0  0  0  0  0
    5.7300    8.8040  -22.1240 C   0  0  2  0  0  0
    3.7180    7.4920  -22.2290 C   0  0  0  0  0  0
    7.8700   10.0538  -21.0890 H   0  0  0  0  0  0
    5.2999    7.3741  -23.5922 H   0  0  0  0  0  0
    7.4782    8.0115  -23.0792 H   0  0  0  0  0  0
    7.1860   10.0071  -23.1370 H   0  0  0  0  0  0
    5.9248    9.7405  -20.2048 H   0  0  0  0  0  0
    6.2990    7.7619  -20.3390 H   0  0  0  0  0  0
    8.9808    8.3339  -19.8437 H   0  0  0  0  0  0
    8.4020    7.1319  -21.0460 H   0  0  0  0  0  0
    9.6038    8.3770  -21.5279 H   0  0  0  0  0  0
    5.0634    9.6535  -22.3339 H   0  0  0  0  0  0
    3.2178    8.3113  -22.7662 H   0  0  0  0  0  0
    3.5699    7.5881  -21.1433 H   0  0  0  0  0  0
  1  2  2  0  0  0
  1  3  1  0  0  0
  1 34  1  0  0  0
  2  6  1  0  0  0
  2 35  1  0  0  0
  3  5  2  0  0  0
  3 27  1  0  0  0
  4  5  1  0  0  0
  4  6  2  0  0  0
  4 18  1  0  0  0
  5 24  1  0  0  0
  6 10  1  0  0  0
  7 10  2  0  0  0
  7 23  1  0  0  0
  7 33  1  0  0  0
  8 21  1  0  0  0
  8 22  1  0  0  0
  8 36  1  0  0  0
  8 37  1  0  0  0
  9 21  1  0  0  0
  9 31  1  0  0  0
  9 38  1  0  0  0
  9 39  1  0  0  0
 10 40  1  0  0  0
 11 12  1  0  0  0
 11 14  2  0  0  0
 11 15  1  0  0  0
 12 17  1  0  0  0
 12 28  2  0  0  0
 13 28  1  0  0  0
 13 29  2  0  0  0
 13 58  1  0  0  0
 14 29  1  0  0  0
 14 31  1  0  0  0
 15 30  2  0  0  0
 15 41  1  0  0  0
 16 17  2  0  0  0
 16 18  1  0  0  0
 16 30  1  0  0  0
 17 26  1  0  0  0
 18 23  2  0  0  0
 19 20  1  0  0  0
 19 31  1  0  0  0
 19 42  1  0  0  0
 19 43  1  0  0  0
 20 22  1  0  0  0
 20 32  1  0  0  0
 20 44  1  0  0  0
 21 32  1  0  0  0
 21 45  1  0  0  0
 22 46  1  0  0  0
 22 47  1  0  0  0
 23 48  1  0  0  0
 24 25  3  0  0  0
 25 49  1  0  0  0
 32 50  1  0  0  0
 33 51  1  0  0  0
 52 54  1  0  0  0
 52 55  1  0  0  0
 52 56  1  0  0  0
 52 59  1  0  0  0
 53 57  1  0  0  0
 53 58  1  0  0  0
 53 60  1  0  0  0
 54 57  1  0  0  0
 54 61  1  0  0  0
 54 62  1  0  0  0
 55 57  1  0  0  0
 55 63  1  0  0  0
 55 64  1  0  0  0
 56 65  1  0  0  0
 56 66  1  0  0  0
 56 67  1  0  0  0
 57 68  1  0  0  0
 58 69  1  0  0  0
 58 70  1  0  0  0
M  CHG  1  52   1
M  END
> <s_m_entry_id>
319

> <s_m_entry_name>
000000161.1

> <s_m_Source_Path>
/Users/zaksoul/Documents/3r_UNI/2nd_SEMESTER/BSC/FRAG_RECON/RESULTS/2

> <s_m_Source_File>
000000161.mol2

> <i_m_Source_File_Index>
1

$$$$
No_0_174
                    3D
 Schrodinger Suite 2022-4.
 70 76  0  0  1  0            999 V2000
   -5.3510    3.5020  -21.6030 C   0  0  0  0  0  0
   -5.6260    3.6990  -22.9360 C   0  0  0  0  0  0
   -4.1100    3.2460  -21.2720 C   0  0  0  0  0  0
   -3.2340    3.3840  -23.4430 C   0  0  0  0  0  0
   -3.0640    3.1310  -22.0250 C   0  0  0  0  0  0
   -4.5850    3.6510  -23.9540 C   0  0  0  0  0  0
   -3.8450    3.6850  -26.1570 C   0  0  0  0  0  0
    5.9200    2.9110  -20.9630 C   0  0  0  0  0  0
    5.7630    3.0680  -23.5110 C   0  0  0  0  0  0
   -4.8450    3.7860  -25.2860 C   0  0  0  0  0  0
    1.9790    3.6200  -23.4990 C   0  0  0  0  0  0
    1.1620    4.7270  -23.1870 C   0  0  0  0  0  0
    2.9660    5.9170  -22.5130 C   0  0  0  0  0  0
    3.3820    3.8070  -23.1940 C   0  0  0  0  0  0
    1.4270    2.5070  -24.1630 C   0  0  0  0  0  0
   -0.6980    3.3220  -24.0330 C   0  0  0  0  0  0
   -0.1660    4.5380  -23.4300 C   0  0  0  0  0  0
   -2.1540    3.3310  -24.3770 C   0  0  0  0  0  0
    3.9870    1.3070  -22.9210 C   0  0  0  0  0  0
    4.9280    0.9440  -21.7830 C   0  0  2  0  0  0
    6.5190    2.4860  -22.3220 C   0  0  2  0  0  0
    4.9200    1.9380  -20.6100 C   0  0  0  0  0  0
   -2.4890    3.4990  -25.8020 C   0  0  0  0  0  0
   -1.7160    2.7130  -21.4390 C   0  0  0  0  0  0
   -0.6820    2.3610  -20.9420 C   0  0  0  0  0  0
   -1.0050    5.5820  -23.0740 F   0  0  0  0  0  0
   -3.8910    2.9950  -19.8930 F   0  0  0  0  0  0
    1.6430    5.8830  -22.6520 N   0  0  0  0  0  0
    3.8590    4.9550  -22.7450 N   0  0  0  0  0  0
    0.1190    2.4200  -24.4590 N   0  0  0  0  0  0
    4.2980    2.7590  -23.3840 N   0  0  0  0  0  0
    6.3320    1.0120  -22.2750 N   0  0  1  0  0  0
   -4.0270    3.7080  -27.5450 O   0  0  0  0  0  0
   -6.1478    3.5622  -20.8705 H   0  0  0  0  0  0
   -6.6426    3.8967  -23.2561 H   0  0  0  0  0  0
    5.4488    3.8998  -21.0639 H   0  0  0  0  0  0
    6.7113    2.9160  -20.1989 H   0  0  0  0  0  0
    6.1506    2.6279  -24.4416 H   0  0  0  0  0  0
    5.9073    4.1581  -23.5383 H   0  0  0  0  0  0
   -5.8575    3.9746  -25.6242 H   0  0  0  0  0  0
    2.0633    1.6790  -24.4540 H   0  0  0  0  0  0
    2.9465    1.2495  -22.5688 H   0  0  0  0  0  0
    4.1424    0.6136  -23.7607 H   0  0  0  0  0  0
    4.7060   -0.0699  -21.4188 H   0  0  0  0  0  0
    7.5874    2.7423  -22.3745 H   0  0  0  0  0  0
    3.9373    2.4294  -20.5565 H   0  0  0  0  0  0
    5.2258    1.4192  -19.6895 H   0  0  0  0  0  0
   -1.7241    3.4829  -26.5699 H   0  0  0  0  0  0
    0.2282    2.0519  -20.5049 H   0  0  0  0  0  0
    6.9841    0.5096  -21.5759 H   0  0  0  0  0  0
   -3.1857    3.6209  -27.9775 H   0  0  0  0  0  0
    7.4070    9.1300  -21.8370 N   0  3  1  0  0  0
    4.8520    7.4360  -22.6560 N   0  0  1  0  0  0
    6.6390    9.1050  -23.1200 C   0  0  0  0  0  0
    6.2780    8.6620  -20.9720 C   0  0  0  0  0  0
    8.6460    8.2800  -21.8110 C   0  0  0  0  0  0
    5.4130    8.7330  -22.2540 C   0  0  2  0  0  0
    3.5300    7.2530  -22.0410 C   0  0  0  0  0  0
    7.6419   10.0815  -21.6011 H   0  0  0  0  0  0
    4.7530    7.4030  -23.7309 H   0  0  0  0  0  0
    6.9408    8.1935  -23.6567 H   0  0  0  0  0  0
    6.5040   10.1502  -23.4351 H   0  0  0  0  0  0
    5.9847    9.5128  -20.3394 H   0  0  0  0  0  0
    6.4549    7.5964  -20.7641 H   0  0  0  0  0  0
    9.1319    8.3700  -20.8282 H   0  0  0  0  0  0
    8.3741    7.2293  -21.9900 H   0  0  0  0  0  0
    9.3392    8.6181  -22.5953 H   0  0  0  0  0  0
    4.6580    9.5320  -22.2160 H   0  0  0  0  0  0
    2.8619    8.0661  -22.3611 H   0  0  0  0  0  0
    3.6330    7.2400  -20.9459 H   0  0  0  0  0  0
  1  2  2  0  0  0
  1  3  1  0  0  0
  1 34  1  0  0  0
  2  6  1  0  0  0
  2 35  1  0  0  0
  3  5  2  0  0  0
  3 27  1  0  0  0
  4  5  1  0  0  0
  4  6  2  0  0  0
  4 18  1  0  0  0
  5 24  1  0  0  0
  6 10  1  0  0  0
  7 10  2  0  0  0
  7 23  1  0  0  0
  7 33  1  0  0  0
  8 21  1  0  0  0
  8 22  1  0  0  0
  8 36  1  0  0  0
  8 37  1  0  0  0
  9 21  1  0  0  0
  9 31  1  0  0  0
  9 38  1  0  0  0
  9 39  1  0  0  0
 10 40  1  0  0  0
 11 12  1  0  0  0
 11 14  2  0  0  0
 11 15  1  0  0  0
 12 17  1  0  0  0
 12 28  2  0  0  0
 13 28  1  0  0  0
 13 29  2  0  0  0
 13 58  1  0  0  0
 14 29  1  0  0  0
 14 31  1  0  0  0
 15 30  2  0  0  0
 15 41  1  0  0  0
 16 17  2  0  0  0
 16 18  1  0  0  0
 16 30  1  0  0  0
 17 26  1  0  0  0
 18 23  2  0  0  0
 19 20  1  0  0  0
 19 31  1  0  0  0
 19 42  1  0  0  0
 19 43  1  0  0  0
 20 22  1  0  0  0
 20 32  1  0  0  0
 20 44  1  0  0  0
 21 32  1  0  0  0
 21 45  1  0  0  0
 22 46  1  0  0  0
 22 47  1  0  0  0
 23 48  1  0  0  0
 24 25  3  0  0  0
 25 49  1  0  0  0
 32 50  1  0  0  0
 33 51  1  0  0  0
 52 54  1  0  0  0
 52 55  1  0  0  0
 52 56  1  0  0  0
 52 59  1  0  0  0
 53 57  1  0  0  0
 53 58  1  0  0  0
 53 60  1  0  0  0
 54 57  1  0  0  0
 54 61  1  0  0  0
 54 62  1  0  0  0
 55 57  1  0  0  0
 55 63  1  0  0  0
 55 64  1  0  0  0
 56 65  1  0  0  0
 56 66  1  0  0  0
 56 67  1  0  0  0
 57 68  1  0  0  0
 58 69  1  0  0  0
 58 70  1  0  0  0
M  CHG  1  52   1
M  END
> <s_m_entry_id>
320

> <s_m_entry_name>
000000162.1

> <s_m_Source_Path>
/Users/zaksoul/Documents/3r_UNI/2nd_SEMESTER/BSC/FRAG_RECON/RESULTS/2

> <s_m_Source_File>
000000162.mol2

> <i_m_Source_File_Index>
1

$$$$
No_0_175
                    3D
 Schrodinger Suite 2022-4.
 70 76  0  0  1  0            999 V2000
   -5.2850    3.2220  -21.8540 C   0  0  0  0  0  0
   -5.5400    3.4430  -23.1870 C   0  0  0  0  0  0
   -4.0430    3.0020  -21.5040 C   0  0  0  0  0  0
   -3.1290    3.2260  -23.6520 C   0  0  0  0  0  0
   -2.9780    2.9430  -22.2380 C   0  0  0  0  0  0
   -4.4780    3.4580  -24.1830 C   0  0  0  0  0  0
   -3.6960    3.5750  -26.3690 C   0  0  0  0  0  0
    5.9850    3.0130  -20.9950 C   0  0  0  0  0  0
    5.8740    3.2310  -23.5400 C   0  0  0  0  0  0
   -4.7170    3.6190  -25.5180 C   0  0  0  0  0  0
    2.0730    3.6470  -23.5930 C   0  0  0  0  0  0
    1.2100    4.7170  -23.2710 C   0  0  0  0  0  0
    2.9560    5.9520  -22.5300 C   0  0  0  0  0  0
    3.4610    3.8770  -23.2550 C   0  0  0  0  0  0
    1.5740    2.5330  -24.2960 C   0  0  0  0  0  0
   -0.5810    3.2690  -24.1900 C   0  0  0  0  0  0
   -0.1050    4.4870  -23.5460 C   0  0  0  0  0  0
   -2.0290    3.2360  -24.5640 C   0  0  0  0  0  0
    4.1500    1.3930  -23.0320 C   0  0  0  0  0  0
    5.0810    1.0340  -21.8840 C   0  0  2  0  0  0
    6.6260    2.6450  -22.3510 C   0  0  2  0  0  0
    5.0130    1.9970  -20.6870 C   0  0  0  0  0  0
   -2.3420    3.4280  -25.9910 C   0  0  0  0  0  0
   -1.6280    2.5580  -21.6340 C   0  0  0  0  0  0
   -0.5920    2.2310  -21.1250 C   0  0  0  0  0  0
   -0.9880    5.4910  -23.1810 F   0  0  0  0  0  0
   -3.8420    2.7230  -20.1270 F   0  0  0  0  0  0
    1.6390    5.8750  -22.6980 N   0  0  0  0  0  0
    3.8880    5.0290  -22.7670 N   0  0  0  0  0  0
    0.2760    2.4080  -24.6220 N   0  0  0  0  0  0
    4.4180    2.8670  -23.4510 N   0  0  0  0  0  0
    6.4910    1.1650  -22.3450 N   0  0  1  0  0  0
   -3.8520    3.6270  -27.7600 O   0  0  0  0  0  0
   -6.0977    3.2351  -21.1368 H   0  0  0  0  0  0
   -6.5567    3.6136  -23.5222 H   0  0  0  0  0  0
    5.4817    3.9873  -21.0807 H   0  0  0  0  0  0
    6.7602    3.0271  -20.2147 H   0  0  0  0  0  0
    6.2949    2.8293  -24.4736 H   0  0  0  0  0  0
    5.9790    4.3260  -23.5380 H   0  0  0  0  0  0
   -5.7288    3.7796  -25.8723 H   0  0  0  0  0  0
    2.2455    1.7360  -24.5941 H   0  0  0  0  0  0
    3.1054    1.2901  -22.7030 H   0  0  0  0  0  0
    4.3479    0.7276  -23.8852 H   0  0  0  0  0  0
    4.8883    0.0038  -21.5500 H   0  0  0  0  0  0
    7.6853    2.9406  -22.3742 H   0  0  0  0  0  0
    4.0127    2.4523  -20.6416 H   0  0  0  0  0  0
    5.3197    1.4654  -19.7741 H   0  0  0  0  0  0
   -1.5619    3.4591  -26.7430 H   0  0  0  0  0  0
    0.3193    1.9422  -20.6763 H   0  0  0  0  0  0
    7.1462    0.6680  -21.6449 H   0  0  0  0  0  0
   -2.9993    3.5815  -28.1764 H   0  0  0  0  0  0
    7.1230    9.5640  -22.2220 N   0  3  1  0  0  0
    4.6400    7.6770  -22.8050 N   0  0  1  0  0  0
    6.1570    9.5680  -23.3640 C   0  0  0  0  0  0
    6.2050    8.8980  -21.2460 C   0  0  0  0  0  0
    8.4240    8.8570  -22.4820 C   0  0  0  0  0  0
    5.1350    8.9870  -22.3600 C   0  0  2  0  0  0
    3.4620    7.2950  -22.0130 C   0  0  0  0  0  0
    7.3041   10.5106  -21.9268 H   0  0  0  0  0  0
    4.3659    7.7300  -23.8483 H   0  0  0  0  0  0
    6.4500    8.7479  -24.0360 H   0  0  0  0  0  0
    5.8742   10.6162  -23.5409 H   0  0  0  0  0  0
    5.9429    9.6504  -20.4876 H   0  0  0  0  0  0
    6.5149    7.8444  -21.1830 H   0  0  0  0  0  0
    9.0581    8.9120  -21.5848 H   0  0  0  0  0  0
    8.2270    7.8029  -22.7270 H   0  0  0  0  0  0
    8.9419    9.3379  -23.3249 H   0  0  0  0  0  0
    4.3245    9.6906  -22.1191 H   0  0  0  0  0  0
    2.6756    8.0544  -22.1351 H   0  0  0  0  0  0
    3.7488    7.1961  -20.9557 H   0  0  0  0  0  0
  1  2  2  0  0  0
  1  3  1  0  0  0
  1 34  1  0  0  0
  2  6  1  0  0  0
  2 35  1  0  0  0
  3  5  2  0  0  0
  3 27  1  0  0  0
  4  5  1  0  0  0
  4  6  2  0  0  0
  4 18  1  0  0  0
  5 24  1  0  0  0
  6 10  1  0  0  0
  7 10  2  0  0  0
  7 23  1  0  0  0
  7 33  1  0  0  0
  8 21  1  0  0  0
  8 22  1  0  0  0
  8 36  1  0  0  0
  8 37  1  0  0  0
  9 21  1  0  0  0
  9 31  1  0  0  0
  9 38  1  0  0  0
  9 39  1  0  0  0
 10 40  1  0  0  0
 11 12  1  0  0  0
 11 14  2  0  0  0
 11 15  1  0  0  0
 12 17  1  0  0  0
 12 28  2  0  0  0
 13 28  1  0  0  0
 13 29  2  0  0  0
 13 58  1  0  0  0
 14 29  1  0  0  0
 14 31  1  0  0  0
 15 30  2  0  0  0
 15 41  1  0  0  0
 16 17  2  0  0  0
 16 18  1  0  0  0
 16 30  1  0  0  0
 17 26  1  0  0  0
 18 23  2  0  0  0
 19 20  1  0  0  0
 19 31  1  0  0  0
 19 42  1  0  0  0
 19 43  1  0  0  0
 20 22  1  0  0  0
 20 32  1  0  0  0
 20 44  1  0  0  0
 21 32  1  0  0  0
 21 45  1  0  0  0
 22 46  1  0  0  0
 22 47  1  0  0  0
 23 48  1  0  0  0
 24 25  3  0  0  0
 25 49  1  0  0  0
 32 50  1  0  0  0
 33 51  1  0  0  0
 52 54  1  0  0  0
 52 55  1  0  0  0
 52 56  1  0  0  0
 52 59  1  0  0  0
 53 57  1  0  0  0
 53 58  1  0  0  0
 53 60  1  0  0  0
 54 57  1  0  0  0
 54 61  1  0  0  0
 54 62  1  0  0  0
 55 57  1  0  0  0
 55 63  1  0  0  0
 55 64  1  0  0  0
 56 65  1  0  0  0
 56 66  1  0  0  0
 56 67  1  0  0  0
 57 68  1  0  0  0
 58 69  1  0  0  0
 58 70  1  0  0  0
M  CHG  1  52   1
M  END
> <s_m_entry_id>
321

> <s_m_entry_name>
000000163.1

> <s_m_Source_Path>
/Users/zaksoul/Documents/3r_UNI/2nd_SEMESTER/BSC/FRAG_RECON/RESULTS/2

> <s_m_Source_File>
000000163.mol2

> <i_m_Source_File_Index>
1

$$$$
No_0_176
                    3D
 Schrodinger Suite 2022-4.
 65 71  0  0  1  0            999 V2000
   -5.2750    3.4610  -21.9070 C   0  0  0  0  0  0
   -5.5790    3.6300  -23.2370 C   0  0  0  0  0  0
   -4.0340    3.1830  -21.6000 C   0  0  0  0  0  0
   -3.2080    3.2440  -23.7940 C   0  0  0  0  0  0
   -3.0090    3.0240  -22.3750 C   0  0  0  0  0  0
   -4.5650    3.5310  -24.2780 C   0  0  0  0  0  0
   -3.8790    3.4900  -26.4990 C   0  0  0  0  0  0
    5.9900    2.6110  -21.5250 C   0  0  0  0  0  0
    5.7750    2.7070  -24.0710 C   0  0  0  0  0  0
   -4.8550    3.6380  -25.6070 C   0  0  0  0  0  0
    2.0060    3.3510  -23.9820 C   0  0  0  0  0  0
    1.2230    4.4860  -23.6800 C   0  0  0  0  0  0
    3.0710    5.6480  -23.0810 C   0  0  0  0  0  0
    3.4200    3.5120  -23.7160 C   0  0  0  0  0  0
    1.4110    2.2350  -24.6030 C   0  0  0  0  0  0
   -0.6900    3.1050  -24.4430 C   0  0  0  0  0  0
   -0.1150    4.3230  -23.8850 C   0  0  0  0  0  0
   -2.1530    3.1410  -24.7520 C   0  0  0  0  0  0
    3.9720    1.0060  -23.3930 C   0  0  0  0  0  0
    4.9320    0.6490  -22.2690 C   0  0  2  0  0  0
    6.5450    2.1370  -22.8860 C   0  0  2  0  0  0
    4.9760    1.6730  -21.1220 C   0  0  0  0  0  0
   -2.5200    3.2810  -26.1720 C   0  0  0  0  0  0
   -1.6570    2.5880  -21.8100 C   0  0  0  0  0  0
   -0.6200    2.2240  -21.3290 C   0  0  0  0  0  0
   -0.9190    5.3950  -23.5360 F   0  0  0  0  0  0
   -3.7860    2.9620  -20.2200 F   0  0  0  0  0  0
    1.7450    5.6420  -23.1870 N   0  0  0  0  0  0
    3.9360    4.6590  -23.3090 N   0  0  0  0  0  0
    0.0940    2.1730  -24.8650 N   0  0  0  0  0  0
    4.3060    2.4380  -23.9010 N   0  0  0  0  0  0
    6.3240    0.6700  -22.7960 N   0  0  1  0  0  0
   -4.0960    3.4820  -27.8820 O   0  0  0  0  0  0
   -6.0518    3.5584  -21.1573 H   0  0  0  0  0  0
   -6.5982    3.8449  -23.5372 H   0  0  0  0  0  0
    5.5407    3.6085  -21.6401 H   0  0  0  0  0  0
    6.8004    2.6160  -20.7812 H   0  0  0  0  0  0
    6.1282    2.2347  -24.9995 H   0  0  0  0  0  0
    5.9436    3.7924  -24.1306 H   0  0  0  0  0  0
   -5.8705    3.8427  -25.9261 H   0  0  0  0  0  0
    2.0202    1.3849  -24.8880 H   0  0  0  0  0  0
    2.9398    0.9828  -23.0136 H   0  0  0  0  0  0
    4.0901    0.2875  -24.2175 H   0  0  0  0  0  0
    4.6949   -0.3497  -21.8736 H   0  0  0  0  0  0
    7.6175    2.3660  -22.9708 H   0  0  0  0  0  0
    4.0067    2.1890  -21.0574 H   0  0  0  0  0  0
    5.2928    1.1695  -20.1967 H   0  0  0  0  0  0
   -1.7753    3.2268  -26.9578 H   0  0  0  0  0  0
    0.2928    1.9031  -20.9061 H   0  0  0  0  0  0
    6.9813    0.1698  -22.1002 H   0  0  0  0  0  0
   -3.2676    3.3644  -28.3318 H   0  0  0  0  0  0
    4.7050    6.8050  -21.6190 N   0  0  0  0  0  0
    5.4210    9.0890  -21.7600 N   0  0  0  0  0  0
    7.0270    9.0640  -20.1770 N   0  0  0  0  0  0
    3.6780    6.9820  -22.6570 C   0  0  0  0  0  0
    5.4740    7.8420  -21.2510 C   0  0  0  0  0  0
    6.3540    9.7880  -21.1020 C   0  0  0  0  0  0
    6.5090    7.8510  -20.2430 C   0  0  0  0  0  0
    4.8330    5.8853  -21.1732 H   0  0  0  0  0  0
    4.7455    9.3132  -22.5045 H   0  0  0  0  0  0
    7.7667    9.5078  -19.6142 H   0  0  0  0  0  0
    4.1250    7.4750  -23.5329 H   0  0  0  0  0  0
    2.8836    7.6423  -22.2788 H   0  0  0  0  0  0
    6.5090   10.8357  -21.3329 H   0  0  0  0  0  0
    6.8809    7.0663  -19.5942 H   0  0  0  0  0  0
  1  2  2  0  0  0
  1  3  1  0  0  0
  1 34  1  0  0  0
  2  6  1  0  0  0
  2 35  1  0  0  0
  3  5  2  0  0  0
  3 27  1  0  0  0
  4  5  1  0  0  0
  4  6  2  0  0  0
  4 18  1  0  0  0
  5 24  1  0  0  0
  6 10  1  0  0  0
  7 10  2  0  0  0
  7 23  1  0  0  0
  7 33  1  0  0  0
  8 21  1  0  0  0
  8 22  1  0  0  0
  8 36  1  0  0  0
  8 37  1  0  0  0
  9 21  1  0  0  0
  9 31  1  0  0  0
  9 38  1  0  0  0
  9 39  1  0  0  0
 10 40  1  0  0  0
 11 12  2  0  0  0
 11 14  1  0  0  0
 11 15  1  0  0  0
 12 17  1  0  0  0
 12 28  1  0  0  0
 13 28  2  0  0  0
 13 29  1  0  0  0
 13 55  1  0  0  0
 14 29  2  0  0  0
 14 31  1  0  0  0
 15 30  2  0  0  0
 15 41  1  0  0  0
 16 17  2  0  0  0
 16 18  1  0  0  0
 16 30  1  0  0  0
 17 26  1  0  0  0
 18 23  2  0  0  0
 19 20  1  0  0  0
 19 31  1  0  0  0
 19 42  1  0  0  0
 19 43  1  0  0  0
 20 22  1  0  0  0
 20 32  1  0  0  0
 20 44  1  0  0  0
 21 32  1  0  0  0
 21 45  1  0  0  0
 22 46  1  0  0  0
 22 47  1  0  0  0
 23 48  1  0  0  0
 24 25  3  0  0  0
 25 49  1  0  0  0
 32 50  1  0  0  0
 33 51  1  0  0  0
 52 55  1  0  0  0
 52 56  1  0  0  0
 52 59  1  0  0  0
 53 56  1  0  0  0
 53 57  1  0  0  0
 53 60  1  0  0  0
 54 57  1  0  0  0
 54 58  1  0  0  0
 54 61  1  0  0  0
 55 62  1  0  0  0
 55 63  1  0  0  0
 56 58  2  0  0  0
 57 64  1  0  0  0
 58 65  1  0  0  0
M  END
> <s_m_entry_id>
322

> <s_m_entry_name>
000000164.1

> <s_m_Source_Path>
/Users/zaksoul/Documents/3r_UNI/2nd_SEMESTER/BSC/FRAG_RECON/RESULTS/2

> <s_m_Source_File>
000000164.mol2

> <i_m_Source_File_Index>
1

$$$$
No_0_177
                    3D
 Schrodinger Suite 2022-4.
 65 71  0  0  1  0            999 V2000
   -5.5440    3.6010  -22.1300 C   0  0  0  0  0  0
   -5.7580    3.7840  -23.4760 C   0  0  0  0  0  0
   -4.3240    3.3250  -21.7430 C   0  0  0  0  0  0
   -3.3540    3.4170  -23.8760 C   0  0  0  0  0  0
   -3.2490    3.1810  -22.4490 C   0  0  0  0  0  0
   -4.6760    3.7030  -24.4470 C   0  0  0  0  0  0
   -3.8420    3.6920  -26.6170 C   0  0  0  0  0  0
    5.6750    2.8040  -21.0000 C   0  0  0  0  0  0
    5.6310    2.9300  -23.5540 C   0  0  0  0  0  0
   -4.8770    3.8250  -25.7920 C   0  0  0  0  0  0
    1.8610    3.5530  -23.7110 C   0  0  0  0  0  0
    1.0520    4.6800  -23.4500 C   0  0  0  0  0  0
    2.8490    5.8450  -22.7140 C   0  0  0  0  0  0
    3.2530    3.7180  -23.3490 C   0  0  0  0  0  0
    1.3160    2.4420  -24.3840 C   0  0  0  0  0  0
   -0.7970    3.2990  -24.3550 C   0  0  0  0  0  0
   -0.2670    4.5130  -23.7460 C   0  0  0  0  0  0
   -2.2360    3.3310  -24.7620 C   0  0  0  0  0  0
    3.7970    1.2110  -23.0180 C   0  0  0  0  0  0
    4.6820    0.8460  -21.8370 C   0  0  2  0  0  0
    6.3240    2.3500  -22.3260 C   0  0  2  0  0  0
    4.6420    1.8560  -20.6780 C   0  0  0  0  0  0
   -2.5070    3.4860  -26.2020 C   0  0  0  0  0  0
   -1.9350    2.7450  -21.8000 C   0  0  0  0  0  0
   -0.9310    2.3810  -21.2550 C   0  0  0  0  0  0
   -1.0990    5.5770  -23.4400 F   0  0  0  0  0  0
   -4.1680    3.0890  -20.3530 F   0  0  0  0  0  0
    1.5340    5.8330  -22.9090 N   0  0  0  0  0  0
    3.7330    4.8630  -22.8950 N   0  0  0  0  0  0
    0.0200    2.3760  -24.7350 N   0  0  0  0  0  0
    4.1550    2.6510  -23.4860 N   0  0  0  0  0  0
    6.1060    0.8810  -22.2690 N   0  0  1  0  0  0
   -3.9650    3.7000  -28.0120 O   0  0  0  0  0  0
   -6.3702    3.6853  -21.4333 H   0  0  0  0  0  0
   -6.7562    3.9967  -23.8412 H   0  0  0  0  0  0
    5.2292    3.8006  -21.1342 H   0  0  0  0  0  0
    6.4334    2.8050  -20.2032 H   0  0  0  0  0  0
    6.0487    2.4709  -24.4621 H   0  0  0  0  0  0
    5.7965    4.0169  -23.5893 H   0  0  0  0  0  0
   -5.8703    4.0279  -26.1757 H   0  0  0  0  0  0
    1.9484    1.5987  -24.6370 H   0  0  0  0  0  0
    2.7414    1.1787  -22.7102 H   0  0  0  0  0  0
    3.9746    0.5036  -23.8414 H   0  0  0  0  0  0
    4.4239   -0.1583  -21.4700 H   0  0  0  0  0  0
    7.3985    2.5853  -22.3361 H   0  0  0  0  0  0
    3.6678    2.3668  -20.6730 H   0  0  0  0  0  0
    4.8984    1.3432  -19.7392 H   0  0  0  0  0  0
   -1.7110    3.4448  -26.9367 H   0  0  0  0  0  0
   -0.0466    2.0602  -20.7753 H   0  0  0  0  0  0
    6.7172    0.3756  -21.5360 H   0  0  0  0  0  0
   -3.1078    3.5921  -28.4070 H   0  0  0  0  0  0
    4.6130    6.9860  -21.3970 N   0  0  0  0  0  0
    5.1270    9.3280  -21.3760 N   0  0  0  0  0  0
    6.9690    9.2830  -20.0770 N   0  0  0  0  0  0
    3.4180    7.1760  -22.2350 C   0  0  0  0  0  0
    5.3540    8.0450  -21.0330 C   0  0  0  0  0  0
    6.1010   10.0360  -20.7930 C   0  0  0  0  0  0
    6.5370    8.0410  -20.2050 C   0  0  0  0  0  0
    4.8801    6.0398  -21.0899 H   0  0  0  0  0  0
    4.3229    9.5660  -21.9741 H   0  0  0  0  0  0
    7.7567    9.7308  -19.5872 H   0  0  0  0  0  0
    3.6769    7.7978  -23.1047 H   0  0  0  0  0  0
    2.6508    7.7172  -21.6618 H   0  0  0  0  0  0
    6.1390   11.1119  -20.9200 H   0  0  0  0  0  0
    7.0678    7.2303  -19.7192 H   0  0  0  0  0  0
  1  2  2  0  0  0
  1  3  1  0  0  0
  1 34  1  0  0  0
  2  6  1  0  0  0
  2 35  1  0  0  0
  3  5  2  0  0  0
  3 27  1  0  0  0
  4  5  1  0  0  0
  4  6  2  0  0  0
  4 18  1  0  0  0
  5 24  1  0  0  0
  6 10  1  0  0  0
  7 10  2  0  0  0
  7 23  1  0  0  0
  7 33  1  0  0  0
  8 21  1  0  0  0
  8 22  1  0  0  0
  8 36  1  0  0  0
  8 37  1  0  0  0
  9 21  1  0  0  0
  9 31  1  0  0  0
  9 38  1  0  0  0
  9 39  1  0  0  0
 10 40  1  0  0  0
 11 12  2  0  0  0
 11 14  1  0  0  0
 11 15  1  0  0  0
 12 17  1  0  0  0
 12 28  1  0  0  0
 13 28  2  0  0  0
 13 29  1  0  0  0
 13 55  1  0  0  0
 14 29  2  0  0  0
 14 31  1  0  0  0
 15 30  2  0  0  0
 15 41  1  0  0  0
 16 17  2  0  0  0
 16 18  1  0  0  0
 16 30  1  0  0  0
 17 26  1  0  0  0
 18 23  2  0  0  0
 19 20  1  0  0  0
 19 31  1  0  0  0
 19 42  1  0  0  0
 19 43  1  0  0  0
 20 22  1  0  0  0
 20 32  1  0  0  0
 20 44  1  0  0  0
 21 32  1  0  0  0
 21 45  1  0  0  0
 22 46  1  0  0  0
 22 47  1  0  0  0
 23 48  1  0  0  0
 24 25  3  0  0  0
 25 49  1  0  0  0
 32 50  1  0  0  0
 33 51  1  0  0  0
 52 55  1  0  0  0
 52 56  1  0  0  0
 52 59  1  0  0  0
 53 56  1  0  0  0
 53 57  1  0  0  0
 53 60  1  0  0  0
 54 57  1  0  0  0
 54 58  1  0  0  0
 54 61  1  0  0  0
 55 62  1  0  0  0
 55 63  1  0  0  0
 56 58  2  0  0  0
 57 64  1  0  0  0
 58 65  1  0  0  0
M  END
> <s_m_entry_id>
323

> <s_m_entry_name>
000000165.1

> <s_m_Source_Path>
/Users/zaksoul/Documents/3r_UNI/2nd_SEMESTER/BSC/FRAG_RECON/RESULTS/2

> <s_m_Source_File>
000000165.mol2

> <i_m_Source_File_Index>
1

$$$$
No_0_178
                    3D
 Schrodinger Suite 2022-4.
 65 71  0  0  1  0            999 V2000
   -5.2330    3.4770  -21.9690 C   0  0  0  0  0  0
   -5.4970    3.6700  -23.3040 C   0  0  0  0  0  0
   -3.9940    3.2330  -21.6250 C   0  0  0  0  0  0
   -3.0970    3.3780  -23.7870 C   0  0  0  0  0  0
   -2.9390    3.1270  -22.3680 C   0  0  0  0  0  0
   -4.4450    3.6320  -24.3110 C   0  0  0  0  0  0
   -3.6840    3.6710  -26.5070 C   0  0  0  0  0  0
    6.0350    2.9930  -21.2150 C   0  0  0  0  0  0
    5.9030    3.1470  -23.7640 C   0  0  0  0  0  0
   -4.6930    3.7640  -25.6470 C   0  0  0  0  0  0
    2.1140    3.6630  -23.7900 C   0  0  0  0  0  0
    1.2830    4.7630  -23.4880 C   0  0  0  0  0  0
    3.0690    5.9700  -22.7960 C   0  0  0  0  0  0
    3.5120    3.8640  -23.4720 C   0  0  0  0  0  0
    1.5790    2.5440  -24.4590 C   0  0  0  0  0  0
   -0.5550    3.3390  -24.3510 C   0  0  0  0  0  0
   -0.0410    4.5610  -23.7440 C   0  0  0  0  0  0
   -2.0070    3.3340  -24.7100 C   0  0  0  0  0  0
    4.1380    1.3700  -23.1910 C   0  0  0  0  0  0
    5.0710    1.0160  -22.0430 C   0  0  2  0  0  0
    6.6520    2.5730  -22.5670 C   0  0  2  0  0  0
    5.0410    2.0110  -20.8710 C   0  0  0  0  0  0
   -2.3290    3.4980  -26.1380 C   0  0  0  0  0  0
   -1.5930    2.7230  -21.7670 C   0  0  0  0  0  0
   -0.5610    2.3810  -21.2600 C   0  0  0  0  0  0
   -0.8920    5.5970  -23.3970 F   0  0  0  0  0  0
   -3.7860    2.9850  -20.2440 F   0  0  0  0  0  0
    1.7480    5.9230  -22.9490 N   0  0  0  0  0  0
    3.9740    5.0160  -23.0190 N   0  0  0  0  0  0
    0.2750    2.4450  -24.7690 N   0  0  0  0  0  0
    4.4390    2.8250  -23.6510 N   0  0  0  0  0  0
    6.4790    1.0980  -22.5210 N   0  0  1  0  0  0
   -3.8520    3.6910  -27.8970 O   0  0  0  0  0  0
   -6.0377    3.5302  -21.2446 H   0  0  0  0  0  0
   -6.5120    3.8588  -23.6343 H   0  0  0  0  0  0
    5.5563    3.9777  -21.3210 H   0  0  0  0  0  0
    6.8188    3.0061  -20.4433 H   0  0  0  0  0  0
    6.3046    2.7101  -24.6902 H   0  0  0  0  0  0
    6.0373    4.2384  -23.7913 H   0  0  0  0  0  0
   -5.7041    3.9415  -25.9951 H   0  0  0  0  0  0
    2.2263    1.7221  -24.7430 H   0  0  0  0  0  0
    3.0947    1.3024  -22.8490 H   0  0  0  0  0  0
    4.3086    0.6777  -24.0286 H   0  0  0  0  0  0
    4.8541    0.0002  -21.6809 H   0  0  0  0  0  0
    7.7185    2.8394  -22.6084 H   0  0  0  0  0  0
    4.0533    2.4932  -20.8276 H   0  0  0  0  0  0
    5.3428    1.4952  -19.9475 H   0  0  0  0  0  0
   -1.5570    3.4890  -26.8989 H   0  0  0  0  0  0
    0.3474    2.0802  -20.8133 H   0  0  0  0  0  0
    7.1283    0.6017  -21.8150 H   0  0  0  0  0  0
   -3.0052    3.6128  -28.3204 H   0  0  0  0  0  0
    5.0010    7.1930  -21.8390 N   0  0  0  0  0  0
    5.2780    9.5690  -21.6660 N   0  0  0  0  0  0
    7.3930    9.6320  -20.8890 N   0  0  0  0  0  0
    3.6150    7.3120  -22.3200 C   0  0  0  0  0  0
    5.7080    8.2970  -21.5490 C   0  0  0  0  0  0
    6.3000   10.3350  -21.2670 C   0  0  0  0  0  0
    7.0630    8.3630  -21.0530 C   0  0  0  0  0  0
    5.4282    6.2626  -21.7260 H   0  0  0  0  0  0
    4.3260    9.7610  -22.0090 H   0  0  0  0  0  0
    8.2360   10.1260  -20.5630 H   0  0  0  0  0  0
    3.5750    8.0382  -23.1452 H   0  0  0  0  0  0
    2.9791    7.6989  -21.5101 H   0  0  0  0  0  0
    6.2000   11.4144  -21.2680 H   0  0  0  0  0  0
    7.7770    7.5820  -20.8180 H   0  0  0  0  0  0
  1  2  2  0  0  0
  1  3  1  0  0  0
  1 34  1  0  0  0
  2  6  1  0  0  0
  2 35  1  0  0  0
  3  5  2  0  0  0
  3 27  1  0  0  0
  4  5  1  0  0  0
  4  6  2  0  0  0
  4 18  1  0  0  0
  5 24  1  0  0  0
  6 10  1  0  0  0
  7 10  2  0  0  0
  7 23  1  0  0  0
  7 33  1  0  0  0
  8 21  1  0  0  0
  8 22  1  0  0  0
  8 36  1  0  0  0
  8 37  1  0  0  0
  9 21  1  0  0  0
  9 31  1  0  0  0
  9 38  1  0  0  0
  9 39  1  0  0  0
 10 40  1  0  0  0
 11 12  2  0  0  0
 11 14  1  0  0  0
 11 15  1  0  0  0
 12 17  1  0  0  0
 12 28  1  0  0  0
 13 28  2  0  0  0
 13 29  1  0  0  0
 13 55  1  0  0  0
 14 29  2  0  0  0
 14 31  1  0  0  0
 15 30  2  0  0  0
 15 41  1  0  0  0
 16 17  2  0  0  0
 16 18  1  0  0  0
 16 30  1  0  0  0
 17 26  1  0  0  0
 18 23  2  0  0  0
 19 20  1  0  0  0
 19 31  1  0  0  0
 19 42  1  0  0  0
 19 43  1  0  0  0
 20 22  1  0  0  0
 20 32  1  0  0  0
 20 44  1  0  0  0
 21 32  1  0  0  0
 21 45  1  0  0  0
 22 46  1  0  0  0
 22 47  1  0  0  0
 23 48  1  0  0  0
 24 25  3  0  0  0
 25 49  1  0  0  0
 32 50  1  0  0  0
 33 51  1  0  0  0
 52 55  1  0  0  0
 52 56  1  0  0  0
 52 59  1  0  0  0
 53 56  1  0  0  0
 53 57  1  0  0  0
 53 60  1  0  0  0
 54 57  1  0  0  0
 54 58  1  0  0  0
 54 61  1  0  0  0
 55 62  1  0  0  0
 55 63  1  0  0  0
 56 58  2  0  0  0
 57 64  1  0  0  0
 58 65  1  0  0  0
M  END
> <s_m_entry_id>
324

> <s_m_entry_name>
000000166.1

> <s_m_Source_Path>
/Users/zaksoul/Documents/3r_UNI/2nd_SEMESTER/BSC/FRAG_RECON/RESULTS/2

> <s_m_Source_File>
000000166.mol2

> <i_m_Source_File_Index>
1

$$$$
No_0_179
                    3D
 Schrodinger Suite 2022-4.
 65 71  0  0  1  0            999 V2000
   -5.4270    3.3410  -21.8910 C   0  0  0  0  0  0
   -5.6850    3.5310  -23.2280 C   0  0  0  0  0  0
   -4.1920    3.0860  -21.5420 C   0  0  0  0  0  0
   -3.2860    3.2120  -23.7020 C   0  0  0  0  0  0
   -3.1350    2.9670  -22.2810 C   0  0  0  0  0  0
   -4.6300    3.4770  -24.2310 C   0  0  0  0  0  0
   -3.8610    3.5000  -26.4250 C   0  0  0  0  0  0
    5.8330    2.7480  -21.0970 C   0  0  0  0  0  0
    5.7110    2.8920  -23.6480 C   0  0  0  0  0  0
   -4.8730    3.6060  -25.5680 C   0  0  0  0  0  0
    1.9270    3.4460  -23.6890 C   0  0  0  0  0  0
    1.1060    4.5550  -23.3940 C   0  0  0  0  0  0
    2.9010    5.7480  -22.7020 C   0  0  0  0  0  0
    3.3260    3.6340  -23.3660 C   0  0  0  0  0  0
    1.3840    2.3300  -24.3540 C   0  0  0  0  0  0
   -0.7430    3.1460  -24.2570 C   0  0  0  0  0  0
   -0.2180    4.3650  -23.6530 C   0  0  0  0  0  0
   -2.1940    3.1540  -24.6210 C   0  0  0  0  0  0
    3.9260    1.1350  -23.0730 C   0  0  0  0  0  0
    4.8520    0.7770  -21.9200 C   0  0  2  0  0  0
    6.4510    2.3160  -22.4450 C   0  0  2  0  0  0
    4.8280    1.7780  -20.7530 C   0  0  0  0  0  0
   -2.5100    3.3150  -26.0500 C   0  0  0  0  0  0
   -1.7950    2.5510  -21.6740 C   0  0  0  0  0  0
   -0.7680    2.2010  -21.1620 C   0  0  0  0  0  0
   -1.0610    5.4110  -23.3140 F   0  0  0  0  0  0
   -3.9900    2.8420  -20.1590 F   0  0  0  0  0  0
    1.5810    5.7130  -22.8580 N   0  0  0  0  0  0
    3.7980    4.7840  -22.9170 N   0  0  0  0  0  0
    0.0790    2.2420  -24.6680 N   0  0  0  0  0  0
    4.2440    2.5850  -23.5390 N   0  0  0  0  0  0
    6.2620    0.8430  -22.3940 N   0  0  1  0  0  0
   -4.0250    3.5160  -27.8150 O   0  0  0  0  0  0
   -6.2337    3.4042  -21.1696 H   0  0  0  0  0  0
   -6.6972    3.7278  -23.5624 H   0  0  0  0  0  0
    5.3647    3.7370  -21.2090 H   0  0  0  0  0  0
    6.6143    2.7561  -20.3227 H   0  0  0  0  0  0
    6.1107    2.4479  -24.5716 H   0  0  0  0  0  0
    5.8563    3.9819  -23.6793 H   0  0  0  0  0  0
   -5.8810    3.7927  -25.9204 H   0  0  0  0  0  0
    2.0232    1.5001  -24.6330 H   0  0  0  0  0  0
    2.8811    1.0795  -22.7338 H   0  0  0  0  0  0
    4.0926    0.4373  -23.9070 H   0  0  0  0  0  0
    4.6239   -0.2352  -21.5547 H   0  0  0  0  0  0
    7.5199    2.5724  -22.4854 H   0  0  0  0  0  0
    3.8447    2.2696  -20.7146 H   0  0  0  0  0  0
    5.1214    1.2628  -19.8265 H   0  0  0  0  0  0
   -1.7356    3.2949  -26.8083 H   0  0  0  0  0  0
    0.1361    1.8940  -20.7109 H   0  0  0  0  0  0
    6.9046    0.3437  -21.6840 H   0  0  0  0  0  0
   -3.1779    3.4269  -28.2356 H   0  0  0  0  0  0
    4.9250    7.1360  -22.3500 N   0  0  0  0  0  0
    5.0130    9.4800  -21.8530 N   0  0  0  0  0  0
    7.2440    9.7890  -21.9540 N   0  0  0  0  0  0
    3.4600    7.0860  -22.2290 C   0  0  0  0  0  0
    5.5770    8.2930  -22.1520 C   0  0  0  0  0  0
    6.0280   10.3450  -21.7420 C   0  0  0  0  0  0
    7.0020    8.5160  -22.2130 C   0  0  0  0  0  0
    5.4511    6.2828  -22.5870 H   0  0  0  0  0  0
    3.9899    9.5550  -21.7610 H   0  0  0  0  0  0
    8.0937   10.3678  -21.8910 H   0  0  0  0  0  0
    3.0148    7.8983  -22.8222 H   0  0  0  0  0  0
    3.1740    7.2520  -21.1799 H   0  0  0  0  0  0
    5.8309   11.3833  -21.5009 H   0  0  0  0  0  0
    7.8230    7.8400  -22.4230 H   0  0  0  0  0  0
  1  2  2  0  0  0
  1  3  1  0  0  0
  1 34  1  0  0  0
  2  6  1  0  0  0
  2 35  1  0  0  0
  3  5  2  0  0  0
  3 27  1  0  0  0
  4  5  1  0  0  0
  4  6  2  0  0  0
  4 18  1  0  0  0
  5 24  1  0  0  0
  6 10  1  0  0  0
  7 10  2  0  0  0
  7 23  1  0  0  0
  7 33  1  0  0  0
  8 21  1  0  0  0
  8 22  1  0  0  0
  8 36  1  0  0  0
  8 37  1  0  0  0
  9 21  1  0  0  0
  9 31  1  0  0  0
  9 38  1  0  0  0
  9 39  1  0  0  0
 10 40  1  0  0  0
 11 12  2  0  0  0
 11 14  1  0  0  0
 11 15  1  0  0  0
 12 17  1  0  0  0
 12 28  1  0  0  0
 13 28  2  0  0  0
 13 29  1  0  0  0
 13 55  1  0  0  0
 14 29  2  0  0  0
 14 31  1  0  0  0
 15 30  2  0  0  0
 15 41  1  0  0  0
 16 17  2  0  0  0
 16 18  1  0  0  0
 16 30  1  0  0  0
 17 26  1  0  0  0
 18 23  2  0  0  0
 19 20  1  0  0  0
 19 31  1  0  0  0
 19 42  1  0  0  0
 19 43  1  0  0  0
 20 22  1  0  0  0
 20 32  1  0  0  0
 20 44  1  0  0  0
 21 32  1  0  0  0
 21 45  1  0  0  0
 22 46  1  0  0  0
 22 47  1  0  0  0
 23 48  1  0  0  0
 24 25  3  0  0  0
 25 49  1  0  0  0
 32 50  1  0  0  0
 33 51  1  0  0  0
 52 55  1  0  0  0
 52 56  1  0  0  0
 52 59  1  0  0  0
 53 56  1  0  0  0
 53 57  1  0  0  0
 53 60  1  0  0  0
 54 57  1  0  0  0
 54 58  1  0  0  0
 54 61  1  0  0  0
 55 62  1  0  0  0
 55 63  1  0  0  0
 56 58  2  0  0  0
 57 64  1  0  0  0
 58 65  1  0  0  0
M  END
> <s_m_entry_id>
325

> <s_m_entry_name>
000000167.1

> <s_m_Source_Path>
/Users/zaksoul/Documents/3r_UNI/2nd_SEMESTER/BSC/FRAG_RECON/RESULTS/2

> <s_m_Source_File>
000000167.mol2

> <i_m_Source_File_Index>
1

$$$$
No_0_180
                    3D
 Schrodinger Suite 2022-4.
 65 71  0  0  1  0            999 V2000
   -5.3410    3.5590  -21.8790 C   0  0  0  0  0  0
   -5.6040    3.7580  -23.2140 C   0  0  0  0  0  0
   -4.1050    3.2940  -21.5380 C   0  0  0  0  0  0
   -3.2100    3.4270  -23.7020 C   0  0  0  0  0  0
   -3.0530    3.1720  -22.2830 C   0  0  0  0  0  0
   -4.5550    3.7030  -24.2230 C   0  0  0  0  0  0
   -3.7970    3.7330  -26.4200 C   0  0  0  0  0  0
    5.9190    2.8890  -21.1470 C   0  0  0  0  0  0
    5.7850    3.0480  -23.6950 C   0  0  0  0  0  0
   -4.8030    3.8410  -25.5580 C   0  0  0  0  0  0
    2.0050    3.6260  -23.7140 C   0  0  0  0  0  0
    1.1920    4.7390  -23.4090 C   0  0  0  0  0  0
    2.9990    5.9160  -22.7190 C   0  0  0  0  0  0
    3.4060    3.8040  -23.3980 C   0  0  0  0  0  0
    1.4510    2.5170  -24.3830 C   0  0  0  0  0  0
   -0.6700    3.3470  -24.2700 C   0  0  0  0  0  0
   -0.1350    4.5590  -23.6630 C   0  0  0  0  0  0
   -2.1230    3.3670  -24.6260 C   0  0  0  0  0  0
    3.9920    1.2990  -23.1210 C   0  0  0  0  0  0
    4.9210    0.9290  -21.9750 C   0  0  2  0  0  0
    6.5270    2.4600  -22.5000 C   0  0  2  0  0  0
    4.9090    1.9230  -20.8020 C   0  0  0  0  0  0
   -2.4450    3.5380  -26.0540 C   0  0  0  0  0  0
   -1.7130    2.7440  -21.6850 C   0  0  0  0  0  0
   -0.6860    2.3850  -21.1800 C   0  0  0  0  0  0
   -0.9690    5.6090  -23.3130 F   0  0  0  0  0  0
   -3.8990    3.0410  -20.1580 F   0  0  0  0  0  0
    1.6780    5.8910  -22.8690 N   0  0  0  0  0  0
    3.8880    4.9480  -22.9440 N   0  0  0  0  0  0
    0.1440    2.4400  -24.6910 N   0  0  0  0  0  0
    4.3160    2.7500  -23.5800 N   0  0  0  0  0  0
    6.3290    0.9880  -22.4560 N   0  0  1  0  0  0
   -3.9670    3.7580  -27.8100 O   0  0  0  0  0  0
   -6.1438    3.6232  -21.1535 H   0  0  0  0  0  0
   -6.6166    3.9627  -23.5422 H   0  0  0  0  0  0
    5.4565    3.8816  -21.2510 H   0  0  0  0  0  0
    6.7038    2.8880  -20.3763 H   0  0  0  0  0  0
    6.1773    2.6063  -24.6229 H   0  0  0  0  0  0
    5.9364    4.1372  -23.7212 H   0  0  0  0  0  0
   -5.8114    4.0367  -25.9042 H   0  0  0  0  0  0
    2.0836    1.6846  -24.6692 H   0  0  0  0  0  0
    2.9484    1.2485  -22.7768 H   0  0  0  0  0  0
    4.1495    0.6053  -23.9601 H   0  0  0  0  0  0
    4.6888   -0.0836  -21.6136 H   0  0  0  0  0  0
    7.5975    2.7092  -22.5434 H   0  0  0  0  0  0
    3.9296    2.4218  -20.7566 H   0  0  0  0  0  0
    5.2046    1.4014  -19.8798 H   0  0  0  0  0  0
   -1.6741    3.5169  -26.8158 H   0  0  0  0  0  0
    0.2184    2.0689  -20.7358 H   0  0  0  0  0  0
    6.9716    0.4812  -21.7513 H   0  0  0  0  0  0
   -3.1223    3.6659  -28.2348 H   0  0  0  0  0  0
    4.9580    7.4350  -22.6870 N   0  0  0  0  0  0
    5.0140    9.7220  -21.9690 N   0  0  0  0  0  0
    7.1350   10.2300  -22.5400 N   0  0  0  0  0  0
    3.5680    7.2480  -22.2420 C   0  0  0  0  0  0
    5.5640    8.6210  -22.5170 C   0  0  0  0  0  0
    5.9710   10.6570  -21.9970 C   0  0  0  0  0  0
    6.9190    8.9710  -22.8750 C   0  0  0  0  0  0
    5.4659    6.6561  -23.1299 H   0  0  0  0  0  0
    4.0389    9.7000  -21.6380 H   0  0  0  0  0  0
    7.9377   10.8717  -22.6090 H   0  0  0  0  0  0
    2.9465    8.0707  -22.6253 H   0  0  0  0  0  0
    3.5270    7.2910  -21.1436 H   0  0  0  0  0  0
    5.7720   11.6479  -21.6050 H   0  0  0  0  0  0
    7.7076    8.3903  -23.3398 H   0  0  0  0  0  0
  1  2  2  0  0  0
  1  3  1  0  0  0
  1 34  1  0  0  0
  2  6  1  0  0  0
  2 35  1  0  0  0
  3  5  2  0  0  0
  3 27  1  0  0  0
  4  5  1  0  0  0
  4  6  2  0  0  0
  4 18  1  0  0  0
  5 24  1  0  0  0
  6 10  1  0  0  0
  7 10  2  0  0  0
  7 23  1  0  0  0
  7 33  1  0  0  0
  8 21  1  0  0  0
  8 22  1  0  0  0
  8 36  1  0  0  0
  8 37  1  0  0  0
  9 21  1  0  0  0
  9 31  1  0  0  0
  9 38  1  0  0  0
  9 39  1  0  0  0
 10 40  1  0  0  0
 11 12  2  0  0  0
 11 14  1  0  0  0
 11 15  1  0  0  0
 12 17  1  0  0  0
 12 28  1  0  0  0
 13 28  2  0  0  0
 13 29  1  0  0  0
 13 55  1  0  0  0
 14 29  2  0  0  0
 14 31  1  0  0  0
 15 30  2  0  0  0
 15 41  1  0  0  0
 16 17  2  0  0  0
 16 18  1  0  0  0
 16 30  1  0  0  0
 17 26  1  0  0  0
 18 23  2  0  0  0
 19 20  1  0  0  0
 19 31  1  0  0  0
 19 42  1  0  0  0
 19 43  1  0  0  0
 20 22  1  0  0  0
 20 32  1  0  0  0
 20 44  1  0  0  0
 21 32  1  0  0  0
 21 45  1  0  0  0
 22 46  1  0  0  0
 22 47  1  0  0  0
 23 48  1  0  0  0
 24 25  3  0  0  0
 25 49  1  0  0  0
 32 50  1  0  0  0
 33 51  1  0  0  0
 52 55  1  0  0  0
 52 56  1  0  0  0
 52 59  1  0  0  0
 53 56  1  0  0  0
 53 57  1  0  0  0
 53 60  1  0  0  0
 54 57  1  0  0  0
 54 58  1  0  0  0
 54 61  1  0  0  0
 55 62  1  0  0  0
 55 63  1  0  0  0
 56 58  2  0  0  0
 57 64  1  0  0  0
 58 65  1  0  0  0
M  END
> <s_m_entry_id>
326

> <s_m_entry_name>
000000168.1

> <s_m_Source_Path>
/Users/zaksoul/Documents/3r_UNI/2nd_SEMESTER/BSC/FRAG_RECON/RESULTS/2

> <s_m_Source_File>
000000168.mol2

> <i_m_Source_File_Index>
1

$$$$
No_0_181
                    3D
 Schrodinger Suite 2022-4.
 65 71  0  0  1  0            999 V2000
   -5.3110    3.4060  -21.9370 C   0  0  0  0  0  0
   -5.5460    3.6040  -23.2770 C   0  0  0  0  0  0
   -4.0760    3.1900  -21.5630 C   0  0  0  0  0  0
   -3.1280    3.3740  -23.7010 C   0  0  0  0  0  0
   -2.9990    3.1170  -22.2790 C   0  0  0  0  0  0
   -4.4680    3.5990  -24.2570 C   0  0  0  0  0  0
   -3.6510    3.6740  -26.4320 C   0  0  0  0  0  0
    5.9430    3.1950  -20.8960 C   0  0  0  0  0  0
    5.8720    3.3660  -23.4470 C   0  0  0  0  0  0
   -4.6850    3.7350  -25.5980 C   0  0  0  0  0  0
    2.0730    3.7880  -23.5670 C   0  0  0  0  0  0
    1.2070    4.8650  -23.2790 C   0  0  0  0  0  0
    2.9440    6.1110  -22.5320 C   0  0  0  0  0  0
    3.4570    4.0210  -23.2110 C   0  0  0  0  0  0
    1.5840    2.6620  -24.2570 C   0  0  0  0  0  0
   -0.5720    3.4030  -24.1990 C   0  0  0  0  0  0
   -0.1040    4.6320  -23.5700 C   0  0  0  0  0  0
   -2.0130    3.3650  -24.5950 C   0  0  0  0  0  0
    4.1380    1.5410  -22.9320 C   0  0  0  0  0  0
    5.0500    1.2020  -21.7630 C   0  0  2  0  0  0
    6.6040    2.8020  -22.2350 C   0  0  2  0  0  0
    4.9650    2.1870  -20.5850 C   0  0  0  0  0  0
   -2.3030    3.5320  -26.0300 C   0  0  0  0  0  0
   -1.6600    2.7410  -21.6470 C   0  0  0  0  0  0
   -0.6330    2.4210  -21.1160 C   0  0  0  0  0  0
   -0.9900    5.6440  -23.2370 F   0  0  0  0  0  0
   -3.8970    2.9370  -20.1790 F   0  0  0  0  0  0
    1.6300    6.0320  -22.7190 N   0  0  0  0  0  0
    3.8780    5.1810  -22.7380 N   0  0  0  0  0  0
    0.2910    2.5330  -24.6020 N   0  0  0  0  0  0
    4.4140    3.0070  -23.3740 N   0  0  0  0  0  0
    6.4660    1.3220  -22.2040 N   0  0  1  0  0  0
   -3.7850    3.7010  -27.8260 O   0  0  0  0  0  0
   -6.1351    3.4331  -21.2333 H   0  0  0  0  0  0
   -6.5567    3.7688  -23.6326 H   0  0  0  0  0  0
    5.4428    4.1683  -21.0079 H   0  0  0  0  0  0
    6.7063    3.2213  -20.1044 H   0  0  0  0  0  0
    6.3078    2.9473  -24.3661 H   0  0  0  0  0  0
    5.9789    4.4607  -23.4621 H   0  0  0  0  0  0
   -5.6910    3.8906  -25.9705 H   0  0  0  0  0  0
    2.2586    1.8589  -24.5310 H   0  0  0  0  0  0
    3.0880    1.4462  -22.6183 H   0  0  0  0  0  0
    4.3468    0.8601  -23.7703 H   0  0  0  0  0  0
    4.8493    0.1783  -21.4140 H   0  0  0  0  0  0
    7.6643    3.0946  -22.2481 H   0  0  0  0  0  0
    3.9646    2.6439  -20.5648 H   0  0  0  0  0  0
    5.2558    1.6710  -19.6581 H   0  0  0  0  0  0
   -1.5119    3.5481  -26.7709 H   0  0  0  0  0  0
    0.2707    2.1391  -20.6481 H   0  0  0  0  0  0
    7.1097    0.8365  -21.4854 H   0  0  0  0  0  0
   -2.9258    3.6476  -28.2279 H   0  0  0  0  0  0
    4.7190    7.8370  -22.6650 N   0  0  0  0  0  0
    4.6570   10.0580  -21.7660 N   0  0  0  0  0  0
    6.5970   10.8430  -22.6050 N   0  0  0  0  0  0
    3.4450    7.4610  -22.0320 C   0  0  0  0  0  0
    5.2210    9.0680  -22.4850 C   0  0  0  0  0  0
    5.4980   11.0960  -21.8560 C   0  0  0  0  0  0
    6.4590    9.5950  -23.0130 C   0  0  0  0  0  0
    5.2249    7.1532  -23.2458 H   0  0  0  0  0  0
    3.7544    9.9029  -21.2947 H   0  0  0  0  0  0
    7.3087   11.5756  -22.7379 H   0  0  0  0  0  0
    2.6903    8.2327  -22.2439 H   0  0  0  0  0  0
    3.5761    7.4220  -20.9405 H   0  0  0  0  0  0
    5.2650   12.0281  -21.3540 H   0  0  0  0  0  0
    7.2182    9.1419  -23.6402 H   0  0  0  0  0  0
  1  2  2  0  0  0
  1  3  1  0  0  0
  1 34  1  0  0  0
  2  6  1  0  0  0
  2 35  1  0  0  0
  3  5  2  0  0  0
  3 27  1  0  0  0
  4  5  1  0  0  0
  4  6  2  0  0  0
  4 18  1  0  0  0
  5 24  1  0  0  0
  6 10  1  0  0  0
  7 10  2  0  0  0
  7 23  1  0  0  0
  7 33  1  0  0  0
  8 21  1  0  0  0
  8 22  1  0  0  0
  8 36  1  0  0  0
  8 37  1  0  0  0
  9 21  1  0  0  0
  9 31  1  0  0  0
  9 38  1  0  0  0
  9 39  1  0  0  0
 10 40  1  0  0  0
 11 12  2  0  0  0
 11 14  1  0  0  0
 11 15  1  0  0  0
 12 17  1  0  0  0
 12 28  1  0  0  0
 13 28  2  0  0  0
 13 29  1  0  0  0
 13 55  1  0  0  0
 14 29  2  0  0  0
 14 31  1  0  0  0
 15 30  2  0  0  0
 15 41  1  0  0  0
 16 17  2  0  0  0
 16 18  1  0  0  0
 16 30  1  0  0  0
 17 26  1  0  0  0
 18 23  2  0  0  0
 19 20  1  0  0  0
 19 31  1  0  0  0
 19 42  1  0  0  0
 19 43  1  0  0  0
 20 22  1  0  0  0
 20 32  1  0  0  0
 20 44  1  0  0  0
 21 32  1  0  0  0
 21 45  1  0  0  0
 22 46  1  0  0  0
 22 47  1  0  0  0
 23 48  1  0  0  0
 24 25  3  0  0  0
 25 49  1  0  0  0
 32 50  1  0  0  0
 33 51  1  0  0  0
 52 55  1  0  0  0
 52 56  1  0  0  0
 52 59  1  0  0  0
 53 56  1  0  0  0
 53 57  1  0  0  0
 53 60  1  0  0  0
 54 57  1  0  0  0
 54 58  1  0  0  0
 54 61  1  0  0  0
 55 62  1  0  0  0
 55 63  1  0  0  0
 56 58  2  0  0  0
 57 64  1  0  0  0
 58 65  1  0  0  0
M  END
> <s_m_entry_id>
327

> <s_m_entry_name>
000000169.1

> <s_m_Source_Path>
/Users/zaksoul/Documents/3r_UNI/2nd_SEMESTER/BSC/FRAG_RECON/RESULTS/2

> <s_m_Source_File>
000000169.mol2

> <i_m_Source_File_Index>
1

$$$$
No_0_182
                    3D
 Schrodinger Suite 2022-4.
 65 71  0  0  1  0            999 V2000
   -5.3970    3.2980  -21.5820 C   0  0  0  0  0  0
   -5.6710    3.5410  -22.9070 C   0  0  0  0  0  0
   -4.1540    3.0500  -21.2550 C   0  0  0  0  0  0
   -3.2720    3.2860  -23.4150 C   0  0  0  0  0  0
   -3.1030    2.9820  -22.0070 C   0  0  0  0  0  0
   -4.6250    3.5500  -23.9210 C   0  0  0  0  0  0
   -3.8780    3.6810  -26.1180 C   0  0  0  0  0  0
    5.8790    2.8710  -20.9140 C   0  0  0  0  0  0
    5.7300    3.1230  -23.4550 C   0  0  0  0  0  0
   -4.8830    3.7320  -25.2490 C   0  0  0  0  0  0
    1.9370    3.6110  -23.4380 C   0  0  0  0  0  0
    1.0990    4.6920  -23.0880 C   0  0  0  0  0  0
    2.8810    5.8850  -22.3610 C   0  0  0  0  0  0
    3.3350    3.8100  -23.1210 C   0  0  0  0  0  0
    1.4060    2.5150  -24.1470 C   0  0  0  0  0  0
   -0.7330    3.2890  -23.9950 C   0  0  0  0  0  0
   -0.2240    4.4900  -23.3440 C   0  0  0  0  0  0
   -2.1870    3.2870  -24.3450 C   0  0  0  0  0  0
    3.9810    1.3110  -22.9410 C   0  0  0  0  0  0
    4.9240    0.9200  -21.8130 C   0  0  2  0  0  0
    6.4910    2.5090  -22.2850 C   0  0  2  0  0  0
    4.8940    1.8690  -20.6030 C   0  0  0  0  0  0
   -2.5200    3.5040  -25.7640 C   0  0  0  0  0  0
   -1.7500    2.5640  -21.4310 C   0  0  0  0  0  0
   -0.7130    2.2110  -20.9440 C   0  0  0  0  0  0
   -1.0810    5.5050  -22.9520 F   0  0  0  0  0  0
   -3.9360    2.7500  -19.8860 F   0  0  0  0  0  0
    1.5600    5.8330  -22.5070 N   0  0  0  0  0  0
    3.7910    4.9470  -22.6260 N   0  0  0  0  0  0
    0.1000    2.4180  -24.4520 N   0  0  0  0  0  0
    4.2690    2.7850  -23.3460 N   0  0  0  0  0  0
    6.3280    1.0310  -22.2960 N   0  0  1  0  0  0
   -4.0550    3.7540  -27.5050 O   0  0  0  0  0  0
   -6.1977    3.3171  -20.8515 H   0  0  0  0  0  0
   -6.6896    3.7347  -23.2231 H   0  0  0  0  0  0
    5.3924    3.8553  -20.9796 H   0  0  0  0  0  0
    6.6673    2.8599  -20.1469 H   0  0  0  0  0  0
    6.1289    2.7261  -24.4002 H   0  0  0  0  0  0
    5.8551    4.2158  -23.4399 H   0  0  0  0  0  0
   -5.8973    3.9158  -25.5844 H   0  0  0  0  0  0
    2.0575    1.7099  -24.4672 H   0  0  0  0  0  0
    2.9406    1.2232  -22.5949 H   0  0  0  0  0  0
    4.1516    0.6537  -23.8063 H   0  0  0  0  0  0
    4.7171   -0.1106  -21.4890 H   0  0  0  0  0  0
    7.5552    2.7846  -22.3234 H   0  0  0  0  0  0
    3.9029    2.3413  -20.5354 H   0  0  0  0  0  0
    5.2048    1.3200  -19.7019 H   0  0  0  0  0  0
   -1.7522    3.5301  -26.5288 H   0  0  0  0  0  0
    0.2006    1.9001  -20.5152 H   0  0  0  0  0  0
    6.9858    0.5133  -21.6136 H   0  0  0  0  0  0
   -3.2103    3.6986  -27.9362 H   0  0  0  0  0  0
    4.3560    7.8310  -22.7860 N   0  0  0  0  0  0
    4.4460    9.8860  -21.5540 N   0  0  0  0  0  0
    5.8990   11.0230  -22.8500 N   0  0  0  0  0  0
    3.4200    7.2110  -21.8350 C   0  0  0  0  0  0
    4.7940    9.0830  -22.5790 C   0  0  0  0  0  0
    5.1180   11.0270  -21.7440 C   0  0  0  0  0  0
    5.7220    9.8320  -23.3940 C   0  0  0  0  0  0
    4.6759    7.3032  -23.6106 H   0  0  0  0  0  0
    3.7826    9.5513  -20.8407 H   0  0  0  0  0  0
    6.4592   11.8542  -23.0871 H   0  0  0  0  0  0
    2.5820    7.8980  -21.6460 H   0  0  0  0  0  0
    3.9301    7.0440  -20.8748 H   0  0  0  0  0  0
    5.0060   11.8447  -21.0412 H   0  0  0  0  0  0
    6.2434    9.5708  -24.3077 H   0  0  0  0  0  0
  1  2  2  0  0  0
  1  3  1  0  0  0
  1 34  1  0  0  0
  2  6  1  0  0  0
  2 35  1  0  0  0
  3  5  2  0  0  0
  3 27  1  0  0  0
  4  5  1  0  0  0
  4  6  2  0  0  0
  4 18  1  0  0  0
  5 24  1  0  0  0
  6 10  1  0  0  0
  7 10  2  0  0  0
  7 23  1  0  0  0
  7 33  1  0  0  0
  8 21  1  0  0  0
  8 22  1  0  0  0
  8 36  1  0  0  0
  8 37  1  0  0  0
  9 21  1  0  0  0
  9 31  1  0  0  0
  9 38  1  0  0  0
  9 39  1  0  0  0
 10 40  1  0  0  0
 11 12  2  0  0  0
 11 14  1  0  0  0
 11 15  1  0  0  0
 12 17  1  0  0  0
 12 28  1  0  0  0
 13 28  2  0  0  0
 13 29  1  0  0  0
 13 55  1  0  0  0
 14 29  2  0  0  0
 14 31  1  0  0  0
 15 30  2  0  0  0
 15 41  1  0  0  0
 16 17  2  0  0  0
 16 18  1  0  0  0
 16 30  1  0  0  0
 17 26  1  0  0  0
 18 23  2  0  0  0
 19 20  1  0  0  0
 19 31  1  0  0  0
 19 42  1  0  0  0
 19 43  1  0  0  0
 20 22  1  0  0  0
 20 32  1  0  0  0
 20 44  1  0  0  0
 21 32  1  0  0  0
 21 45  1  0  0  0
 22 46  1  0  0  0
 22 47  1  0  0  0
 23 48  1  0  0  0
 24 25  3  0  0  0
 25 49  1  0  0  0
 32 50  1  0  0  0
 33 51  1  0  0  0
 52 55  1  0  0  0
 52 56  1  0  0  0
 52 59  1  0  0  0
 53 56  1  0  0  0
 53 57  1  0  0  0
 53 60  1  0  0  0
 54 57  1  0  0  0
 54 58  1  0  0  0
 54 61  1  0  0  0
 55 62  1  0  0  0
 55 63  1  0  0  0
 56 58  2  0  0  0
 57 64  1  0  0  0
 58 65  1  0  0  0
M  END
> <s_m_entry_id>
328

> <s_m_entry_name>
000000170.1

> <s_m_Source_Path>
/Users/zaksoul/Documents/3r_UNI/2nd_SEMESTER/BSC/FRAG_RECON/RESULTS/2

> <s_m_Source_File>
000000170.mol2

> <i_m_Source_File_Index>
1

$$$$
No_0_183
                    3D
 Schrodinger Suite 2022-4.
 65 71  0  0  1  0            999 V2000
   -5.2170    3.5120  -21.8290 C   0  0  0  0  0  0
   -5.4740    3.7280  -23.1620 C   0  0  0  0  0  0
   -3.9820    3.2450  -21.4860 C   0  0  0  0  0  0
   -3.0780    3.4070  -23.6440 C   0  0  0  0  0  0
   -2.9270    3.1350  -22.2270 C   0  0  0  0  0  0
   -4.4210    3.6870  -24.1670 C   0  0  0  0  0  0
   -3.6530    3.7460  -26.3600 C   0  0  0  0  0  0
    6.0410    2.8520  -21.0560 C   0  0  0  0  0  0
    5.9180    3.0430  -23.6030 C   0  0  0  0  0  0
   -4.6640    3.8410  -25.5010 C   0  0  0  0  0  0
    2.1370    3.6150  -23.6310 C   0  0  0  0  0  0
    1.3210    4.7230  -23.3150 C   0  0  0  0  0  0
    3.1230    5.8940  -22.6030 C   0  0  0  0  0  0
    3.5370    3.7910  -23.3060 C   0  0  0  0  0  0
    1.5880    2.5140  -24.3160 C   0  0  0  0  0  0
   -0.5350    3.3380  -24.2020 C   0  0  0  0  0  0
   -0.0040    4.5440  -23.5770 C   0  0  0  0  0  0
   -1.9860    3.3600  -24.5640 C   0  0  0  0  0  0
    4.1250    1.2840  -23.0580 C   0  0  0  0  0  0
    5.0500    0.9010  -21.9130 C   0  0  2  0  0  0
    6.6560    2.4420  -22.4120 C   0  0  2  0  0  0
    5.0320    1.8810  -20.7280 C   0  0  0  0  0  0
   -2.3020    3.5480  -25.9910 C   0  0  0  0  0  0
   -1.5880    2.7020  -21.6290 C   0  0  0  0  0  0
   -0.5630    2.3380  -21.1240 C   0  0  0  0  0  0
   -0.8420    5.5870  -23.2180 F   0  0  0  0  0  0
   -3.7810    2.9750  -20.1080 F   0  0  0  0  0  0
    1.8020    5.8680  -22.7590 N   0  0  0  0  0  0
    4.0150    4.9300  -22.8360 N   0  0  0  0  0  0
    0.2830    2.4380  -24.6300 N   0  0  0  0  0  0
    4.4490    2.7410  -23.4980 N   0  0  0  0  0  0
    6.4600    0.9690  -22.3870 N   0  0  1  0  0  0
   -3.8180    3.7880  -27.7510 O   0  0  0  0  0  0
   -6.0221    3.5672  -21.1052 H   0  0  0  0  0  0
   -6.4856    3.9347  -23.4922 H   0  0  0  0  0  0
    5.5777    3.8452  -21.1499 H   0  0  0  0  0  0
    6.8228    2.8429  -20.2823 H   0  0  0  0  0  0
    6.3148    2.6139  -24.5349 H   0  0  0  0  0  0
    6.0683    4.1326  -23.6141 H   0  0  0  0  0  0
   -5.6711    4.0398  -25.8494 H   0  0  0  0  0  0
    2.2231    1.6862  -24.6100 H   0  0  0  0  0  0
    3.0798    1.2275  -22.7197 H   0  0  0  0  0  0
    4.2886    0.6015  -23.9050 H   0  0  0  0  0  0
    4.8178   -0.1166  -21.5657 H   0  0  0  0  0  0
    7.7263    2.6934  -22.4483 H   0  0  0  0  0  0
    4.0511    2.3765  -20.6806 H   0  0  0  0  0  0
    5.3235    1.3475  -19.8113 H   0  0  0  0  0  0
   -1.5280    3.5380  -26.7499 H   0  0  0  0  0  0
    0.3401    2.0180  -20.6800 H   0  0  0  0  0  0
    7.1001    0.4539  -21.6860 H   0  0  0  0  0  0
   -2.9713    3.7029  -28.1734 H   0  0  0  0  0  0
    3.3830    8.3220  -23.0340 N   0  0  0  0  0  0
    4.1640    9.9950  -21.5050 N   0  0  0  0  0  0
    3.8130   11.8310  -22.7660 N   0  0  0  0  0  0
    3.6880    7.2210  -22.1070 C   0  0  0  0  0  0
    3.6420    9.5900  -22.6790 C   0  0  0  0  0  0
    4.2530   11.3280  -21.5880 C   0  0  0  0  0  0
    3.4260   10.7810  -23.4680 C   0  0  0  0  0  0
    2.9711    8.1181  -23.9558 H   0  0  0  0  0  0
    4.3982    9.3025  -20.7794 H   0  0  0  0  0  0
    3.8390   12.8469  -22.9340 H   0  0  0  0  0  0
    3.2682    7.4499  -21.1164 H   0  0  0  0  0  0
    4.7780    7.1330  -21.9880 H   0  0  0  0  0  0
    4.6492   11.8983  -20.7556 H   0  0  0  0  0  0
    3.0240   10.9140  -24.4659 H   0  0  0  0  0  0
  1  2  2  0  0  0
  1  3  1  0  0  0
  1 34  1  0  0  0
  2  6  1  0  0  0
  2 35  1  0  0  0
  3  5  2  0  0  0
  3 27  1  0  0  0
  4  5  1  0  0  0
  4  6  2  0  0  0
  4 18  1  0  0  0
  5 24  1  0  0  0
  6 10  1  0  0  0
  7 10  2  0  0  0
  7 23  1  0  0  0
  7 33  1  0  0  0
  8 21  1  0  0  0
  8 22  1  0  0  0
  8 36  1  0  0  0
  8 37  1  0  0  0
  9 21  1  0  0  0
  9 31  1  0  0  0
  9 38  1  0  0  0
  9 39  1  0  0  0
 10 40  1  0  0  0
 11 12  2  0  0  0
 11 14  1  0  0  0
 11 15  1  0  0  0
 12 17  1  0  0  0
 12 28  1  0  0  0
 13 28  2  0  0  0
 13 29  1  0  0  0
 13 55  1  0  0  0
 14 29  2  0  0  0
 14 31  1  0  0  0
 15 30  2  0  0  0
 15 41  1  0  0  0
 16 17  2  0  0  0
 16 18  1  0  0  0
 16 30  1  0  0  0
 17 26  1  0  0  0
 18 23  2  0  0  0
 19 20  1  0  0  0
 19 31  1  0  0  0
 19 42  1  0  0  0
 19 43  1  0  0  0
 20 22  1  0  0  0
 20 32  1  0  0  0
 20 44  1  0  0  0
 21 32  1  0  0  0
 21 45  1  0  0  0
 22 46  1  0  0  0
 22 47  1  0  0  0
 23 48  1  0  0  0
 24 25  3  0  0  0
 25 49  1  0  0  0
 32 50  1  0  0  0
 33 51  1  0  0  0
 52 55  1  0  0  0
 52 56  1  0  0  0
 52 59  1  0  0  0
 53 56  1  0  0  0
 53 57  1  0  0  0
 53 60  1  0  0  0
 54 57  1  0  0  0
 54 58  1  0  0  0
 54 61  1  0  0  0
 55 62  1  0  0  0
 55 63  1  0  0  0
 56 58  2  0  0  0
 57 64  1  0  0  0
 58 65  1  0  0  0
M  END
> <s_m_entry_id>
329

> <s_m_entry_name>
000000171.1

> <s_m_Source_Path>
/Users/zaksoul/Documents/3r_UNI/2nd_SEMESTER/BSC/FRAG_RECON/RESULTS/2

> <s_m_Source_File>
000000171.mol2

> <i_m_Source_File_Index>
1

$$$$
No_0_184
                    3D
 Schrodinger Suite 2022-4.
 65 71  0  0  1  0            999 V2000
   -5.0200    3.7500  -22.1550 C   0  0  0  0  0  0
   -5.2490    3.9390  -23.4980 C   0  0  0  0  0  0
   -3.8030    3.4430  -21.7860 C   0  0  0  0  0  0
   -2.8610    3.5090  -23.9330 C   0  0  0  0  0  0
   -2.7420    3.2700  -22.5070 C   0  0  0  0  0  0
   -4.1840    3.8290  -24.4850 C   0  0  0  0  0  0
   -3.3820    3.7970  -26.6660 C   0  0  0  0  0  0
    6.1900    2.6640  -21.1870 C   0  0  0  0  0  0
    6.1120    2.7900  -23.7400 C   0  0  0  0  0  0
   -4.4000    3.9560  -25.8260 C   0  0  0  0  0  0
    2.3570    3.5100  -23.8430 C   0  0  0  0  0  0
    1.5820    4.6580  -23.5700 C   0  0  0  0  0  0
    3.4190    5.7760  -22.8610 C   0  0  0  0  0  0
    3.7580    3.6400  -23.5010 C   0  0  0  0  0  0
    1.7740    2.4140  -24.5070 C   0  0  0  0  0  0
   -0.3150    3.3250  -24.4490 C   0  0  0  0  0  0
    0.2540    4.5250  -23.8480 C   0  0  0  0  0  0
   -1.7590    3.3940  -24.8340 C   0  0  0  0  0  0
    4.2420    1.1190  -23.1770 C   0  0  0  0  0  0
    5.1340    0.7310  -22.0080 C   0  0  2  0  0  0
    6.8070    2.1920  -22.5220 C   0  0  2  0  0  0
    5.1370    1.7430  -20.8490 C   0  0  0  0  0  0
   -2.0460    3.5560  -26.2700 C   0  0  0  0  0  0
   -1.4310    2.8010  -21.8770 C   0  0  0  0  0  0
   -0.4280    2.4110  -21.3460 C   0  0  0  0  0  0
   -0.5460    5.6100  -23.5300 F   0  0  0  0  0  0
   -3.6330    3.2040  -20.3980 F   0  0  0  0  0  0
    2.1010    5.7990  -23.0380 N   0  0  0  0  0  0
    4.2740    4.7710  -23.0550 N   0  0  0  0  0  0
    0.4720    2.3810  -24.8400 N   0  0  0  0  0  0
    4.6310    2.5490  -23.6500 N   0  0  0  0  0  0
    6.5520    0.7290  -22.4600 N   0  0  1  0  0  0
   -3.5250    3.8070  -28.0590 O   0  0  0  0  0  0
   -5.8337    3.8563  -21.4467 H   0  0  0  0  0  0
   -6.2466    4.1768  -23.8493 H   0  0  0  0  0  0
    5.7671    3.6713  -21.3152 H   0  0  0  0  0  0
    6.9591    2.6448  -20.4008 H   0  0  0  0  0  0
    6.5047    2.3196  -24.6535 H   0  0  0  0  0  0
    6.3058    3.8721  -23.7784 H   0  0  0  0  0  0
   -5.3934    4.1838  -26.1953 H   0  0  0  0  0  0
    2.3800    1.5542  -24.7689 H   0  0  0  0  0  0
    3.1908    1.1140  -22.8532 H   0  0  0  0  0  0
    4.3894    0.4073  -24.0027 H   0  0  0  0  0  0
    4.8554   -0.2662  -21.6366 H   0  0  0  0  0  0
    7.8869    2.3999  -22.5482 H   0  0  0  0  0  0
    4.1760    2.2780  -20.8308 H   0  0  0  0  0  0
    5.3943    1.2244  -19.9137 H   0  0  0  0  0  0
   -1.2624    3.4938  -27.0165 H   0  0  0  0  0  0
    0.4549    2.0680  -20.8791 H   0  0  0  0  0  0
    7.1607    0.2080  -21.7358 H   0  0  0  0  0  0
   -2.6764    3.6764  -28.4655 H   0  0  0  0  0  0
    3.2630    8.2500  -22.8780 N   0  0  0  0  0  0
    4.4840    9.7940  -21.5090 N   0  0  0  0  0  0
    3.4700   11.7100  -22.1310 N   0  0  0  0  0  0
    4.0290    7.0920  -22.3920 C   0  0  0  0  0  0
    3.5420    9.4810  -22.4210 C   0  0  0  0  0  0
    4.4160   11.1220  -21.3600 C   0  0  0  0  0  0
    2.9070   10.7210  -22.8020 C   0  0  0  0  0  0
    2.5120    8.1160  -23.5700 H   0  0  0  0  0  0
    5.0661    9.0519  -21.0950 H   0  0  0  0  0  0
    3.3359   12.7305  -22.0920 H   0  0  0  0  0  0
    4.0600    7.1100  -21.2926 H   0  0  0  0  0  0
    5.0667    7.1630  -22.7499 H   0  0  0  0  0  0
    5.0833   11.6252  -20.6697 H   0  0  0  0  0  0
    2.1039   10.9280  -23.5001 H   0  0  0  0  0  0
  1  2  2  0  0  0
  1  3  1  0  0  0
  1 34  1  0  0  0
  2  6  1  0  0  0
  2 35  1  0  0  0
  3  5  2  0  0  0
  3 27  1  0  0  0
  4  5  1  0  0  0
  4  6  2  0  0  0
  4 18  1  0  0  0
  5 24  1  0  0  0
  6 10  1  0  0  0
  7 10  2  0  0  0
  7 23  1  0  0  0
  7 33  1  0  0  0
  8 21  1  0  0  0
  8 22  1  0  0  0
  8 36  1  0  0  0
  8 37  1  0  0  0
  9 21  1  0  0  0
  9 31  1  0  0  0
  9 38  1  0  0  0
  9 39  1  0  0  0
 10 40  1  0  0  0
 11 12  2  0  0  0
 11 14  1  0  0  0
 11 15  1  0  0  0
 12 17  1  0  0  0
 12 28  1  0  0  0
 13 28  2  0  0  0
 13 29  1  0  0  0
 13 55  1  0  0  0
 14 29  2  0  0  0
 14 31  1  0  0  0
 15 30  2  0  0  0
 15 41  1  0  0  0
 16 17  2  0  0  0
 16 18  1  0  0  0
 16 30  1  0  0  0
 17 26  1  0  0  0
 18 23  2  0  0  0
 19 20  1  0  0  0
 19 31  1  0  0  0
 19 42  1  0  0  0
 19 43  1  0  0  0
 20 22  1  0  0  0
 20 32  1  0  0  0
 20 44  1  0  0  0
 21 32  1  0  0  0
 21 45  1  0  0  0
 22 46  1  0  0  0
 22 47  1  0  0  0
 23 48  1  0  0  0
 24 25  3  0  0  0
 25 49  1  0  0  0
 32 50  1  0  0  0
 33 51  1  0  0  0
 52 55  1  0  0  0
 52 56  1  0  0  0
 52 59  1  0  0  0
 53 56  1  0  0  0
 53 57  1  0  0  0
 53 60  1  0  0  0
 54 57  1  0  0  0
 54 58  1  0  0  0
 54 61  1  0  0  0
 55 62  1  0  0  0
 55 63  1  0  0  0
 56 58  2  0  0  0
 57 64  1  0  0  0
 58 65  1  0  0  0
M  END
> <s_m_entry_id>
330

> <s_m_entry_name>
000000172.1

> <s_m_Source_Path>
/Users/zaksoul/Documents/3r_UNI/2nd_SEMESTER/BSC/FRAG_RECON/RESULTS/2

> <s_m_Source_File>
000000172.mol2

> <i_m_Source_File_Index>
1

$$$$
No_0_185
                    3D
 Schrodinger Suite 2022-4.
 70 76  0  0  1  0            999 V2000
   -5.3640    3.3210  -22.1580 C   0  0  0  0  0  0
   -5.6000    3.4840  -23.5020 C   0  0  0  0  0  0
   -4.1290    3.1020  -21.7820 C   0  0  0  0  0  0
   -3.1860    3.2180  -23.9260 C   0  0  0  0  0  0
   -3.0560    2.9980  -22.4980 C   0  0  0  0  0  0
   -4.5250    3.4410  -24.4850 C   0  0  0  0  0  0
   -3.7150    3.4490  -26.6630 C   0  0  0  0  0  0
    5.8910    3.0220  -21.1440 C   0  0  0  0  0  0
    5.8140    3.1240  -23.6980 C   0  0  0  0  0  0
   -4.7460    3.5430  -25.8280 C   0  0  0  0  0  0
    2.0190    3.5820  -23.8190 C   0  0  0  0  0  0
    1.1650    4.6750  -23.5580 C   0  0  0  0  0  0
    2.9170    5.9230  -22.8510 C   0  0  0  0  0  0
    3.4060    3.8100  -23.4740 C   0  0  0  0  0  0
    1.5160    2.4430  -24.4770 C   0  0  0  0  0  0
   -0.6320    3.2070  -24.4320 C   0  0  0  0  0  0
   -0.1490    4.4480  -23.8390 C   0  0  0  0  0  0
   -2.0750    3.1730  -24.8230 C   0  0  0  0  0  0
    4.0620    1.3320  -23.1290 C   0  0  0  0  0  0
    4.9750    1.0150  -21.9540 C   0  0  2  0  0  0
    6.5440    2.5850  -22.4730 C   0  0  2  0  0  0
    4.9040    2.0330  -20.8030 C   0  0  0  0  0  0
   -2.3670    3.3040  -26.2610 C   0  0  0  0  0  0
   -1.7180    2.6260  -21.8600 C   0  0  0  0  0  0
   -0.6930    2.3100  -21.3230 C   0  0  0  0  0  0
   -1.0230    5.4780  -23.5310 F   0  0  0  0  0  0
   -3.9480    2.8850  -20.3910 F   0  0  0  0  0  0
    1.6010    5.8520  -23.0320 N   0  0  0  0  0  0
    3.8410    4.9780  -23.0340 N   0  0  0  0  0  0
    0.2210    2.3180  -24.8130 N   0  0  0  0  0  0
    4.3530    2.7820  -23.6120 N   0  0  0  0  0  0
    6.3910    1.1090  -22.4020 N   0  0  1  0  0  0
   -3.8530    3.4390  -28.0570 O   0  0  0  0  0  0
   -6.1850    3.3762  -21.4524 H   0  0  0  0  0  0
   -6.6102    3.6497  -23.8585 H   0  0  0  0  0  0
    5.4005    3.9970  -21.2813 H   0  0  0  0  0  0
    6.6571    3.0624  -20.3557 H   0  0  0  0  0  0
    6.2418    2.6760  -24.6070 H   0  0  0  0  0  0
    5.9320    4.2167  -23.7444 H   0  0  0  0  0  0
   -5.7512    3.6987  -26.2026 H   0  0  0  0  0  0
    2.1812    1.6253  -24.7298 H   0  0  0  0  0  0
    3.0123    1.2563  -22.8090 H   0  0  0  0  0  0
    4.2619    0.6263  -23.9488 H   0  0  0  0  0  0
    4.7651    0.0037  -21.5755 H   0  0  0  0  0  0
    7.6069    2.8674  -22.4972 H   0  0  0  0  0  0
    3.9082    2.5001  -20.7909 H   0  0  0  0  0  0
    5.1924    1.5398  -19.8630 H   0  0  0  0  0  0
   -1.5778    3.2909  -27.0040 H   0  0  0  0  0  0
    0.2099    2.0320  -20.8511 H   0  0  0  0  0  0
    7.0320    0.6368  -21.6723 H   0  0  0  0  0  0
   -2.9958    3.3648  -28.4598 H   0  0  0  0  0  0
    6.3670    7.5840  -20.1340 N   0  3  0  0  0  0
    5.6680    9.1840  -21.4400 N   0  0  0  0  0  0
    4.3910    7.0790  -21.3080 N   0  0  0  0  0  0
    5.4040    7.9320  -21.0020 C   0  0  0  0  0  0
    6.9080    9.7250  -20.9040 C   0  0  0  0  0  0
    7.3980    8.5920  -19.9630 C   0  0  0  0  0  0
    4.8630   10.0060  -22.3310 C   0  0  0  0  0  0
    3.4330    7.2810  -22.3890 C   0  0  0  0  0  0
    6.3280    6.6703  -19.6602 H   0  0  0  0  0  0
    4.2590    6.2181  -20.7581 H   0  0  0  0  0  0
    6.6841   10.6208  -20.3061 H   0  0  0  0  0  0
    7.6309    9.8550  -21.7229 H   0  0  0  0  0  0
    8.3546    8.1992  -20.3379 H   0  0  0  0  0  0
    7.3830    8.9521  -18.9237 H   0  0  0  0  0  0
    5.3619   10.9737  -22.4880 H   0  0  0  0  0  0
    4.7461    9.4934  -23.2972 H   0  0  0  0  0  0
    3.8723   10.1721  -21.8827 H   0  0  0  0  0  0
    3.9307    7.7887  -23.2284 H   0  0  0  0  0  0
    2.5912    7.8878  -22.0241 H   0  0  0  0  0  0
  1  2  2  0  0  0
  1  3  1  0  0  0
  1 34  1  0  0  0
  2  6  1  0  0  0
  2 35  1  0  0  0
  3  5  2  0  0  0
  3 27  1  0  0  0
  4  5  1  0  0  0
  4  6  2  0  0  0
  4 18  1  0  0  0
  5 24  1  0  0  0
  6 10  1  0  0  0
  7 10  2  0  0  0
  7 23  1  0  0  0
  7 33  1  0  0  0
  8 21  1  0  0  0
  8 22  1  0  0  0
  8 36  1  0  0  0
  8 37  1  0  0  0
  9 21  1  0  0  0
  9 31  1  0  0  0
  9 38  1  0  0  0
  9 39  1  0  0  0
 10 40  1  0  0  0
 11 12  1  0  0  0
 11 14  2  0  0  0
 11 15  1  0  0  0
 12 17  1  0  0  0
 12 28  2  0  0  0
 13 28  1  0  0  0
 13 29  2  0  0  0
 13 59  1  0  0  0
 14 29  1  0  0  0
 14 31  1  0  0  0
 15 30  2  0  0  0
 15 41  1  0  0  0
 16 17  2  0  0  0
 16 18  1  0  0  0
 16 30  1  0  0  0
 17 26  1  0  0  0
 18 23  2  0  0  0
 19 20  1  0  0  0
 19 31  1  0  0  0
 19 42  1  0  0  0
 19 43  1  0  0  0
 20 22  1  0  0  0
 20 32  1  0  0  0
 20 44  1  0  0  0
 21 32  1  0  0  0
 21 45  1  0  0  0
 22 46  1  0  0  0
 22 47  1  0  0  0
 23 48  1  0  0  0
 24 25  3  0  0  0
 25 49  1  0  0  0
 32 50  1  0  0  0
 33 51  1  0  0  0
 52 55  2  0  0  0
 52 57  1  0  0  0
 52 60  1  0  0  0
 53 55  1  0  0  0
 53 56  1  0  0  0
 53 58  1  0  0  0
 54 55  1  0  0  0
 54 59  1  0  0  0
 54 61  1  0  0  0
 56 57  1  0  0  0
 56 62  1  0  0  0
 56 63  1  0  0  0
 57 64  1  0  0  0
 57 65  1  0  0  0
 58 66  1  0  0  0
 58 67  1  0  0  0
 58 68  1  0  0  0
 59 69  1  0  0  0
 59 70  1  0  0  0
M  CHG  1  52   1
M  END
> <s_m_entry_id>
331

> <s_m_entry_name>
000000173.1

> <s_m_Source_Path>
/Users/zaksoul/Documents/3r_UNI/2nd_SEMESTER/BSC/FRAG_RECON/RESULTS/2

> <s_m_Source_File>
000000173.mol2

> <i_m_Source_File_Index>
1

$$$$
No_0_186
                    3D
 Schrodinger Suite 2022-4.
 70 76  0  0  1  0            999 V2000
   -5.3630    3.5940  -21.9550 C   0  0  0  0  0  0
   -5.6180    3.7840  -23.2920 C   0  0  0  0  0  0
   -4.1300    3.3250  -21.6060 C   0  0  0  0  0  0
   -3.2240    3.4370  -23.7660 C   0  0  0  0  0  0
   -3.0750    3.1920  -22.3440 C   0  0  0  0  0  0
   -4.5650    3.7160  -24.2960 C   0  0  0  0  0  0
   -3.7950    3.7240  -26.4890 C   0  0  0  0  0  0
    5.8900    2.8730  -21.1610 C   0  0  0  0  0  0
    5.7690    3.0130  -23.7120 C   0  0  0  0  0  0
   -4.8060    3.8440  -25.6330 C   0  0  0  0  0  0
    1.9920    3.6100  -23.7540 C   0  0  0  0  0  0
    1.1840    4.7290  -23.4610 C   0  0  0  0  0  0
    2.9930    5.9030  -22.7720 C   0  0  0  0  0  0
    3.3930    3.7830  -23.4320 C   0  0  0  0  0  0
    1.4360    2.4990  -24.4170 C   0  0  0  0  0  0
   -0.6820    3.3400  -24.3210 C   0  0  0  0  0  0
   -0.1430    4.5540  -23.7200 C   0  0  0  0  0  0
   -2.1320    3.3640  -24.6840 C   0  0  0  0  0  0
    3.9640    1.2780  -23.1320 C   0  0  0  0  0  0
    4.8860    0.9120  -21.9790 C   0  0  2  0  0  0
    6.5020    2.4310  -22.5080 C   0  0  2  0  0  0
    4.8740    1.9160  -20.8140 C   0  0  0  0  0  0
   -2.4470    3.5250  -26.1140 C   0  0  0  0  0  0
   -1.7400    2.7630  -21.7360 C   0  0  0  0  0  0
   -0.7170    2.4030  -21.2230 C   0  0  0  0  0  0
   -0.9730    5.6100  -23.3830 F   0  0  0  0  0  0
   -3.9320    3.0820  -20.2220 F   0  0  0  0  0  0
    1.6720    5.8830  -22.9280 N   0  0  0  0  0  0
    3.8780    4.9280  -22.9850 N   0  0  0  0  0  0
    0.1300    2.4260  -24.7300 N   0  0  0  0  0  0
    4.2990    2.7230  -23.6020 N   0  0  0  0  0  0
    6.2970    0.9600  -22.4530 N   0  0  1  0  0  0
   -3.9590    3.7390  -27.8800 O   0  0  0  0  0  0
   -6.1687    3.6682  -21.2336 H   0  0  0  0  0  0
   -6.6279    3.9908  -23.6273 H   0  0  0  0  0  0
    5.4329    3.8670  -21.2750 H   0  0  0  0  0  0
    6.6713    2.8750  -20.3867 H   0  0  0  0  0  0
    6.1636    2.5619  -24.6344 H   0  0  0  0  0  0
    5.9263    4.1012  -23.7453 H   0  0  0  0  0  0
   -5.8119    4.0418  -25.9854 H   0  0  0  0  0  0
    2.0661    1.6612  -24.6929 H   0  0  0  0  0  0
    2.9184    1.2356  -22.7929 H   0  0  0  0  0  0
    4.1224    0.5767  -23.9645 H   0  0  0  0  0  0
    4.6468   -0.0965  -21.6105 H   0  0  0  0  0  0
    7.5738    2.6752  -22.5484 H   0  0  0  0  0  0
    3.8962    2.4185  -20.7777 H   0  0  0  0  0  0
    5.1616    1.3993  -19.8865 H   0  0  0  0  0  0
   -1.6728    3.4939  -26.8721 H   0  0  0  0  0  0
    0.1835    2.0858  -20.7717 H   0  0  0  0  0  0
    6.9336    0.4550  -21.7415 H   0  0  0  0  0  0
   -3.1126    3.6390  -28.2997 H   0  0  0  0  0  0
    6.9600    7.4760  -20.8140 N   0  3  0  0  0  0
    5.9090    9.1560  -21.7230 N   0  0  0  0  0  0
    4.7690    6.9800  -21.5170 N   0  0  0  0  0  0
    5.8000    7.8550  -21.3760 C   0  0  0  0  0  0
    7.2270    9.7110  -21.4490 C   0  0  0  0  0  0
    7.9700    8.5190  -20.7890 C   0  0  0  0  0  0
    4.8830   10.0170  -22.2930 C   0  0  0  0  0  0
    3.5660    7.2360  -22.3020 C   0  0  0  0  0  0
    7.0669    6.5187  -20.4493 H   0  0  0  0  0  0
    4.8050    6.0621  -21.0511 H   0  0  0  0  0  0
    7.1320   10.5282  -20.7188 H   0  0  0  0  0  0
    7.7182    9.9631  -22.4004 H   0  0  0  0  0  0
    8.8144    8.2198  -21.4273 H   0  0  0  0  0  0
    8.2030    8.7720  -19.7441 H   0  0  0  0  0  0
    5.2980   11.0221  -22.4590 H   0  0  0  0  0  0
    4.5449    9.5979  -23.2522 H   0  0  0  0  0  0
    4.0311   10.0810  -21.6001 H   0  0  0  0  0  0
    3.8240    7.8520  -23.1760 H   0  0  0  0  0  0
    2.8239    7.7541  -21.6769 H   0  0  0  0  0  0
  1  2  2  0  0  0
  1  3  1  0  0  0
  1 34  1  0  0  0
  2  6  1  0  0  0
  2 35  1  0  0  0
  3  5  2  0  0  0
  3 27  1  0  0  0
  4  5  1  0  0  0
  4  6  2  0  0  0
  4 18  1  0  0  0
  5 24  1  0  0  0
  6 10  1  0  0  0
  7 10  2  0  0  0
  7 23  1  0  0  0
  7 33  1  0  0  0
  8 21  1  0  0  0
  8 22  1  0  0  0
  8 36  1  0  0  0
  8 37  1  0  0  0
  9 21  1  0  0  0
  9 31  1  0  0  0
  9 38  1  0  0  0
  9 39  1  0  0  0
 10 40  1  0  0  0
 11 12  1  0  0  0
 11 14  2  0  0  0
 11 15  1  0  0  0
 12 17  1  0  0  0
 12 28  2  0  0  0
 13 28  1  0  0  0
 13 29  2  0  0  0
 13 59  1  0  0  0
 14 29  1  0  0  0
 14 31  1  0  0  0
 15 30  2  0  0  0
 15 41  1  0  0  0
 16 17  2  0  0  0
 16 18  1  0  0  0
 16 30  1  0  0  0
 17 26  1  0  0  0
 18 23  2  0  0  0
 19 20  1  0  0  0
 19 31  1  0  0  0
 19 42  1  0  0  0
 19 43  1  0  0  0
 20 22  1  0  0  0
 20 32  1  0  0  0
 20 44  1  0  0  0
 21 32  1  0  0  0
 21 45  1  0  0  0
 22 46  1  0  0  0
 22 47  1  0  0  0
 23 48  1  0  0  0
 24 25  3  0  0  0
 25 49  1  0  0  0
 32 50  1  0  0  0
 33 51  1  0  0  0
 52 55  2  0  0  0
 52 57  1  0  0  0
 52 60  1  0  0  0
 53 55  1  0  0  0
 53 56  1  0  0  0
 53 58  1  0  0  0
 54 55  1  0  0  0
 54 59  1  0  0  0
 54 61  1  0  0  0
 56 57  1  0  0  0
 56 62  1  0  0  0
 56 63  1  0  0  0
 57 64  1  0  0  0
 57 65  1  0  0  0
 58 66  1  0  0  0
 58 67  1  0  0  0
 58 68  1  0  0  0
 59 69  1  0  0  0
 59 70  1  0  0  0
M  CHG  1  52   1
M  END
> <s_m_entry_id>
332

> <s_m_entry_name>
000000174.1

> <s_m_Source_Path>
/Users/zaksoul/Documents/3r_UNI/2nd_SEMESTER/BSC/FRAG_RECON/RESULTS/2

> <s_m_Source_File>
000000174.mol2

> <i_m_Source_File_Index>
1

$$$$
No_0_187
                    3D
 Schrodinger Suite 2022-4.
 70 76  0  0  1  0            999 V2000
   -5.3850    3.3800  -22.0010 C   0  0  0  0  0  0
   -5.6280    3.5300  -23.3460 C   0  0  0  0  0  0
   -4.1520    3.1450  -21.6310 C   0  0  0  0  0  0
   -3.2210    3.2200  -23.7830 C   0  0  0  0  0  0
   -3.0850    3.0150  -22.3530 C   0  0  0  0  0  0
   -4.5610    3.4580  -24.3350 C   0  0  0  0  0  0
   -3.7660    3.4270  -26.5190 C   0  0  0  0  0  0
    5.8700    2.9090  -21.0590 C   0  0  0  0  0  0
    5.7770    2.9820  -23.6130 C   0  0  0  0  0  0
   -4.7880    3.5480  -25.6780 C   0  0  0  0  0  0
    1.9900    3.5000  -23.7140 C   0  0  0  0  0  0
    1.1550    4.6100  -23.4600 C   0  0  0  0  0  0
    2.9320    5.8370  -22.7800 C   0  0  0  0  0  0
    3.3830    3.7100  -23.3810 C   0  0  0  0  0  0
    1.4640    2.3610  -24.3550 C   0  0  0  0  0  0
   -0.6710    3.1610  -24.3050 C   0  0  0  0  0  0
   -0.1640    4.4010  -23.7300 C   0  0  0  0  0  0
   -2.1170    3.1460  -24.6860 C   0  0  0  0  0  0
    4.0010    1.2250  -23.0110 C   0  0  0  0  0  0
    4.9150    0.9080  -21.8380 C   0  0  2  0  0  0
    6.5070    2.4460  -22.3870 C   0  0  2  0  0  0
    4.8690    1.9400  -20.6990 C   0  0  0  0  0  0
   -2.4180    3.2650  -26.1240 C   0  0  0  0  0  0
   -1.7490    2.6280  -21.7190 C   0  0  0  0  0  0
   -0.7260    2.3020  -21.1860 C   0  0  0  0  0  0
   -1.0200    5.4480  -23.4290 F   0  0  0  0  0  0
   -3.9650    2.9410  -20.2390 F   0  0  0  0  0  0
    1.6140    5.7860  -22.9520 N   0  0  0  0  0  0
    3.8390    4.8760  -22.9580 N   0  0  0  0  0  0
    0.1640    2.2530  -24.6820 N   0  0  0  0  0  0
    4.3110    2.6640  -23.5130 N   0  0  0  0  0  0
    6.3300    0.9730  -22.2960 N   0  0  1  0  0  0
   -3.9130    3.4030  -27.9110 O   0  0  0  0  0  0
   -6.2009    3.4563  -21.2914 H   0  0  0  0  0  0
   -6.6378    3.7087  -23.6973 H   0  0  0  0  0  0
    5.3937    3.8900  -21.2033 H   0  0  0  0  0  0
    6.6413    2.9464  -20.2756 H   0  0  0  0  0  0
    6.1917    2.5159  -24.5190 H   0  0  0  0  0  0
    5.9132    4.0719  -23.6725 H   0  0  0  0  0  0
   -5.7933    3.7156  -26.0472 H   0  0  0  0  0  0
    2.1137    1.5295  -24.6030 H   0  0  0  0  0  0
    2.9525    1.1705  -22.6830 H   0  0  0  0  0  0
    4.1827    0.5062  -23.8236 H   0  0  0  0  0  0
    4.6921   -0.0956  -21.4467 H   0  0  0  0  0  0
    7.5744    2.7096  -22.4213 H   0  0  0  0  0  0
    3.8810    2.4234  -20.6869 H   0  0  0  0  0  0
    5.1557    1.4534  -19.7551 H   0  0  0  0  0  0
   -1.6340    3.2309  -26.8718 H   0  0  0  0  0  0
    0.1753    2.0152  -20.7164 H   0  0  0  0  0  0
    6.9687    0.4991  -21.5653 H   0  0  0  0  0  0
   -3.0600    3.3100  -28.3187 H   0  0  0  0  0  0
    7.0750    7.7000  -21.5930 N   0  3  0  0  0  0
    5.7040    9.3110  -22.1190 N   0  0  0  0  0  0
    4.8370    7.0190  -21.8510 N   0  0  0  0  0  0
    5.7910    7.9870  -21.8630 C   0  0  0  0  0  0
    6.9940    9.9840  -22.0890 C   0  0  0  0  0  0
    7.9680    8.8390  -21.7000 C   0  0  0  0  0  0
    4.5050   10.0910  -22.3870 C   0  0  0  0  0  0
    3.4730    7.1930  -22.3380 C   0  0  0  0  0  0
    7.3449    6.7392  -21.3381 H   0  0  0  0  0  0
    5.0560    6.0842  -21.4781 H   0  0  0  0  0  0
    6.9890   10.7426  -21.2924 H   0  0  0  0  0  0
    7.2399   10.3419  -23.0997 H   0  0  0  0  0  0
    8.6747    8.6691  -22.5257 H   0  0  0  0  0  0
    8.4022    9.0541  -20.7125 H   0  0  0  0  0  0
    4.7808   11.1424  -22.5559 H   0  0  0  0  0  0
    4.0018    9.6969  -23.2823 H   0  0  0  0  0  0
    3.8238   10.0250  -21.5258 H   0  0  0  0  0  0
    3.4750    7.8828  -23.1948 H   0  0  0  0  0  0
    2.8429    7.5930  -21.5299 H   0  0  0  0  0  0
  1  2  2  0  0  0
  1  3  1  0  0  0
  1 34  1  0  0  0
  2  6  1  0  0  0
  2 35  1  0  0  0
  3  5  2  0  0  0
  3 27  1  0  0  0
  4  5  1  0  0  0
  4  6  2  0  0  0
  4 18  1  0  0  0
  5 24  1  0  0  0
  6 10  1  0  0  0
  7 10  2  0  0  0
  7 23  1  0  0  0
  7 33  1  0  0  0
  8 21  1  0  0  0
  8 22  1  0  0  0
  8 36  1  0  0  0
  8 37  1  0  0  0
  9 21  1  0  0  0
  9 31  1  0  0  0
  9 38  1  0  0  0
  9 39  1  0  0  0
 10 40  1  0  0  0
 11 12  1  0  0  0
 11 14  2  0  0  0
 11 15  1  0  0  0
 12 17  1  0  0  0
 12 28  2  0  0  0
 13 28  1  0  0  0
 13 29  2  0  0  0
 13 59  1  0  0  0
 14 29  1  0  0  0
 14 31  1  0  0  0
 15 30  2  0  0  0
 15 41  1  0  0  0
 16 17  2  0  0  0
 16 18  1  0  0  0
 16 30  1  0  0  0
 17 26  1  0  0  0
 18 23  2  0  0  0
 19 20  1  0  0  0
 19 31  1  0  0  0
 19 42  1  0  0  0
 19 43  1  0  0  0
 20 22  1  0  0  0
 20 32  1  0  0  0
 20 44  1  0  0  0
 21 32  1  0  0  0
 21 45  1  0  0  0
 22 46  1  0  0  0
 22 47  1  0  0  0
 23 48  1  0  0  0
 24 25  3  0  0  0
 25 49  1  0  0  0
 32 50  1  0  0  0
 33 51  1  0  0  0
 52 55  2  0  0  0
 52 57  1  0  0  0
 52 60  1  0  0  0
 53 55  1  0  0  0
 53 56  1  0  0  0
 53 58  1  0  0  0
 54 55  1  0  0  0
 54 59  1  0  0  0
 54 61  1  0  0  0
 56 57  1  0  0  0
 56 62  1  0  0  0
 56 63  1  0  0  0
 57 64  1  0  0  0
 57 65  1  0  0  0
 58 66  1  0  0  0
 58 67  1  0  0  0
 58 68  1  0  0  0
 59 69  1  0  0  0
 59 70  1  0  0  0
M  CHG  1  52   1
M  END
> <s_m_entry_id>
333

> <s_m_entry_name>
000000175.1

> <s_m_Source_Path>
/Users/zaksoul/Documents/3r_UNI/2nd_SEMESTER/BSC/FRAG_RECON/RESULTS/2

> <s_m_Source_File>
000000175.mol2

> <i_m_Source_File_Index>
1

$$$$
No_0_188
                    3D
 Schrodinger Suite 2022-4.
 71 77  0  0  1  0            999 V2000
   -5.4060    3.2650  -21.8040 C   0  0  0  0  0  0
   -5.7230    3.4160  -23.1330 C   0  0  0  0  0  0
   -4.1510    3.0440  -21.5030 C   0  0  0  0  0  0
   -3.3410    3.1350  -23.7010 C   0  0  0  0  0  0
   -3.1240    2.9280  -22.2820 C   0  0  0  0  0  0
   -4.7110    3.3590  -24.1790 C   0  0  0  0  0  0
   -4.0360    3.3430  -26.4030 C   0  0  0  0  0  0
    5.8890    2.9220  -21.4790 C   0  0  0  0  0  0
    5.6560    3.0000  -24.0250 C   0  0  0  0  0  0
   -5.0130    3.4500  -25.5070 C   0  0  0  0  0  0
    1.8630    3.4750  -23.9170 C   0  0  0  0  0  0
    1.0310    4.5740  -23.6140 C   0  0  0  0  0  0
    2.8280    5.8200  -23.0280 C   0  0  0  0  0  0
    3.2690    3.7000  -23.6600 C   0  0  0  0  0  0
    1.3150    2.3320  -24.5320 C   0  0  0  0  0  0
   -0.8220    3.1070  -24.3630 C   0  0  0  0  0  0
   -0.2990    4.3510  -23.8120 C   0  0  0  0  0  0
   -2.2870    3.0760  -24.6640 C   0  0  0  0  0  0
    3.9350    1.2220  -23.3320 C   0  0  0  0  0  0
    4.9160    0.9120  -22.2120 C   0  0  2  0  0  0
    6.4570    2.4690  -22.8420 C   0  0  2  0  0  0
    4.9200    1.9400  -21.0690 C   0  0  0  0  0  0
   -2.6670    3.1950  -26.0830 C   0  0  0  0  0  0
   -1.7510    2.5550  -21.7240 C   0  0  0  0  0  0
   -0.6970    2.2390  -21.2480 C   0  0  0  0  0  0
   -1.1490    5.3880  -23.4620 F   0  0  0  0  0  0
   -3.8860    2.8390  -20.1240 F   0  0  0  0  0  0
    1.5030    5.7550  -23.1280 N   0  0  0  0  0  0
    3.7350    4.8700  -23.2580 N   0  0  0  0  0  0
    0.0010    2.2100  -24.7870 N   0  0  0  0  0  0
    4.2010    2.6660  -23.8460 N   0  0  0  0  0  0
    6.3030    0.9940  -22.7470 N   0  0  1  0  0  0
   -4.2590    3.3210  -27.7860 O   0  0  0  0  0  0
   -6.1821    3.3303  -21.0500 H   0  0  0  0  0  0
   -6.7525    3.5836  -23.4280 H   0  0  0  0  0  0
    5.3946    3.8977  -21.5950 H   0  0  0  0  0  0
    6.7017    2.9654  -20.7390 H   0  0  0  0  0  0
    6.0255    2.5407  -24.9537 H   0  0  0  0  0  0
    5.7751    4.0917  -24.0886 H   0  0  0  0  0  0
   -6.0389    3.6066  -25.8202 H   0  0  0  0  0  0
    1.9604    1.5090  -24.8170 H   0  0  0  0  0  0
    2.9067    1.1534  -22.9475 H   0  0  0  0  0  0
    4.0803    0.5074  -24.1556 H   0  0  0  0  0  0
    4.7253   -0.0950  -21.8124 H   0  0  0  0  0  0
    7.5177    2.7455  -22.9338 H   0  0  0  0  0  0
    3.9293    2.4131  -21.0004 H   0  0  0  0  0  0
    5.2632    1.4545  -20.1435 H   0  0  0  0  0  0
   -1.9246    3.1719  -26.8725 H   0  0  0  0  0  0
    0.2319    1.9620  -20.8290 H   0  0  0  0  0  0
    6.9852    0.5256  -22.0530 H   0  0  0  0  0  0
   -3.4283    3.2388  -28.2395 H   0  0  0  0  0  0
    6.2450    7.7090  -20.3520 N   0  3  0  0  0  0
    4.4010    7.0010  -21.5880 N   0  0  0  0  0  0
    6.1990   10.3390  -21.4970 C   0  0  0  0  0  0
    5.3310    7.9270  -21.3110 C   0  0  0  0  0  0
    7.2350    8.7040  -19.9530 C   0  0  0  0  0  0
    3.3770    7.1810  -22.6120 C   0  0  0  0  0  0
    5.3380    9.2230  -22.1120 C   0  0  0  0  0  0
    7.5340    9.7260  -21.0590 C   0  0  0  0  0  0
    6.2680    6.8050  -19.8590 H   0  0  0  0  0  0
    4.3890    6.1124  -21.0672 H   0  0  0  0  0  0
    5.6838   10.7592  -20.6206 H   0  0  0  0  0  0
    6.3839   11.1167  -22.2527 H   0  0  0  0  0  0
    8.1664    8.1958  -19.6629 H   0  0  0  0  0  0
    6.8818    9.2313  -19.0545 H   0  0  0  0  0  0
    3.8180    7.6810  -23.4870 H   0  0  0  0  0  0
    2.5602    7.7979  -22.2091 H   0  0  0  0  0  0
    5.6833    9.0168  -23.1359 H   0  0  0  0  0  0
    4.3054    9.5829  -22.2310 H   0  0  0  0  0  0
    8.1873   10.5164  -20.6608 H   0  0  0  0  0  0
    7.9999    9.2141  -21.9139 H   0  0  0  0  0  0
  1  2  2  0  0  0
  1  3  1  0  0  0
  1 34  1  0  0  0
  2  6  1  0  0  0
  2 35  1  0  0  0
  3  5  2  0  0  0
  3 27  1  0  0  0
  4  5  1  0  0  0
  4  6  2  0  0  0
  4 18  1  0  0  0
  5 24  1  0  0  0
  6 10  1  0  0  0
  7 10  2  0  0  0
  7 23  1  0  0  0
  7 33  1  0  0  0
  8 21  1  0  0  0
  8 22  1  0  0  0
  8 36  1  0  0  0
  8 37  1  0  0  0
  9 21  1  0  0  0
  9 31  1  0  0  0
  9 38  1  0  0  0
  9 39  1  0  0  0
 10 40  1  0  0  0
 11 12  1  0  0  0
 11 14  2  0  0  0
 11 15  1  0  0  0
 12 17  1  0  0  0
 12 28  2  0  0  0
 13 28  1  0  0  0
 13 29  2  0  0  0
 13 57  1  0  0  0
 14 29  1  0  0  0
 14 31  1  0  0  0
 15 30  2  0  0  0
 15 41  1  0  0  0
 16 17  2  0  0  0
 16 18  1  0  0  0
 16 30  1  0  0  0
 17 26  1  0  0  0
 18 23  2  0  0  0
 19 20  1  0  0  0
 19 31  1  0  0  0
 19 42  1  0  0  0
 19 43  1  0  0  0
 20 22  1  0  0  0
 20 32  1  0  0  0
 20 44  1  0  0  0
 21 32  1  0  0  0
 21 45  1  0  0  0
 22 46  1  0  0  0
 22 47  1  0  0  0
 23 48  1  0  0  0
 24 25  3  0  0  0
 25 49  1  0  0  0
 32 50  1  0  0  0
 33 51  1  0  0  0
 52 55  2  0  0  0
 52 56  1  0  0  0
 52 60  1  0  0  0
 53 55  1  0  0  0
 53 57  1  0  0  0
 53 61  1  0  0  0
 54 58  1  0  0  0
 54 59  1  0  0  0
 54 62  1  0  0  0
 54 63  1  0  0  0
 55 58  1  0  0  0
 56 59  1  0  0  0
 56 64  1  0  0  0
 56 65  1  0  0  0
 57 66  1  0  0  0
 57 67  1  0  0  0
 58 68  1  0  0  0
 58 69  1  0  0  0
 59 70  1  0  0  0
 59 71  1  0  0  0
M  CHG  1  52   1
M  END
> <s_m_entry_id>
334

> <s_m_entry_name>
000000176.1

> <s_m_Source_Path>
/Users/zaksoul/Documents/3r_UNI/2nd_SEMESTER/BSC/FRAG_RECON/RESULTS/2

> <s_m_Source_File>
000000176.mol2

> <i_m_Source_File_Index>
1

$$$$
No_0_189
                    3D
 Schrodinger Suite 2022-4.
 71 77  0  0  1  0            999 V2000
   -5.4120    3.4830  -21.8940 C   0  0  0  0  0  0
   -5.6680    3.6730  -23.2320 C   0  0  0  0  0  0
   -4.1800    3.2150  -21.5450 C   0  0  0  0  0  0
   -3.2730    3.3260  -23.7060 C   0  0  0  0  0  0
   -3.1250    3.0810  -22.2840 C   0  0  0  0  0  0
   -4.6140    3.6050  -24.2350 C   0  0  0  0  0  0
   -3.8450    3.6130  -26.4290 C   0  0  0  0  0  0
    5.8410    2.7610  -21.1020 C   0  0  0  0  0  0
    5.7200    2.9010  -23.6530 C   0  0  0  0  0  0
   -4.8560    3.7330  -25.5720 C   0  0  0  0  0  0
    1.9430    3.4980  -23.6940 C   0  0  0  0  0  0
    1.1340    4.6180  -23.4020 C   0  0  0  0  0  0
    2.9440    5.7910  -22.7130 C   0  0  0  0  0  0
    3.3430    3.6710  -23.3730 C   0  0  0  0  0  0
    1.3860    2.3870  -24.3570 C   0  0  0  0  0  0
   -0.7310    3.2280  -24.2610 C   0  0  0  0  0  0
   -0.1920    4.4430  -23.6610 C   0  0  0  0  0  0
   -2.1820    3.2530  -24.6240 C   0  0  0  0  0  0
    3.9150    1.1660  -23.0730 C   0  0  0  0  0  0
    4.8370    0.8000  -21.9200 C   0  0  2  0  0  0
    6.4530    2.3190  -22.4490 C   0  0  2  0  0  0
    4.8240    1.8040  -20.7550 C   0  0  0  0  0  0
   -2.4960    3.4140  -26.0540 C   0  0  0  0  0  0
   -1.7900    2.6520  -21.6760 C   0  0  0  0  0  0
   -0.7670    2.2910  -21.1630 C   0  0  0  0  0  0
   -1.0230    5.4990  -23.3230 F   0  0  0  0  0  0
   -3.9810    2.9720  -20.1610 F   0  0  0  0  0  0
    1.6230    5.7710  -22.8690 N   0  0  0  0  0  0
    3.8290    4.8160  -22.9260 N   0  0  0  0  0  0
    0.0800    2.3140  -24.6700 N   0  0  0  0  0  0
    4.2490    2.6110  -23.5430 N   0  0  0  0  0  0
    6.2470    0.8480  -22.3940 N   0  0  1  0  0  0
   -4.0100    3.6280  -27.8200 O   0  0  0  0  0  0
   -6.2176    3.5582  -21.1726 H   0  0  0  0  0  0
   -6.6780    3.8808  -23.5663 H   0  0  0  0  0  0
    5.3839    3.7550  -21.2160 H   0  0  0  0  0  0
    6.6223    2.7630  -20.3277 H   0  0  0  0  0  0
    6.1137    2.4497  -24.5757 H   0  0  0  0  0  0
    5.8775    3.9892  -23.6863 H   0  0  0  0  0  0
   -5.8616    3.9307  -25.9253 H   0  0  0  0  0  0
    2.0160    1.5494  -24.6339 H   0  0  0  0  0  0
    2.8694    1.1236  -22.7339 H   0  0  0  0  0  0
    4.0724    0.4646  -23.9056 H   0  0  0  0  0  0
    4.5968   -0.2083  -21.5516 H   0  0  0  0  0  0
    7.5250    2.5623  -22.4904 H   0  0  0  0  0  0
    3.8468    2.3077  -20.7187 H   0  0  0  0  0  0
    5.1126    1.2874  -19.8277 H   0  0  0  0  0  0
   -1.7223    3.3829  -26.8126 H   0  0  0  0  0  0
    0.1338    1.9741  -20.7121 H   0  0  0  0  0  0
    6.8836    0.3430  -21.6825 H   0  0  0  0  0  0
   -3.1634    3.5281  -28.2393 H   0  0  0  0  0  0
    6.7440    7.5490  -20.5040 N   0  3  0  0  0  0
    4.7230    6.8850  -21.4550 N   0  0  0  0  0  0
    6.3970   10.2840  -21.2940 C   0  0  0  0  0  0
    5.6580    7.8240  -21.2450 C   0  0  0  0  0  0
    7.7590    8.5440  -20.1780 C   0  0  0  0  0  0
    3.5180    7.1240  -22.2430 C   0  0  0  0  0  0
    5.4710    9.2000  -21.8700 C   0  0  0  0  0  0
    7.8100    9.6990  -21.1880 C   0  0  0  0  0  0
    6.8889    6.5975  -20.1372 H   0  0  0  0  0  0
    4.8380    5.9437  -21.0529 H   0  0  0  0  0  0
    6.0441   10.5739  -20.2933 H   0  0  0  0  0  0
    6.4100   11.1513  -21.9705 H   0  0  0  0  0  0
    8.7444    8.0578  -20.1280 H   0  0  0  0  0  0
    7.5661    8.9467  -19.1727 H   0  0  0  0  0  0
    3.7680    7.7431  -23.1172 H   0  0  0  0  0  0
    2.7728    7.6461  -21.6249 H   0  0  0  0  0  0
    5.6230    9.1300  -22.9572 H   0  0  0  0  0  0
    4.4234    9.5142  -21.7519 H   0  0  0  0  0  0
    8.5008   10.4738  -20.8241 H   0  0  0  0  0  0
    8.1210    9.3130  -22.1700 H   0  0  0  0  0  0
  1  2  2  0  0  0
  1  3  1  0  0  0
  1 34  1  0  0  0
  2  6  1  0  0  0
  2 35  1  0  0  0
  3  5  2  0  0  0
  3 27  1  0  0  0
  4  5  1  0  0  0
  4  6  2  0  0  0
  4 18  1  0  0  0
  5 24  1  0  0  0
  6 10  1  0  0  0
  7 10  2  0  0  0
  7 23  1  0  0  0
  7 33  1  0  0  0
  8 21  1  0  0  0
  8 22  1  0  0  0
  8 36  1  0  0  0
  8 37  1  0  0  0
  9 21  1  0  0  0
  9 31  1  0  0  0
  9 38  1  0  0  0
  9 39  1  0  0  0
 10 40  1  0  0  0
 11 12  1  0  0  0
 11 14  2  0  0  0
 11 15  1  0  0  0
 12 17  1  0  0  0
 12 28  2  0  0  0
 13 28  1  0  0  0
 13 29  2  0  0  0
 13 57  1  0  0  0
 14 29  1  0  0  0
 14 31  1  0  0  0
 15 30  2  0  0  0
 15 41  1  0  0  0
 16 17  2  0  0  0
 16 18  1  0  0  0
 16 30  1  0  0  0
 17 26  1  0  0  0
 18 23  2  0  0  0
 19 20  1  0  0  0
 19 31  1  0  0  0
 19 42  1  0  0  0
 19 43  1  0  0  0
 20 22  1  0  0  0
 20 32  1  0  0  0
 20 44  1  0  0  0
 21 32  1  0  0  0
 21 45  1  0  0  0
 22 46  1  0  0  0
 22 47  1  0  0  0
 23 48  1  0  0  0
 24 25  3  0  0  0
 25 49  1  0  0  0
 32 50  1  0  0  0
 33 51  1  0  0  0
 52 55  2  0  0  0
 52 56  1  0  0  0
 52 60  1  0  0  0
 53 55  1  0  0  0
 53 57  1  0  0  0
 53 61  1  0  0  0
 54 58  1  0  0  0
 54 59  1  0  0  0
 54 62  1  0  0  0
 54 63  1  0  0  0
 55 58  1  0  0  0
 56 59  1  0  0  0
 56 64  1  0  0  0
 56 65  1  0  0  0
 57 66  1  0  0  0
 57 67  1  0  0  0
 58 68  1  0  0  0
 58 69  1  0  0  0
 59 70  1  0  0  0
 59 71  1  0  0  0
M  CHG  1  52   1
M  END
> <s_m_entry_id>
335

> <s_m_entry_name>
000000177.1

> <s_m_Source_Path>
/Users/zaksoul/Documents/3r_UNI/2nd_SEMESTER/BSC/FRAG_RECON/RESULTS/2

> <s_m_Source_File>
000000177.mol2

> <i_m_Source_File_Index>
1

$$$$
No_0_190
                    3D
 Schrodinger Suite 2022-4.
 71 77  0  0  1  0            999 V2000
   -5.4390    3.6820  -22.1840 C   0  0  0  0  0  0
   -5.6620    3.8360  -23.5320 C   0  0  0  0  0  0
   -4.2140    3.4310  -21.7980 C   0  0  0  0  0  0
   -3.2540    3.4940  -23.9370 C   0  0  0  0  0  0
   -3.1400    3.2870  -22.5060 C   0  0  0  0  0  0
   -4.5830    3.7500  -24.5070 C   0  0  0  0  0  0
   -3.7600    3.7070  -26.6800 C   0  0  0  0  0  0
    5.7950    3.0610  -21.0940 C   0  0  0  0  0  0
    5.7370    3.1350  -23.6500 C   0  0  0  0  0  0
   -4.7920    3.8420  -25.8530 C   0  0  0  0  0  0
    1.9580    3.7040  -23.8010 C   0  0  0  0  0  0
    1.1360    4.8250  -23.5570 C   0  0  0  0  0  0
    2.9200    6.0280  -22.8540 C   0  0  0  0  0  0
    3.3500    3.8950  -23.4490 C   0  0  0  0  0  0
    1.4260    2.5720  -24.4480 C   0  0  0  0  0  0
   -0.6990    3.4000  -24.4270 C   0  0  0  0  0  0
   -0.1830    4.6330  -23.8440 C   0  0  0  0  0  0
   -2.1400    3.4050  -24.8260 C   0  0  0  0  0  0
    3.9300    1.4030  -23.0710 C   0  0  0  0  0  0
    4.8250    1.0730  -21.8860 C   0  0  2  0  0  0
    6.4430    2.5890  -22.4140 C   0  0  2  0  0  0
    4.7770    2.1060  -20.7480 C   0  0  0  0  0  0
   -2.4190    3.5270  -26.2680 C   0  0  0  0  0  0
   -1.8180    2.8820  -21.8550 C   0  0  0  0  0  0
   -0.8050    2.5430  -21.3080 C   0  0  0  0  0  0
   -1.0280    5.6920  -23.5550 F   0  0  0  0  0  0
   -4.0480    3.2250  -20.4040 F   0  0  0  0  0  0
    1.6040    5.9950  -23.0420 N   0  0  0  0  0  0
    3.8160    5.0550  -23.0200 N   0  0  0  0  0  0
    0.1290    2.4820  -24.7920 N   0  0  0  0  0  0
    4.2660    2.8380  -23.5690 N   0  0  0  0  0  0
    6.2460    1.1190  -22.3260 N   0  0  1  0  0  0
   -3.8890    3.6850  -28.0750 O   0  0  0  0  0  0
   -6.2632    3.7693  -21.4853 H   0  0  0  0  0  0
   -6.6645    4.0277  -23.8973 H   0  0  0  0  0  0
    5.3350    4.0487  -21.2453 H   0  0  0  0  0  0
    6.5568    3.0882  -20.3009 H   0  0  0  0  0  0
    6.1570    2.6635  -24.5507 H   0  0  0  0  0  0
    5.8884    4.2230  -23.7075 H   0  0  0  0  0  0
   -5.7899    4.0237  -26.2355 H   0  0  0  0  0  0
    2.0681    1.7322  -24.6878 H   0  0  0  0  0  0
    2.8765    1.3616  -22.7572 H   0  0  0  0  0  0
    4.1127    0.6812  -23.8807 H   0  0  0  0  0  0
    4.5827    0.0725  -21.4983 H   0  0  0  0  0  0
    7.5140    2.8391  -22.4342 H   0  0  0  0  0  0
    3.7954    2.6024  -20.7480 H   0  0  0  0  0  0
    5.0444    1.6155  -19.8004 H   0  0  0  0  0  0
   -1.6260    3.4828  -27.0058 H   0  0  0  0  0  0
    0.0858    2.2441  -20.8261 H   0  0  0  0  0  0
    6.8681    0.6370  -21.5864 H   0  0  0  0  0  0
   -3.0317    3.5811  -28.4710 H   0  0  0  0  0  0
    6.9450    7.9880  -21.3180 N   0  3  0  0  0  0
    4.8300    7.2020  -21.8950 N   0  0  0  0  0  0
    6.2320   10.7240  -21.8030 C   0  0  0  0  0  0
    5.7120    8.2080  -21.8030 C   0  0  0  0  0  0
    7.9250    9.0510  -21.1240 C   0  0  0  0  0  0
    3.4730    7.3760  -22.4050 C   0  0  0  0  0  0
    5.2940    9.5960  -22.2660 C   0  0  0  0  0  0
    7.6770   10.2660  -22.0290 C   0  0  0  0  0  0
    7.2372    7.0333  -21.0648 H   0  0  0  0  0  0
    5.0979    6.2522  -21.6001 H   0  0  0  0  0  0
    6.0720   10.9170  -20.7320 H   0  0  0  0  0  0
    6.0371   11.6286  -22.3977 H   0  0  0  0  0  0
    8.9345    8.6562  -21.3109 H   0  0  0  0  0  0
    7.9140    9.3708  -20.0716 H   0  0  0  0  0  0
    3.4890    8.0691  -23.2591 H   0  0  0  0  0  0
    2.8340    7.7880  -21.6100 H   0  0  0  0  0  0
    5.2230    9.6080  -23.3636 H   0  0  0  0  0  0
    4.2723    9.8049  -21.9161 H   0  0  0  0  0  0
    8.3659   11.0769  -21.7500 H   0  0  0  0  0  0
    7.8080    9.9720  -23.0809 H   0  0  0  0  0  0
  1  2  2  0  0  0
  1  3  1  0  0  0
  1 34  1  0  0  0
  2  6  1  0  0  0
  2 35  1  0  0  0
  3  5  2  0  0  0
  3 27  1  0  0  0
  4  5  1  0  0  0
  4  6  2  0  0  0
  4 18  1  0  0  0
  5 24  1  0  0  0
  6 10  1  0  0  0
  7 10  2  0  0  0
  7 23  1  0  0  0
  7 33  1  0  0  0
  8 21  1  0  0  0
  8 22  1  0  0  0
  8 36  1  0  0  0
  8 37  1  0  0  0
  9 21  1  0  0  0
  9 31  1  0  0  0
  9 38  1  0  0  0
  9 39  1  0  0  0
 10 40  1  0  0  0
 11 12  1  0  0  0
 11 14  2  0  0  0
 11 15  1  0  0  0
 12 17  1  0  0  0
 12 28  2  0  0  0
 13 28  1  0  0  0
 13 29  2  0  0  0
 13 57  1  0  0  0
 14 29  1  0  0  0
 14 31  1  0  0  0
 15 30  2  0  0  0
 15 41  1  0  0  0
 16 17  2  0  0  0
 16 18  1  0  0  0
 16 30  1  0  0  0
 17 26  1  0  0  0
 18 23  2  0  0  0
 19 20  1  0  0  0
 19 31  1  0  0  0
 19 42  1  0  0  0
 19 43  1  0  0  0
 20 22  1  0  0  0
 20 32  1  0  0  0
 20 44  1  0  0  0
 21 32  1  0  0  0
 21 45  1  0  0  0
 22 46  1  0  0  0
 22 47  1  0  0  0
 23 48  1  0  0  0
 24 25  3  0  0  0
 25 49  1  0  0  0
 32 50  1  0  0  0
 33 51  1  0  0  0
 52 55  2  0  0  0
 52 56  1  0  0  0
 52 60  1  0  0  0
 53 55  1  0  0  0
 53 57  1  0  0  0
 53 61  1  0  0  0
 54 58  1  0  0  0
 54 59  1  0  0  0
 54 62  1  0  0  0
 54 63  1  0  0  0
 55 58  1  0  0  0
 56 59  1  0  0  0
 56 64  1  0  0  0
 56 65  1  0  0  0
 57 66  1  0  0  0
 57 67  1  0  0  0
 58 68  1  0  0  0
 58 69  1  0  0  0
 59 70  1  0  0  0
 59 71  1  0  0  0
M  CHG  1  52   1
M  END
> <s_m_entry_id>
336

> <s_m_entry_name>
000000178.1

> <s_m_Source_Path>
/Users/zaksoul/Documents/3r_UNI/2nd_SEMESTER/BSC/FRAG_RECON/RESULTS/2

> <s_m_Source_File>
000000178.mol2

> <i_m_Source_File_Index>
1

$$$$
No_0_191
                    3D
 Schrodinger Suite 2022-4.
 71 77  0  0  1  0            999 V2000
   -5.3980    3.3550  -22.2190 C   0  0  0  0  0  0
   -5.6090    3.5800  -23.5590 C   0  0  0  0  0  0
   -4.1750    3.0920  -21.8350 C   0  0  0  0  0  0
   -3.1950    3.2770  -23.9570 C   0  0  0  0  0  0
   -3.0930    2.9940  -22.5390 C   0  0  0  0  0  0
   -4.5200    3.5540  -24.5260 C   0  0  0  0  0  0
   -3.6740    3.6350  -26.6900 C   0  0  0  0  0  0
    5.8290    2.7510  -21.0490 C   0  0  0  0  0  0
    5.7960    2.9630  -23.5970 C   0  0  0  0  0  0
   -4.7160    3.7180  -25.8670 C   0  0  0  0  0  0
    2.0150    3.5140  -23.7560 C   0  0  0  0  0  0
    1.1820    4.6140  -23.4610 C   0  0  0  0  0  0
    2.9500    5.7900  -22.6750 C   0  0  0  0  0  0
    3.4010    3.6950  -23.3800 C   0  0  0  0  0  0
    1.4970    2.4150  -24.4690 C   0  0  0  0  0  0
   -0.6340    3.2270  -24.4250 C   0  0  0  0  0  0
   -0.1320    4.4300  -23.7720 C   0  0  0  0  0  0
   -2.0710    3.2440  -24.8390 C   0  0  0  0  0  0
    3.9950    1.1900  -23.1320 C   0  0  0  0  0  0
    4.8810    0.8020  -21.9570 C   0  0  2  0  0  0
    6.4940    2.3560  -22.3860 C   0  0  2  0  0  0
    4.8140    1.7710  -20.7650 C   0  0  0  0  0  0
   -2.3370    3.4420  -26.2740 C   0  0  0  0  0  0
   -1.7740    2.5630  -21.8970 C   0  0  0  0  0  0
   -0.7650    2.2010  -21.3580 C   0  0  0  0  0  0
   -0.9880    5.4660  -23.4340 F   0  0  0  0  0  0
   -4.0210    2.8120  -20.4520 F   0  0  0  0  0  0
    1.6360    5.7580  -22.8790 N   0  0  0  0  0  0
    3.8550    4.8330  -22.8840 N   0  0  0  0  0  0
    0.2040    2.3350  -24.8310 N   0  0  0  0  0  0
    4.3260    2.6520  -23.5480 N   0  0  0  0  0  0
    6.3060    0.8810  -22.3790 N   0  0  1  0  0  0
   -3.7900    3.6880  -28.0850 O   0  0  0  0  0  0
   -6.2296    3.3992  -21.5250 H   0  0  0  0  0  0
   -6.6091    3.7848  -23.9235 H   0  0  0  0  0  0
    5.3627    3.7421  -21.1509 H   0  0  0  0  0  0
    6.5827    2.7399  -20.2479 H   0  0  0  0  0  0
    6.2279    2.5432  -24.5174 H   0  0  0  0  0  0
    5.9394    4.0536  -23.5950 H   0  0  0  0  0  0
   -5.7113    3.9128  -26.2497 H   0  0  0  0  0  0
    2.1476    1.5937  -24.7471 H   0  0  0  0  0  0
    2.9390    1.1244  -22.8311 H   0  0  0  0  0  0
    4.1918    0.5148  -23.9778 H   0  0  0  0  0  0
    4.6418   -0.2194  -21.6260 H   0  0  0  0  0  0
    7.5635    2.6133  -22.3810 H   0  0  0  0  0  0
    3.8296    2.2617  -20.7488 H   0  0  0  0  0  0
    5.0764    1.2321  -19.8426 H   0  0  0  0  0  0
   -1.5362    3.4420  -27.0046 H   0  0  0  0  0  0
    0.1231    1.8820  -20.8840 H   0  0  0  0  0  0
    6.9244    0.3642  -21.6600 H   0  0  0  0  0  0
   -2.9284    3.6108  -28.4777 H   0  0  0  0  0  0
    6.7880    8.5430  -22.9770 N   0  3  0  0  0  0
    4.8820    7.2720  -22.5560 N   0  0  0  0  0  0
    5.5930   10.9530  -21.9790 C   0  0  0  0  0  0
    5.5020    8.4610  -22.6010 C   0  0  0  0  0  0
    7.5400    9.7940  -22.9770 C   0  0  0  0  0  0
    3.4890    7.1150  -22.1480 C   0  0  0  0  0  0
    4.7190    9.7130  -22.2300 C   0  0  0  0  0  0
    6.6400   11.0320  -23.0960 C   0  0  0  0  0  0
    7.2900    7.6980  -23.2850 H   0  0  0  0  0  0
    5.3912    6.4156  -22.8171 H   0  0  0  0  0  0
    6.1008   10.8530  -21.0084 H   0  0  0  0  0  0
    4.9646   11.8556  -22.0020 H   0  0  0  0  0  0
    8.2619    9.7860  -23.8069 H   0  0  0  0  0  0
    8.1360    9.8620  -22.0550 H   0  0  0  0  0  0
    2.8913    7.9426  -22.5578 H   0  0  0  0  0  0
    3.4260    7.1260  -21.0499 H   0  0  0  0  0  0
    3.9888    9.9351  -23.0222 H   0  0  0  0  0  0
    4.1103    9.5101  -21.3365 H   0  0  0  0  0  0
    7.2477   11.9395  -22.9651 H   0  0  0  0  0  0
    6.1349   11.0250  -24.0732 H   0  0  0  0  0  0
  1  2  2  0  0  0
  1  3  1  0  0  0
  1 34  1  0  0  0
  2  6  1  0  0  0
  2 35  1  0  0  0
  3  5  2  0  0  0
  3 27  1  0  0  0
  4  5  1  0  0  0
  4  6  2  0  0  0
  4 18  1  0  0  0
  5 24  1  0  0  0
  6 10  1  0  0  0
  7 10  2  0  0  0
  7 23  1  0  0  0
  7 33  1  0  0  0
  8 21  1  0  0  0
  8 22  1  0  0  0
  8 36  1  0  0  0
  8 37  1  0  0  0
  9 21  1  0  0  0
  9 31  1  0  0  0
  9 38  1  0  0  0
  9 39  1  0  0  0
 10 40  1  0  0  0
 11 12  1  0  0  0
 11 14  2  0  0  0
 11 15  1  0  0  0
 12 17  1  0  0  0
 12 28  2  0  0  0
 13 28  1  0  0  0
 13 29  2  0  0  0
 13 57  1  0  0  0
 14 29  1  0  0  0
 14 31  1  0  0  0
 15 30  2  0  0  0
 15 41  1  0  0  0
 16 17  2  0  0  0
 16 18  1  0  0  0
 16 30  1  0  0  0
 17 26  1  0  0  0
 18 23  2  0  0  0
 19 20  1  0  0  0
 19 31  1  0  0  0
 19 42  1  0  0  0
 19 43  1  0  0  0
 20 22  1  0  0  0
 20 32  1  0  0  0
 20 44  1  0  0  0
 21 32  1  0  0  0
 21 45  1  0  0  0
 22 46  1  0  0  0
 22 47  1  0  0  0
 23 48  1  0  0  0
 24 25  3  0  0  0
 25 49  1  0  0  0
 32 50  1  0  0  0
 33 51  1  0  0  0
 52 55  2  0  0  0
 52 56  1  0  0  0
 52 60  1  0  0  0
 53 55  1  0  0  0
 53 57  1  0  0  0
 53 61  1  0  0  0
 54 58  1  0  0  0
 54 59  1  0  0  0
 54 62  1  0  0  0
 54 63  1  0  0  0
 55 58  1  0  0  0
 56 59  1  0  0  0
 56 64  1  0  0  0
 56 65  1  0  0  0
 57 66  1  0  0  0
 57 67  1  0  0  0
 58 68  1  0  0  0
 58 69  1  0  0  0
 59 70  1  0  0  0
 59 71  1  0  0  0
M  CHG  1  52   1
M  END
> <s_m_entry_id>
337

> <s_m_entry_name>
000000179.1

> <s_m_Source_Path>
/Users/zaksoul/Documents/3r_UNI/2nd_SEMESTER/BSC/FRAG_RECON/RESULTS/2

> <s_m_Source_File>
000000179.mol2

> <i_m_Source_File_Index>
1

$$$$
No_0_192
                    3D
 Schrodinger Suite 2022-4.
 68 74  0  0  1  0            999 V2000
   -5.1470    3.4810  -21.9050 C   0  0  0  0  0  0
   -5.4170    3.6610  -23.2410 C   0  0  0  0  0  0
   -3.9110    3.2130  -21.5670 C   0  0  0  0  0  0
   -3.0280    3.3050  -23.7380 C   0  0  0  0  0  0
   -2.8640    3.0730  -22.3160 C   0  0  0  0  0  0
   -4.3740    3.5820  -24.2550 C   0  0  0  0  0  0
   -3.6300    3.5710  -26.4570 C   0  0  0  0  0  0
    6.1130    2.7470  -21.2300 C   0  0  0  0  0  0
    5.9640    2.8660  -23.7800 C   0  0  0  0  0  0
   -4.6300    3.7000  -25.5910 C   0  0  0  0  0  0
    2.1880    3.4690  -23.7850 C   0  0  0  0  0  0
    1.3850    4.5930  -23.4930 C   0  0  0  0  0  0
    3.2030    5.7690  -22.8340 C   0  0  0  0  0  0
    3.5930    3.6430  -23.4810 C   0  0  0  0  0  0
    1.6220    2.3540  -24.4330 C   0  0  0  0  0  0
   -0.4920    3.1990  -24.3200 C   0  0  0  0  0  0
    0.0550    4.4170  -23.7360 C   0  0  0  0  0  0
   -1.9470    3.2230  -24.6680 C   0  0  0  0  0  0
    4.1630    1.1390  -23.1670 C   0  0  0  0  0  0
    5.0970    0.7810  -22.0210 C   0  0  2  0  0  0
    6.7100    2.2930  -22.5800 C   0  0  2  0  0  0
    5.0990    1.7940  -20.8640 C   0  0  0  0  0  0
   -2.2770    3.3730  -26.0960 C   0  0  0  0  0  0
   -1.5230    2.6460  -21.7200 C   0  0  0  0  0  0
   -0.4950    2.2880  -21.2150 C   0  0  0  0  0  0
   -0.7700    5.4780  -23.3980 F   0  0  0  0  0  0
   -3.6970    2.9820  -20.1840 F   0  0  0  0  0  0
    1.8810    5.7500  -22.9760 N   0  0  0  0  0  0
    4.0850    4.7910  -23.0490 N   0  0  0  0  0  0
    0.3130    2.2800  -24.7310 N   0  0  0  0  0  0
    4.4940    2.5800  -23.6520 N   0  0  0  0  0  0
    6.5020    0.8230  -22.5110 N   0  0  1  0  0  0
   -3.8090    3.5750  -27.8460 O   0  0  0  0  0  0
   -5.9442    3.5633  -21.1751 H   0  0  0  0  0  0
   -6.4303    3.8669  -23.5664 H   0  0  0  0  0  0
    5.6560    3.7406  -21.3480 H   0  0  0  0  0  0
    6.9033    2.7541  -20.4649 H   0  0  0  0  0  0
    6.3474    2.4069  -24.7032 H   0  0  0  0  0  0
    6.1234    3.9535  -23.8244 H   0  0  0  0  0  0
   -5.6393    3.8966  -25.9341 H   0  0  0  0  0  0
    2.2479    1.5134  -24.7099 H   0  0  0  0  0  0
    3.1213    1.1017  -22.8157 H   0  0  0  0  0  0
    4.3114    0.4302  -23.9950 H   0  0  0  0  0  0
    4.8599   -0.2239  -21.6416 H   0  0  0  0  0  0
    7.7818    2.5342  -22.6345 H   0  0  0  0  0  0
    4.1231    2.2996  -20.8206 H   0  0  0  0  0  0
    5.3966    1.2856  -19.9350 H   0  0  0  0  0  0
   -1.5115    3.3349  -26.8625 H   0  0  0  0  0  0
    0.4099    1.9730  -20.7710 H   0  0  0  0  0  0
    7.1454    0.3228  -21.8024 H   0  0  0  0  0  0
   -2.9677    3.4701  -28.2746 H   0  0  0  0  0  0
    6.6340    7.7070  -20.1080 N   0  3  0  0  0  0
    4.7690    6.8910  -21.3300 N   0  0  0  0  0  0
    5.6890    7.8160  -21.0390 C   0  0  0  0  0  0
    7.5280    8.8380  -19.9720 C   0  0  0  0  0  0
    5.8190    9.1610  -21.7100 C   0  0  0  0  0  0
    6.7600    9.9200  -20.7540 C   0  0  0  0  0  0
    3.7840    7.1040  -22.3820 C   0  0  0  0  0  0
    6.6970    6.8536  -19.5347 H   0  0  0  0  0  0
    4.7460    6.0044  -20.8062 H   0  0  0  0  0  0
    8.4706    8.6161  -20.4938 H   0  0  0  0  0  0
    7.5830    9.1288  -18.9126 H   0  0  0  0  0  0
    4.8372    9.6569  -21.7200 H   0  0  0  0  0  0
    6.3160    9.0340  -22.6831 H   0  0  0  0  0  0
    7.4710   10.5200  -21.3410 H   0  0  0  0  0  0
    6.1617   10.5213  -20.0537 H   0  0  0  0  0  0
    4.2639    7.6029  -23.2368 H   0  0  0  0  0  0
    2.9758    7.7462  -22.0019 H   0  0  0  0  0  0
  1  2  2  0  0  0
  1  3  1  0  0  0
  1 34  1  0  0  0
  2  6  1  0  0  0
  2 35  1  0  0  0
  3  5  2  0  0  0
  3 27  1  0  0  0
  4  5  1  0  0  0
  4  6  2  0  0  0
  4 18  1  0  0  0
  5 24  1  0  0  0
  6 10  1  0  0  0
  7 10  2  0  0  0
  7 23  1  0  0  0
  7 33  1  0  0  0
  8 21  1  0  0  0
  8 22  1  0  0  0
  8 36  1  0  0  0
  8 37  1  0  0  0
  9 21  1  0  0  0
  9 31  1  0  0  0
  9 38  1  0  0  0
  9 39  1  0  0  0
 10 40  1  0  0  0
 11 12  1  0  0  0
 11 14  2  0  0  0
 11 15  1  0  0  0
 12 17  1  0  0  0
 12 28  2  0  0  0
 13 28  1  0  0  0
 13 29  2  0  0  0
 13 58  1  0  0  0
 14 29  1  0  0  0
 14 31  1  0  0  0
 15 30  2  0  0  0
 15 41  1  0  0  0
 16 17  2  0  0  0
 16 18  1  0  0  0
 16 30  1  0  0  0
 17 26  1  0  0  0
 18 23  2  0  0  0
 19 20  1  0  0  0
 19 31  1  0  0  0
 19 42  1  0  0  0
 19 43  1  0  0  0
 20 22  1  0  0  0
 20 32  1  0  0  0
 20 44  1  0  0  0
 21 32  1  0  0  0
 21 45  1  0  0  0
 22 46  1  0  0  0
 22 47  1  0  0  0
 23 48  1  0  0  0
 24 25  3  0  0  0
 25 49  1  0  0  0
 32 50  1  0  0  0
 33 51  1  0  0  0
 52 54  2  0  0  0
 52 55  1  0  0  0
 52 59  1  0  0  0
 53 54  1  0  0  0
 53 58  1  0  0  0
 53 60  1  0  0  0
 54 56  1  0  0  0
 55 57  1  0  0  0
 55 61  1  0  0  0
 55 62  1  0  0  0
 56 57  1  0  0  0
 56 63  1  0  0  0
 56 64  1  0  0  0
 57 65  1  0  0  0
 57 66  1  0  0  0
 58 67  1  0  0  0
 58 68  1  0  0  0
M  CHG  1  52   1
M  END
> <s_m_entry_id>
338

> <s_m_entry_name>
000000180.1

> <s_m_Source_Path>
/Users/zaksoul/Documents/3r_UNI/2nd_SEMESTER/BSC/FRAG_RECON/RESULTS/2

> <s_m_Source_File>
000000180.mol2

> <i_m_Source_File_Index>
1

$$$$
No_0_193
                    3D
 Schrodinger Suite 2022-4.
 68 74  0  0  1  0            999 V2000
   -5.4690    3.3810  -21.9600 C   0  0  0  0  0  0
   -5.7390    3.5840  -23.2930 C   0  0  0  0  0  0
   -4.2320    3.1170  -21.6260 C   0  0  0  0  0  0
   -3.3470    3.2570  -23.7940 C   0  0  0  0  0  0
   -3.1830    2.9990  -22.3760 C   0  0  0  0  0  0
   -4.6950    3.5330  -24.3080 C   0  0  0  0  0  0
   -3.9470    3.5690  -26.5080 C   0  0  0  0  0  0
    5.7950    2.7250  -21.2840 C   0  0  0  0  0  0
    5.6490    2.8910  -23.8320 C   0  0  0  0  0  0
   -4.9500    3.6740  -25.6410 C   0  0  0  0  0  0
    1.8680    3.4640  -23.8310 C   0  0  0  0  0  0
    1.0550    4.5750  -23.5190 C   0  0  0  0  0  0
    2.8630    5.7530  -22.8350 C   0  0  0  0  0  0
    3.2700    3.6430  -23.5210 C   0  0  0  0  0  0
    1.3120    2.3560  -24.5000 C   0  0  0  0  0  0
   -0.8100    3.1820  -24.3750 C   0  0  0  0  0  0
   -0.2730    4.3940  -23.7670 C   0  0  0  0  0  0
   -2.2640    3.2010  -24.7240 C   0  0  0  0  0  0
    3.8610    1.1390  -23.2530 C   0  0  0  0  0  0
    4.7960    0.7660  -22.1130 C   0  0  2  0  0  0
    6.3970    2.3020  -22.6420 C   0  0  2  0  0  0
    4.7890    1.7570  -20.9370 C   0  0  0  0  0  0
   -2.5930    3.3750  -26.1490 C   0  0  0  0  0  0
   -1.8390    2.5720  -21.7860 C   0  0  0  0  0  0
   -0.8090    2.2130  -21.2870 C   0  0  0  0  0  0
   -1.1070    5.4410  -23.4100 F   0  0  0  0  0  0
   -4.0180    2.8610  -20.2470 F   0  0  0  0  0  0
    1.5410    5.7260  -22.9790 N   0  0  0  0  0  0
    3.7530    4.7860  -23.0670 N   0  0  0  0  0  0
    0.0040    2.2780  -24.8010 N   0  0  0  0  0  0
    4.1810    2.5910  -23.7110 N   0  0  0  0  0  0
    6.2020    0.8290  -22.6000 N   0  0  1  0  0  0
   -4.1250    3.5980  -27.8970 O   0  0  0  0  0  0
   -6.2681    3.4432  -21.2302 H   0  0  0  0  0  0
   -6.7534    3.7879  -23.6164 H   0  0  0  0  0  0
    5.3307    3.7172  -21.3839 H   0  0  0  0  0  0
    6.5843    2.7240  -20.5179 H   0  0  0  0  0  0
    6.0378    2.4528  -24.7630 H   0  0  0  0  0  0
    5.7983    3.9806  -23.8552 H   0  0  0  0  0  0
   -5.9602    3.8688  -25.9824 H   0  0  0  0  0  0
    1.9446    1.5256  -24.7922 H   0  0  0  0  0  0
    2.8189    1.0855  -22.9050 H   0  0  0  0  0  0
    4.0153    0.4471  -24.0941 H   0  0  0  0  0  0
    4.5667   -0.2480  -21.7535 H   0  0  0  0  0  0
    7.4670    2.5523  -22.6905 H   0  0  0  0  0  0
    3.8093    2.2544  -20.8855 H   0  0  0  0  0  0
    5.0888    1.2331  -20.0174 H   0  0  0  0  0  0
   -1.8261    3.3569  -26.9149 H   0  0  0  0  0  0
    0.0980    1.8970  -20.8480 H   0  0  0  0  0  0
    6.8482    0.3198  -21.9003 H   0  0  0  0  0  0
   -3.2823    3.5080  -28.3263 H   0  0  0  0  0  0
    6.6770    7.7250  -20.7070 N   0  3  0  0  0  0
    4.6460    6.8600  -21.5830 N   0  0  0  0  0  0
    5.5380    7.8360  -21.3860 C   0  0  0  0  0  0
    7.4930    8.9180  -20.6290 C   0  0  0  0  0  0
    5.4110    9.2510  -21.8940 C   0  0  0  0  0  0
    6.4880    9.9950  -21.0810 C   0  0  0  0  0  0
    3.4330    7.0840  -22.3570 C   0  0  0  0  0  0
    6.9330    6.8261  -20.2741 H   0  0  0  0  0  0
    4.8089    5.9253  -21.1821 H   0  0  0  0  0  0
    8.3040    8.8490  -21.3690 H   0  0  0  0  0  0
    7.7681    9.0991  -19.5795 H   0  0  0  0  0  0
    4.4195    9.6448  -21.6261 H   0  0  0  0  0  0
    5.6782    9.2790  -22.9607 H   0  0  0  0  0  0
    6.9991   10.7221  -21.7291 H   0  0  0  0  0  0
    6.0250   10.4560  -20.1960 H   0  0  0  0  0  0
    3.6650    7.7171  -23.2261 H   0  0  0  0  0  0
    2.6893    7.5978  -21.7302 H   0  0  0  0  0  0
  1  2  2  0  0  0
  1  3  1  0  0  0
  1 34  1  0  0  0
  2  6  1  0  0  0
  2 35  1  0  0  0
  3  5  2  0  0  0
  3 27  1  0  0  0
  4  5  1  0  0  0
  4  6  2  0  0  0
  4 18  1  0  0  0
  5 24  1  0  0  0
  6 10  1  0  0  0
  7 10  2  0  0  0
  7 23  1  0  0  0
  7 33  1  0  0  0
  8 21  1  0  0  0
  8 22  1  0  0  0
  8 36  1  0  0  0
  8 37  1  0  0  0
  9 21  1  0  0  0
  9 31  1  0  0  0
  9 38  1  0  0  0
  9 39  1  0  0  0
 10 40  1  0  0  0
 11 12  1  0  0  0
 11 14  2  0  0  0
 11 15  1  0  0  0
 12 17  1  0  0  0
 12 28  2  0  0  0
 13 28  1  0  0  0
 13 29  2  0  0  0
 13 58  1  0  0  0
 14 29  1  0  0  0
 14 31  1  0  0  0
 15 30  2  0  0  0
 15 41  1  0  0  0
 16 17  2  0  0  0
 16 18  1  0  0  0
 16 30  1  0  0  0
 17 26  1  0  0  0
 18 23  2  0  0  0
 19 20  1  0  0  0
 19 31  1  0  0  0
 19 42  1  0  0  0
 19 43  1  0  0  0
 20 22  1  0  0  0
 20 32  1  0  0  0
 20 44  1  0  0  0
 21 32  1  0  0  0
 21 45  1  0  0  0
 22 46  1  0  0  0
 22 47  1  0  0  0
 23 48  1  0  0  0
 24 25  3  0  0  0
 25 49  1  0  0  0
 32 50  1  0  0  0
 33 51  1  0  0  0
 52 54  2  0  0  0
 52 55  1  0  0  0
 52 59  1  0  0  0
 53 54  1  0  0  0
 53 58  1  0  0  0
 53 60  1  0  0  0
 54 56  1  0  0  0
 55 57  1  0  0  0
 55 61  1  0  0  0
 55 62  1  0  0  0
 56 57  1  0  0  0
 56 63  1  0  0  0
 56 64  1  0  0  0
 57 65  1  0  0  0
 57 66  1  0  0  0
 58 67  1  0  0  0
 58 68  1  0  0  0
M  CHG  1  52   1
M  END
> <s_m_entry_id>
339

> <s_m_entry_name>
000000181.1

> <s_m_Source_Path>
/Users/zaksoul/Documents/3r_UNI/2nd_SEMESTER/BSC/FRAG_RECON/RESULTS/2

> <s_m_Source_File>
000000181.mol2

> <i_m_Source_File_Index>
1

$$$$
No_0_194
                    3D
 Schrodinger Suite 2022-4.
 68 74  0  0  1  0            999 V2000
   -5.2120    3.5720  -21.9560 C   0  0  0  0  0  0
   -5.4640    3.7420  -23.2970 C   0  0  0  0  0  0
   -3.9770    3.3300  -21.5980 C   0  0  0  0  0  0
   -3.0610    3.4320  -23.7550 C   0  0  0  0  0  0
   -2.9160    3.2070  -22.3290 C   0  0  0  0  0  0
   -4.4040    3.6810  -24.2950 C   0  0  0  0  0  0
   -3.6240    3.6780  -26.4840 C   0  0  0  0  0  0
    6.0480    3.0640  -21.0990 C   0  0  0  0  0  0
    5.9370    3.1720  -23.6510 C   0  0  0  0  0  0
   -4.6410    3.7900  -25.6340 C   0  0  0  0  0  0
    2.1510    3.7000  -23.7190 C   0  0  0  0  0  0
    1.3210    4.8080  -23.4440 C   0  0  0  0  0  0
    3.1050    6.0220  -22.7590 C   0  0  0  0  0  0
    3.5460    3.9020  -23.3920 C   0  0  0  0  0  0
    1.6180    2.5710  -24.3720 C   0  0  0  0  0  0
   -0.5150    3.3750  -24.2960 C   0  0  0  0  0  0
   -0.0010    4.6060  -23.7070 C   0  0  0  0  0  0
   -1.9640    3.3690  -24.6670 C   0  0  0  0  0  0
    4.1610    1.4110  -23.0610 C   0  0  0  0  0  0
    5.0830    1.0750  -21.8990 C   0  0  2  0  0  0
    6.6750    2.6170  -22.4370 C   0  0  2  0  0  0
    5.0470    2.0920  -20.7450 C   0  0  0  0  0  0
   -2.2740    3.5080  -26.1010 C   0  0  0  0  0  0
   -1.5760    2.8090  -21.7100 C   0  0  0  0  0  0
   -0.5500    2.4730  -21.1880 C   0  0  0  0  0  0
   -0.8520    5.6510  -23.3860 F   0  0  0  0  0  0
   -3.7810    3.1060  -20.2110 F   0  0  0  0  0  0
    1.7860    5.9760  -22.9220 N   0  0  0  0  0  0
    4.0080    5.0610  -22.9560 N   0  0  0  0  0  0
    0.3150    2.4710  -24.6910 N   0  0  0  0  0  0
    4.4720    2.8570  -23.5450 N   0  0  0  0  0  0
    6.4950    1.1440  -22.3660 N   0  0  1  0  0  0
   -3.7810    3.6740  -27.8760 O   0  0  0  0  0  0
   -6.0227    3.6402  -21.2396 H   0  0  0  0  0  0
   -6.4757    3.9277  -23.6392 H   0  0  0  0  0  0
    5.5728    4.0477  -21.2271 H   0  0  0  0  0  0
    6.8251    3.0882  -20.3209 H   0  0  0  0  0  0
    6.3447    2.7179  -24.5662 H   0  0  0  0  0  0
    6.0753    4.2623  -23.6964 H   0  0  0  0  0  0
   -5.6482    3.9647  -25.9945 H   0  0  0  0  0  0
    2.2646    1.7417  -24.6351 H   0  0  0  0  0  0
    3.1148    1.3545  -22.7260 H   0  0  0  0  0  0
    4.3366    0.7034  -23.8847 H   0  0  0  0  0  0
    4.8599    0.0666  -21.5205 H   0  0  0  0  0  0
    7.7425    2.8796  -22.4754 H   0  0  0  0  0  0
    4.0606    2.5781  -20.7198 H   0  0  0  0  0  0
    5.3397    1.5913  -19.8103 H   0  0  0  0  0  0
   -1.4953    3.4819  -26.8546 H   0  0  0  0  0  0
    0.3541    2.1780  -20.7290 H   0  0  0  0  0  0
    7.1376    0.6586  -21.6464 H   0  0  0  0  0  0
   -2.9309    3.5849  -28.2906 H   0  0  0  0  0  0
    7.1110    8.2220  -21.3220 N   0  3  0  0  0  0
    5.0180    7.2180  -21.8210 N   0  0  0  0  0  0
    5.8470    8.2630  -21.7360 C   0  0  0  0  0  0
    7.8230    9.4830  -21.3180 C   0  0  0  0  0  0
    5.4960    9.6880  -22.0860 C   0  0  0  0  0  0
    6.6580   10.4810  -21.4580 C   0  0  0  0  0  0
    3.6520    7.3700  -22.3020 C   0  0  0  0  0  0
    7.5279    7.3272  -21.0281 H   0  0  0  0  0  0
    5.3409    6.2802  -21.5431 H   0  0  0  0  0  0
    8.4582    9.5410  -22.2142 H   0  0  0  0  0  0
    8.3021    9.6230  -20.3378 H   0  0  0  0  0  0
    4.5570    9.9640  -21.5840 H   0  0  0  0  0  0
    5.5230    9.8100  -23.1789 H   0  0  0  0  0  0
    6.9540   11.2950  -22.1360 H   0  0  0  0  0  0
    6.3611   10.8369  -20.4604 H   0  0  0  0  0  0
    3.6370    8.0762  -23.1452 H   0  0  0  0  0  0
    3.0200    7.7670  -21.4940 H   0  0  0  0  0  0
  1  2  2  0  0  0
  1  3  1  0  0  0
  1 34  1  0  0  0
  2  6  1  0  0  0
  2 35  1  0  0  0
  3  5  2  0  0  0
  3 27  1  0  0  0
  4  5  1  0  0  0
  4  6  2  0  0  0
  4 18  1  0  0  0
  5 24  1  0  0  0
  6 10  1  0  0  0
  7 10  2  0  0  0
  7 23  1  0  0  0
  7 33  1  0  0  0
  8 21  1  0  0  0
  8 22  1  0  0  0
  8 36  1  0  0  0
  8 37  1  0  0  0
  9 21  1  0  0  0
  9 31  1  0  0  0
  9 38  1  0  0  0
  9 39  1  0  0  0
 10 40  1  0  0  0
 11 12  1  0  0  0
 11 14  2  0  0  0
 11 15  1  0  0  0
 12 17  1  0  0  0
 12 28  2  0  0  0
 13 28  1  0  0  0
 13 29  2  0  0  0
 13 58  1  0  0  0
 14 29  1  0  0  0
 14 31  1  0  0  0
 15 30  2  0  0  0
 15 41  1  0  0  0
 16 17  2  0  0  0
 16 18  1  0  0  0
 16 30  1  0  0  0
 17 26  1  0  0  0
 18 23  2  0  0  0
 19 20  1  0  0  0
 19 31  1  0  0  0
 19 42  1  0  0  0
 19 43  1  0  0  0
 20 22  1  0  0  0
 20 32  1  0  0  0
 20 44  1  0  0  0
 21 32  1  0  0  0
 21 45  1  0  0  0
 22 46  1  0  0  0
 22 47  1  0  0  0
 23 48  1  0  0  0
 24 25  3  0  0  0
 25 49  1  0  0  0
 32 50  1  0  0  0
 33 51  1  0  0  0
 52 54  2  0  0  0
 52 55  1  0  0  0
 52 59  1  0  0  0
 53 54  1  0  0  0
 53 58  1  0  0  0
 53 60  1  0  0  0
 54 56  1  0  0  0
 55 57  1  0  0  0
 55 61  1  0  0  0
 55 62  1  0  0  0
 56 57  1  0  0  0
 56 63  1  0  0  0
 56 64  1  0  0  0
 57 65  1  0  0  0
 57 66  1  0  0  0
 58 67  1  0  0  0
 58 68  1  0  0  0
M  CHG  1  52   1
M  END
> <s_m_entry_id>
340

> <s_m_entry_name>
000000182.1

> <s_m_Source_Path>
/Users/zaksoul/Documents/3r_UNI/2nd_SEMESTER/BSC/FRAG_RECON/RESULTS/2

> <s_m_Source_File>
000000182.mol2

> <i_m_Source_File_Index>
1

$$$$
No_0_195
                    3D
 Schrodinger Suite 2022-4.
 68 74  0  0  1  0            999 V2000
   -5.2670    3.5660  -21.8310 C   0  0  0  0  0  0
   -5.5340    3.7820  -23.1620 C   0  0  0  0  0  0
   -4.0300    3.2990  -21.4970 C   0  0  0  0  0  0
   -3.1420    3.4600  -23.6610 C   0  0  0  0  0  0
   -2.9800    3.1880  -22.2460 C   0  0  0  0  0  0
   -4.4880    3.7410  -24.1750 C   0  0  0  0  0  0
   -3.7370    3.7990  -26.3730 C   0  0  0  0  0  0
    5.9960    2.9030  -21.1400 C   0  0  0  0  0  0
    5.8540    3.0940  -23.6860 C   0  0  0  0  0  0
   -4.7410    3.8950  -25.5070 C   0  0  0  0  0  0
    2.0730    3.6670  -23.6860 C   0  0  0  0  0  0
    1.2600    4.7750  -23.3650 C   0  0  0  0  0  0
    3.0670    5.9460  -22.6660 C   0  0  0  0  0  0
    3.4750    3.8430  -23.3720 C   0  0  0  0  0  0
    1.5180    2.5660  -24.3670 C   0  0  0  0  0  0
   -0.6030    3.3910  -24.2380 C   0  0  0  0  0  0
   -0.0680    4.5960  -23.6170 C   0  0  0  0  0  0
   -2.0570    3.4130  -24.5890 C   0  0  0  0  0  0
    4.0650    1.3360  -23.1280 C   0  0  0  0  0  0
    4.9980    0.9530  -21.9900 C   0  0  2  0  0  0
    6.6000    2.4930  -22.5000 C   0  0  2  0  0  0
    4.9890    1.9320  -20.8040 C   0  0  0  0  0  0
   -2.3840    3.6020  -26.0140 C   0  0  0  0  0  0
   -1.6380    2.7550  -21.6570 C   0  0  0  0  0  0
   -0.6080    2.3910  -21.1600 C   0  0  0  0  0  0
   -0.9020    5.6400  -23.2510 F   0  0  0  0  0  0
   -3.8190    3.0290  -20.1200 F   0  0  0  0  0  0
    1.7450    5.9210  -22.8120 N   0  0  0  0  0  0
    3.9570    4.9820  -22.9060 N   0  0  0  0  0  0
    0.2110    2.4910  -24.6720 N   0  0  0  0  0  0
    4.3860    2.7920  -23.5700 N   0  0  0  0  0  0
    6.4050    1.0200  -22.4740 N   0  0  1  0  0  0
   -3.9120    3.8410  -27.7620 O   0  0  0  0  0  0
   -6.0673    3.6212  -21.1019 H   0  0  0  0  0  0
   -6.5479    3.9898  -23.4842 H   0  0  0  0  0  0
    5.5317    3.8962  -21.2298 H   0  0  0  0  0  0
    6.7833    2.8939  -20.3719 H   0  0  0  0  0  0
    6.2446    2.6651  -24.6206 H   0  0  0  0  0  0
    6.0043    4.1836  -23.6981 H   0  0  0  0  0  0
   -5.7505    4.0937  -25.8482 H   0  0  0  0  0  0
    2.1510    1.7384  -24.6660 H   0  0  0  0  0  0
    3.0224    1.2795  -22.7818 H   0  0  0  0  0  0
    4.2214    0.6527  -23.9758 H   0  0  0  0  0  0
    4.7679   -0.0644  -21.6408 H   0  0  0  0  0  0
    7.6700    2.7441  -22.5444 H   0  0  0  0  0  0
    4.0084    2.4274  -20.7495 H   0  0  0  0  0  0
    5.2878    1.3990  -19.8894 H   0  0  0  0  0  0
   -1.6150    3.5910  -26.7780 H   0  0  0  0  0  0
    0.2978    2.0701  -20.7221 H   0  0  0  0  0  0
    7.0499    0.5045  -21.7778 H   0  0  0  0  0  0
   -3.0683    3.7559  -28.1903 H   0  0  0  0  0  0
    6.8330    8.8770  -23.1010 N   0  3  0  0  0  0
    5.0080    7.4300  -22.6350 N   0  0  0  0  0  0
    5.5930    8.6310  -22.6840 C   0  0  0  0  0  0
    7.2540   10.2610  -23.0720 C   0  0  0  0  0  0
    4.9540    9.9320  -22.2650 C   0  0  0  0  0  0
    6.1630   10.8840  -22.1800 C   0  0  0  0  0  0
    3.6360    7.2720  -22.1730 C   0  0  0  0  0  0
    7.4319    8.1021  -23.4200 H   0  0  0  0  0  0
    5.5292    6.5907  -22.9261 H   0  0  0  0  0  0
    7.1760   10.6829  -24.0849 H   0  0  0  0  0  0
    8.2239   10.3320  -22.5580 H   0  0  0  0  0  0
    4.5148    9.8139  -21.2634 H   0  0  0  0  0  0
    4.2777   10.2762  -23.0614 H   0  0  0  0  0  0
    5.8820   11.8690  -22.5810 H   0  0  0  0  0  0
    6.5220   10.9270  -21.1411 H   0  0  0  0  0  0
    3.0224    8.0995  -22.5587 H   0  0  0  0  0  0
    3.6140    7.2950  -21.0735 H   0  0  0  0  0  0
  1  2  2  0  0  0
  1  3  1  0  0  0
  1 34  1  0  0  0
  2  6  1  0  0  0
  2 35  1  0  0  0
  3  5  2  0  0  0
  3 27  1  0  0  0
  4  5  1  0  0  0
  4  6  2  0  0  0
  4 18  1  0  0  0
  5 24  1  0  0  0
  6 10  1  0  0  0
  7 10  2  0  0  0
  7 23  1  0  0  0
  7 33  1  0  0  0
  8 21  1  0  0  0
  8 22  1  0  0  0
  8 36  1  0  0  0
  8 37  1  0  0  0
  9 21  1  0  0  0
  9 31  1  0  0  0
  9 38  1  0  0  0
  9 39  1  0  0  0
 10 40  1  0  0  0
 11 12  1  0  0  0
 11 14  2  0  0  0
 11 15  1  0  0  0
 12 17  1  0  0  0
 12 28  2  0  0  0
 13 28  1  0  0  0
 13 29  2  0  0  0
 13 58  1  0  0  0
 14 29  1  0  0  0
 14 31  1  0  0  0
 15 30  2  0  0  0
 15 41  1  0  0  0
 16 17  2  0  0  0
 16 18  1  0  0  0
 16 30  1  0  0  0
 17 26  1  0  0  0
 18 23  2  0  0  0
 19 20  1  0  0  0
 19 31  1  0  0  0
 19 42  1  0  0  0
 19 43  1  0  0  0
 20 22  1  0  0  0
 20 32  1  0  0  0
 20 44  1  0  0  0
 21 32  1  0  0  0
 21 45  1  0  0  0
 22 46  1  0  0  0
 22 47  1  0  0  0
 23 48  1  0  0  0
 24 25  3  0  0  0
 25 49  1  0  0  0
 32 50  1  0  0  0
 33 51  1  0  0  0
 52 54  2  0  0  0
 52 55  1  0  0  0
 52 59  1  0  0  0
 53 54  1  0  0  0
 53 58  1  0  0  0
 53 60  1  0  0  0
 54 56  1  0  0  0
 55 57  1  0  0  0
 55 61  1  0  0  0
 55 62  1  0  0  0
 56 57  1  0  0  0
 56 63  1  0  0  0
 56 64  1  0  0  0
 57 65  1  0  0  0
 57 66  1  0  0  0
 58 67  1  0  0  0
 58 68  1  0  0  0
M  CHG  1  52   1
M  END
> <s_m_entry_id>
341

> <s_m_entry_name>
000000183.1

> <s_m_Source_Path>
/Users/zaksoul/Documents/3r_UNI/2nd_SEMESTER/BSC/FRAG_RECON/RESULTS/2

> <s_m_Source_File>
000000183.mol2

> <i_m_Source_File_Index>
1

$$$$
No_0_196
                    3D
 Schrodinger Suite 2022-4.
 68 74  0  0  1  0            999 V2000
   -5.0680    3.7420  -21.9290 C   0  0  0  0  0  0
   -5.2910    3.9760  -23.2650 C   0  0  0  0  0  0
   -3.8430    3.4730  -21.5570 C   0  0  0  0  0  0
   -2.8810    3.6680  -23.6870 C   0  0  0  0  0  0
   -2.7670    3.3750  -22.2710 C   0  0  0  0  0  0
   -4.2100    3.9530  -24.2420 C   0  0  0  0  0  0
   -3.3840    4.0450  -26.4130 C   0  0  0  0  0  0
    6.1670    3.0980  -20.8620 C   0  0  0  0  0  0
    6.1110    3.3260  -23.4090 C   0  0  0  0  0  0
   -4.4180    4.1260  -25.5800 C   0  0  0  0  0  0
    2.3310    3.8880  -23.5300 C   0  0  0  0  0  0
    1.5040    4.9900  -23.2210 C   0  0  0  0  0  0
    3.2820    6.1550  -22.4430 C   0  0  0  0  0  0
    3.7210    4.0630  -23.1660 C   0  0  0  0  0  0
    1.8030    2.7960  -24.2460 C   0  0  0  0  0  0
   -0.3240    3.6140  -24.1770 C   0  0  0  0  0  0
    0.1860    4.8110  -23.5210 C   0  0  0  0  0  0
   -1.7650    3.6370  -24.5780 C   0  0  0  0  0  0
    4.3100    1.5550  -22.9380 C   0  0  0  0  0  0
    5.2050    1.1570  -21.7740 C   0  0  2  0  0  0
    6.8180    2.7090  -22.2070 C   0  0  2  0  0  0
    5.1510    2.1190  -20.5760 C   0  0  0  0  0  0
   -2.0430    3.8450  -26.0100 C   0  0  0  0  0  0
   -1.4440    2.9370  -21.6430 C   0  0  0  0  0  0
   -0.4320    2.5690  -21.1160 C   0  0  0  0  0  0
   -0.6640    5.8470  -23.1690 F   0  0  0  0  0  0
   -3.6780    3.1830  -20.1770 F   0  0  0  0  0  0
    1.9660    6.1280  -22.6360 N   0  0  0  0  0  0
    4.1830    5.1970  -22.6670 N   0  0  0  0  0  0
    0.5070    2.7220  -24.5960 N   0  0  0  0  0  0
    4.6410    3.0180  -23.3480 N   0  0  0  0  0  0
    6.6260    1.2350  -22.2080 N   0  0  1  0  0  0
   -3.5110    4.1070  -27.8060 O   0  0  0  0  0  0
   -5.8927    3.7841  -21.2267 H   0  0  0  0  0  0
   -6.2937    4.1858  -23.6193 H   0  0  0  0  0  0
    5.7028    4.0910  -20.9538 H   0  0  0  0  0  0
    6.9279    3.0798  -20.0678 H   0  0  0  0  0  0
    6.5349    2.9112  -24.3354 H   0  0  0  0  0  0
    6.2584    4.4161  -23.4009 H   0  0  0  0  0  0
   -5.4162    4.3258  -25.9526 H   0  0  0  0  0  0
    2.4486    1.9747  -24.5352 H   0  0  0  0  0  0
    3.2565    1.4904  -22.6282 H   0  0  0  0  0  0
    4.4967    0.8847  -23.7900 H   0  0  0  0  0  0
    4.9657    0.1341  -21.4478 H   0  0  0  0  0  0
    7.8882    2.9632  -22.2110 H   0  0  0  0  0  0
    4.1679    2.6116  -20.5477 H   0  0  0  0  0  0
    5.4203    1.5743  -19.6591 H   0  0  0  0  0  0
   -1.2489    3.8480  -26.7479 H   0  0  0  0  0  0
    0.4594    2.2442  -20.6523 H   0  0  0  0  0  0
    7.2492    0.7112  -21.4983 H   0  0  0  0  0  0
   -2.6531    4.0298  -28.2067 H   0  0  0  0  0  0
    6.6450    9.4770  -23.2240 N   0  3  0  0  0  0
    5.0680    7.8160  -22.6000 N   0  0  0  0  0  0
    5.5350    9.0680  -22.6150 C   0  0  0  0  0  0
    6.9530   10.8870  -23.1110 C   0  0  0  0  0  0
    4.8900   10.2500  -21.9340 C   0  0  0  0  0  0
    6.0130   11.3050  -21.9640 C   0  0  0  0  0  0
    3.8300    7.4760  -21.9130 C   0  0  0  0  0  0
    7.2301    8.8029  -23.7381 H   0  0  0  0  0  0
    5.5863    7.0666  -23.0803 H   0  0  0  0  0  0
    6.6449   11.3992  -24.0344 H   0  0  0  0  0  0
    7.9962   11.0030  -22.7819 H   0  0  0  0  0  0
    4.6661    9.9881  -20.8894 H   0  0  0  0  0  0
    4.0453   10.6029  -22.5438 H   0  0  0  0  0  0
    5.5811   12.2918  -22.1870 H   0  0  0  0  0  0
    6.5639   11.2790  -21.0122 H   0  0  0  0  0  0
    3.0889    8.2721  -22.0770 H   0  0  0  0  0  0
    4.0220    7.3850  -20.8337 H   0  0  0  0  0  0
  1  2  2  0  0  0
  1  3  1  0  0  0
  1 34  1  0  0  0
  2  6  1  0  0  0
  2 35  1  0  0  0
  3  5  2  0  0  0
  3 27  1  0  0  0
  4  5  1  0  0  0
  4  6  2  0  0  0
  4 18  1  0  0  0
  5 24  1  0  0  0
  6 10  1  0  0  0
  7 10  2  0  0  0
  7 23  1  0  0  0
  7 33  1  0  0  0
  8 21  1  0  0  0
  8 22  1  0  0  0
  8 36  1  0  0  0
  8 37  1  0  0  0
  9 21  1  0  0  0
  9 31  1  0  0  0
  9 38  1  0  0  0
  9 39  1  0  0  0
 10 40  1  0  0  0
 11 12  1  0  0  0
 11 14  2  0  0  0
 11 15  1  0  0  0
 12 17  1  0  0  0
 12 28  2  0  0  0
 13 28  1  0  0  0
 13 29  2  0  0  0
 13 58  1  0  0  0
 14 29  1  0  0  0
 14 31  1  0  0  0
 15 30  2  0  0  0
 15 41  1  0  0  0
 16 17  2  0  0  0
 16 18  1  0  0  0
 16 30  1  0  0  0
 17 26  1  0  0  0
 18 23  2  0  0  0
 19 20  1  0  0  0
 19 31  1  0  0  0
 19 42  1  0  0  0
 19 43  1  0  0  0
 20 22  1  0  0  0
 20 32  1  0  0  0
 20 44  1  0  0  0
 21 32  1  0  0  0
 21 45  1  0  0  0
 22 46  1  0  0  0
 22 47  1  0  0  0
 23 48  1  0  0  0
 24 25  3  0  0  0
 25 49  1  0  0  0
 32 50  1  0  0  0
 33 51  1  0  0  0
 52 54  2  0  0  0
 52 55  1  0  0  0
 52 59  1  0  0  0
 53 54  1  0  0  0
 53 58  1  0  0  0
 53 60  1  0  0  0
 54 56  1  0  0  0
 55 57  1  0  0  0
 55 61  1  0  0  0
 55 62  1  0  0  0
 56 57  1  0  0  0
 56 63  1  0  0  0
 56 64  1  0  0  0
 57 65  1  0  0  0
 57 66  1  0  0  0
 58 67  1  0  0  0
 58 68  1  0  0  0
M  CHG  1  52   1
M  END
> <s_m_entry_id>
342

> <s_m_entry_name>
000000184.1

> <s_m_Source_Path>
/Users/zaksoul/Documents/3r_UNI/2nd_SEMESTER/BSC/FRAG_RECON/RESULTS/2

> <s_m_Source_File>
000000184.mol2

> <i_m_Source_File_Index>
1

$$$$
No_0_197
                    3D
 Schrodinger Suite 2022-4.
 68 74  0  0  1  0            999 V2000
   -5.3670    3.6840  -21.3780 C   0  0  0  0  0  0
   -5.6610    3.9420  -22.6960 C   0  0  0  0  0  0
   -4.1230    3.4100  -21.0780 C   0  0  0  0  0  0
   -3.2780    3.6460  -23.2530 C   0  0  0  0  0  0
   -3.0880    3.3280  -21.8510 C   0  0  0  0  0  0
   -4.6360    3.9390  -23.7310 C   0  0  0  0  0  0
   -3.9280    4.0720  -25.9410 C   0  0  0  0  0  0
    5.9100    3.0390  -20.9340 C   0  0  0  0  0  0
    5.7160    3.3140  -23.4690 C   0  0  0  0  0  0
   -4.9150    4.1360  -25.0520 C   0  0  0  0  0  0
    1.9350    3.8720  -23.3760 C   0  0  0  0  0  0
    1.1250    4.9660  -23.0020 C   0  0  0  0  0  0
    2.9420    6.1200  -22.3000 C   0  0  0  0  0  0
    3.3420    4.0430  -23.0840 C   0  0  0  0  0  0
    1.3700    2.7920  -24.0810 C   0  0  0  0  0  0
   -0.7520    3.6050  -23.8830 C   0  0  0  0  0  0
   -0.2070    4.7910  -23.2330 C   0  0  0  0  0  0
   -2.2120    3.6330  -24.2040 C   0  0  0  0  0  0
    3.9440    1.5310  -22.9340 C   0  0  0  0  0  0
    4.9010    1.1140  -21.8280 C   0  0  2  0  0  0
    6.4880    2.6760  -22.3190 C   0  0  2  0  0  0
    4.9120    2.0540  -20.6110 C   0  0  0  0  0  0
   -2.5680    3.8670  -25.6150 C   0  0  0  0  0  0
   -1.7320    2.8800  -21.3040 C   0  0  0  0  0  0
   -0.6920    2.5040  -20.8400 C   0  0  0  0  0  0
   -1.0370    5.8190  -22.8160 F   0  0  0  0  0  0
   -3.8830    3.0960  -19.7150 F   0  0  0  0  0  0
    1.6180    6.0950  -22.4210 N   0  0  0  0  0  0
    3.8290    5.1680  -22.5890 N   0  0  0  0  0  0
    0.0570    2.7220  -24.3620 N   0  0  0  0  0  0
    4.2520    3.0030  -23.3350 N   0  0  0  0  0  0
    6.2970    1.2020  -22.3370 N   0  0  1  0  0  0
   -4.1310    4.1590  -27.3240 O   0  0  0  0  0  0
   -6.1531    3.7111  -20.6321 H   0  0  0  0  0  0
   -6.6815    4.1567  -22.9920 H   0  0  0  0  0  0
    5.4409    4.0328  -20.9824 H   0  0  0  0  0  0
    6.7128    3.0077  -20.1827 H   0  0  0  0  0  0
    6.0893    2.9165  -24.4243 H   0  0  0  0  0  0
    5.8633    4.4039  -23.4488 H   0  0  0  0  0  0
   -5.9322    4.3406  -25.3660 H   0  0  0  0  0  0
    1.9992    1.9771  -24.4202 H   0  0  0  0  0  0
    2.9085    1.4604  -22.5697 H   0  0  0  0  0  0
    4.0853    0.8770  -23.8071 H   0  0  0  0  0  0
    4.6810    0.0848  -21.5081 H   0  0  0  0  0  0
    7.5561    2.9324  -22.3765 H   0  0  0  0  0  0
    3.9317    2.5447  -20.5201 H   0  0  0  0  0  0
    5.2309    1.4919  -19.7209 H   0  0  0  0  0  0
   -1.8148    3.8851  -26.3943 H   0  0  0  0  0  0
    0.2232    2.1719  -20.4309 H   0  0  0  0  0  0
    6.9579    0.6662  -21.6718 H   0  0  0  0  0  0
   -3.2957    4.0907  -27.7713 H   0  0  0  0  0  0
    5.8150    9.7680  -23.4830 N   0  3  0  0  0  0
    4.5340    7.9320  -22.6890 N   0  0  0  0  0  0
    4.9060    9.2160  -22.6820 C   0  0  0  0  0  0
    6.0530   11.1840  -23.2980 C   0  0  0  0  0  0
    4.3680   10.2770  -21.7530 C   0  0  0  0  0  0
    5.3850   11.4210  -21.9310 C   0  0  0  0  0  0
    3.5160    7.4320  -21.7760 C   0  0  0  0  0  0
    6.3022    9.1908  -24.1833 H   0  0  0  0  0  0
    4.9699    7.2731  -23.3499 H   0  0  0  0  0  0
    5.5041   11.7449  -24.0688 H   0  0  0  0  0  0
    7.1352   11.3590  -23.2070 H   0  0  0  0  0  0
    4.4140    9.9088  -20.7175 H   0  0  0  0  0  0
    3.3830   10.6080  -22.1140 H   0  0  0  0  0  0
    4.8531   12.3838  -21.9460 H   0  0  0  0  0  0
    6.1449   11.3600  -21.1381 H   0  0  0  0  0  0
    2.7096    8.1744  -21.6839 H   0  0  0  0  0  0
    3.9627    7.2651  -20.7847 H   0  0  0  0  0  0
  1  2  2  0  0  0
  1  3  1  0  0  0
  1 34  1  0  0  0
  2  6  1  0  0  0
  2 35  1  0  0  0
  3  5  2  0  0  0
  3 27  1  0  0  0
  4  5  1  0  0  0
  4  6  2  0  0  0
  4 18  1  0  0  0
  5 24  1  0  0  0
  6 10  1  0  0  0
  7 10  2  0  0  0
  7 23  1  0  0  0
  7 33  1  0  0  0
  8 21  1  0  0  0
  8 22  1  0  0  0
  8 36  1  0  0  0
  8 37  1  0  0  0
  9 21  1  0  0  0
  9 31  1  0  0  0
  9 38  1  0  0  0
  9 39  1  0  0  0
 10 40  1  0  0  0
 11 12  1  0  0  0
 11 14  2  0  0  0
 11 15  1  0  0  0
 12 17  1  0  0  0
 12 28  2  0  0  0
 13 28  1  0  0  0
 13 29  2  0  0  0
 13 58  1  0  0  0
 14 29  1  0  0  0
 14 31  1  0  0  0
 15 30  2  0  0  0
 15 41  1  0  0  0
 16 17  2  0  0  0
 16 18  1  0  0  0
 16 30  1  0  0  0
 17 26  1  0  0  0
 18 23  2  0  0  0
 19 20  1  0  0  0
 19 31  1  0  0  0
 19 42  1  0  0  0
 19 43  1  0  0  0
 20 22  1  0  0  0
 20 32  1  0  0  0
 20 44  1  0  0  0
 21 32  1  0  0  0
 21 45  1  0  0  0
 22 46  1  0  0  0
 22 47  1  0  0  0
 23 48  1  0  0  0
 24 25  3  0  0  0
 25 49  1  0  0  0
 32 50  1  0  0  0
 33 51  1  0  0  0
 52 54  2  0  0  0
 52 55  1  0  0  0
 52 59  1  0  0  0
 53 54  1  0  0  0
 53 58  1  0  0  0
 53 60  1  0  0  0
 54 56  1  0  0  0
 55 57  1  0  0  0
 55 61  1  0  0  0
 55 62  1  0  0  0
 56 57  1  0  0  0
 56 63  1  0  0  0
 56 64  1  0  0  0
 57 65  1  0  0  0
 57 66  1  0  0  0
 58 67  1  0  0  0
 58 68  1  0  0  0
M  CHG  1  52   1
M  END
> <s_m_entry_id>
343

> <s_m_entry_name>
000000185.1

> <s_m_Source_Path>
/Users/zaksoul/Documents/3r_UNI/2nd_SEMESTER/BSC/FRAG_RECON/RESULTS/2

> <s_m_Source_File>
000000185.mol2

> <i_m_Source_File_Index>
1

$$$$
No_0_198
                    3D
 Schrodinger Suite 2022-4.
 69 75  0  0  1  0            999 V2000
   -5.2680    3.5210  -21.7620 C   0  0  0  0  0  0
   -5.5420    3.7100  -23.0960 C   0  0  0  0  0  0
   -4.0280    3.2630  -21.4300 C   0  0  0  0  0  0
   -3.1520    3.3820  -23.6020 C   0  0  0  0  0  0
   -2.9820    3.1390  -22.1820 C   0  0  0  0  0  0
   -4.5020    3.6510  -24.1140 C   0  0  0  0  0  0
   -3.7620    3.6660  -26.3170 C   0  0  0  0  0  0
    6.0010    2.8940  -21.1200 C   0  0  0  0  0  0
    5.8450    3.0340  -23.6690 C   0  0  0  0  0  0
   -4.7620    3.7770  -25.4480 C   0  0  0  0  0  0
    2.0630    3.5990  -23.6600 C   0  0  0  0  0  0
    1.2490    4.7120  -23.3560 C   0  0  0  0  0  0
    3.0570    5.9000  -22.6910 C   0  0  0  0  0  0
    3.4660    3.7840  -23.3570 C   0  0  0  0  0  0
    1.5060    2.4830  -24.3160 C   0  0  0  0  0  0
   -0.6160    3.3070  -24.1910 C   0  0  0  0  0  0
   -0.0800    4.5250  -23.5970 C   0  0  0  0  0  0
   -2.0720    3.3190  -24.5350 C   0  0  0  0  0  0
    4.0620    1.2840  -23.0660 C   0  0  0  0  0  0
    5.0020    0.9250  -21.9250 C   0  0  2  0  0  0
    6.5980    2.4580  -22.4750 C   0  0  2  0  0  0
    4.9970    1.9280  -20.7600 C   0  0  0  0  0  0
   -2.4070    3.4780  -25.9610 C   0  0  0  0  0  0
   -1.6350    2.7200  -21.5930 C   0  0  0  0  0  0
   -0.6030    2.3690  -21.0940 C   0  0  0  0  0  0
   -0.9140    5.5750  -23.2480 F   0  0  0  0  0  0
   -3.8090    3.0210  -20.0490 F   0  0  0  0  0  0
    1.7350    5.8690  -22.8300 N   0  0  0  0  0  0
    3.9480    4.9330  -22.9160 N   0  0  0  0  0  0
    0.1980    2.3990  -24.6120 N   0  0  0  0  0  0
    4.3780    2.7310  -23.5390 N   0  0  0  0  0  0
    6.4060    0.9850  -22.4180 N   0  0  1  0  0  0
   -3.9450    3.6800  -27.7060 O   0  0  0  0  0  0
   -6.0644    3.5893  -21.0298 H   0  0  0  0  0  0
   -6.5580    3.9088  -23.4173 H   0  0  0  0  0  0
    5.5338    3.8840  -21.2280 H   0  0  0  0  0  0
    6.7923    2.9021  -20.3559 H   0  0  0  0  0  0
    6.2306    2.5858  -24.5966 H   0  0  0  0  0  0
    5.9924    4.1235  -23.7043 H   0  0  0  0  0  0
   -5.7739    3.9667  -25.7873 H   0  0  0  0  0  0
    2.1394    1.6508  -24.6011 H   0  0  0  0  0  0
    3.0215    1.2325  -22.7128 H   0  0  0  0  0  0
    4.2154    0.5838  -23.9004 H   0  0  0  0  0  0
    4.7758   -0.0857  -21.5544 H   0  0  0  0  0  0
    7.6673    2.7102  -22.5305 H   0  0  0  0  0  0
    4.0162    2.4234  -20.7095 H   0  0  0  0  0  0
    5.3015    1.4138  -19.8365 H   0  0  0  0  0  0
   -1.6427    3.4539  -26.7293 H   0  0  0  0  0  0
    0.3060    2.0590  -20.6550 H   0  0  0  0  0  0
    7.0561    0.4846  -21.7155 H   0  0  0  0  0  0
   -3.1036    3.5871  -28.1371 H   0  0  0  0  0  0
    7.6150    7.5660  -19.4580 N   0  0  0  0  0  0
    4.2910    7.1220  -20.9140 N   0  0  0  0  0  0
    9.4280    8.9830  -20.0000 N   0  0  0  0  0  0
    5.5960    7.6070  -20.7070 C   0  0  0  0  0  0
    3.6260    7.2370  -22.2280 C   0  0  0  0  0  0
    7.4110    9.0710  -21.2860 C   0  0  0  0  0  0
    8.1560    8.5340  -20.2410 C   0  0  0  0  0  0
    6.3460    7.1040  -19.6890 C   0  0  0  0  0  0
    6.1480    8.6210  -21.5130 C   0  0  0  0  0  0
    8.1599    7.1691  -18.6792 H   0  0  0  0  0  0
    3.7790    6.6750  -20.1400 H   0  0  0  0  0  0
    9.8358    9.7177  -20.5957 H   0  0  0  0  0  0
    9.9769    8.5861  -19.2241 H   0  0  0  0  0  0
    4.3475    7.6047  -22.9725 H   0  0  0  0  0  0
    2.8153    7.9778  -22.1650 H   0  0  0  0  0  0
    7.8381    9.8452  -21.9131 H   0  0  0  0  0  0
    5.9271    6.3292  -19.0571 H   0  0  0  0  0  0
    5.5659    9.0471  -22.3221 H   0  0  0  0  0  0
  1  2  2  0  0  0
  1  3  1  0  0  0
  1 34  1  0  0  0
  2  6  1  0  0  0
  2 35  1  0  0  0
  3  5  2  0  0  0
  3 27  1  0  0  0
  4  5  1  0  0  0
  4  6  2  0  0  0
  4 18  1  0  0  0
  5 24  1  0  0  0
  6 10  1  0  0  0
  7 10  2  0  0  0
  7 23  1  0  0  0
  7 33  1  0  0  0
  8 21  1  0  0  0
  8 22  1  0  0  0
  8 36  1  0  0  0
  8 37  1  0  0  0
  9 21  1  0  0  0
  9 31  1  0  0  0
  9 38  1  0  0  0
  9 39  1  0  0  0
 10 40  1  0  0  0
 11 12  2  0  0  0
 11 14  1  0  0  0
 11 15  1  0  0  0
 12 17  1  0  0  0
 12 28  1  0  0  0
 13 28  2  0  0  0
 13 29  1  0  0  0
 13 56  1  0  0  0
 14 29  2  0  0  0
 14 31  1  0  0  0
 15 30  2  0  0  0
 15 41  1  0  0  0
 16 17  2  0  0  0
 16 18  1  0  0  0
 16 30  1  0  0  0
 17 26  1  0  0  0
 18 23  2  0  0  0
 19 20  1  0  0  0
 19 31  1  0  0  0
 19 42  1  0  0  0
 19 43  1  0  0  0
 20 22  1  0  0  0
 20 32  1  0  0  0
 20 44  1  0  0  0
 21 32  1  0  0  0
 21 45  1  0  0  0
 22 46  1  0  0  0
 22 47  1  0  0  0
 23 48  1  0  0  0
 24 25  3  0  0  0
 25 49  1  0  0  0
 32 50  1  0  0  0
 33 51  1  0  0  0
 52 58  1  0  0  0
 52 59  1  0  0  0
 52 61  1  0  0  0
 53 55  1  0  0  0
 53 56  1  0  0  0
 53 62  1  0  0  0
 54 58  1  0  0  0
 54 63  1  0  0  0
 54 64  1  0  0  0
 55 59  2  0  0  0
 55 60  1  0  0  0
 56 65  1  0  0  0
 56 66  1  0  0  0
 57 58  2  0  0  0
 57 60  1  0  0  0
 57 67  1  0  0  0
 59 68  1  0  0  0
 60 69  1  0  0  0
M  END
> <s_m_entry_id>
344

> <s_m_entry_name>
000000186.1

> <s_m_Source_Path>
/Users/zaksoul/Documents/3r_UNI/2nd_SEMESTER/BSC/FRAG_RECON/RESULTS/2

> <s_m_Source_File>
000000186.mol2

> <i_m_Source_File_Index>
1

$$$$
No_0_199
                    3D
 Schrodinger Suite 2022-4.
 69 75  0  0  1  0            999 V2000
   -5.1810    3.6090  -21.8530 C   0  0  0  0  0  0
   -5.4520    3.8050  -23.1860 C   0  0  0  0  0  0
   -3.9420    3.3510  -21.5190 C   0  0  0  0  0  0
   -3.0590    3.4860  -23.6870 C   0  0  0  0  0  0
   -2.8930    3.2340  -22.2690 C   0  0  0  0  0  0
   -4.4090    3.7540  -24.2010 C   0  0  0  0  0  0
   -3.6630    3.7850  -26.4030 C   0  0  0  0  0  0
    6.0870    3.0010  -21.1820 C   0  0  0  0  0  0
    5.9380    3.1560  -23.7310 C   0  0  0  0  0  0
   -4.6650    3.8890  -25.5350 C   0  0  0  0  0  0
    2.1540    3.7130  -23.7290 C   0  0  0  0  0  0
    1.3370    4.8230  -23.4210 C   0  0  0  0  0  0
    3.1410    6.0110  -22.7430 C   0  0  0  0  0  0
    3.5570    3.8990  -23.4210 C   0  0  0  0  0  0
    1.6030    2.6010  -24.3930 C   0  0  0  0  0  0
   -0.5220    3.4190  -24.2700 C   0  0  0  0  0  0
    0.0100    4.6350  -23.6670 C   0  0  0  0  0  0
   -1.9770    3.4300  -24.6180 C   0  0  0  0  0  0
    4.1570    1.3990  -23.1440 C   0  0  0  0  0  0
    5.0950    1.0350  -22.0030 C   0  0  2  0  0  0
    6.6890    2.5740  -22.5390 C   0  0  2  0  0  0
    5.0840    2.0310  -20.8310 C   0  0  0  0  0  0
   -2.3080    3.5970  -26.0440 C   0  0  0  0  0  0
   -1.5470    2.8150  -21.6780 C   0  0  0  0  0  0
   -0.5150    2.4620  -21.1780 C   0  0  0  0  0  0
   -0.8280    5.6800  -23.3140 F   0  0  0  0  0  0
   -3.7260    3.1020  -20.1390 F   0  0  0  0  0  0
    1.8200    5.9780  -22.8860 N   0  0  0  0  0  0
    4.0350    5.0470  -22.9720 N   0  0  0  0  0  0
    0.2950    2.5160  -24.6930 N   0  0  0  0  0  0
    4.4710    2.8500  -23.6070 N   0  0  0  0  0  0
    6.5000    1.1010  -22.4910 N   0  0  1  0  0  0
   -3.8410    3.8060  -27.7920 O   0  0  0  0  0  0
   -5.9796    3.6712  -21.1226 H   0  0  0  0  0  0
   -6.4675    4.0037  -23.5091 H   0  0  0  0  0  0
    5.6179    3.9906  -21.2849 H   0  0  0  0  0  0
    6.8763    3.0060  -20.4159 H   0  0  0  0  0  0
    6.3275    2.7150  -24.6604 H   0  0  0  0  0  0
    6.0833    4.2460  -23.7593 H   0  0  0  0  0  0
   -5.6765    4.0776  -25.8762 H   0  0  0  0  0  0
    2.2385    1.7718  -24.6821 H   0  0  0  0  0  0
    3.1157    1.3435  -22.7939 H   0  0  0  0  0  0
    4.3144    0.7047  -23.9826 H   0  0  0  0  0  0
    4.8700    0.0218  -21.6387 H   0  0  0  0  0  0
    7.7578    2.8293  -22.5885 H   0  0  0  0  0  0
    4.1018    2.5236  -20.7805 H   0  0  0  0  0  0
    5.3877    1.5123  -19.9097 H   0  0  0  0  0  0
   -1.5411    3.5789  -26.8099 H   0  0  0  0  0  0
    0.3934    2.1519  -20.7378 H   0  0  0  0  0  0
    7.1492    0.5983  -21.7894 H   0  0  0  0  0  0
   -2.9984    3.7179  -28.2217 H   0  0  0  0  0  0
    8.1070    7.7510  -20.2300 N   0  0  0  0  0  0
    4.6050    7.1790  -21.1110 N   0  0  0  0  0  0
    9.7050    9.3360  -20.9560 N   0  0  0  0  0  0
    5.8950    7.7410  -21.0950 C   0  0  0  0  0  0
    3.7060    7.3460  -22.2710 C   0  0  0  0  0  0
    7.4870    9.3750  -21.8520 C   0  0  0  0  0  0
    8.4390    8.8140  -21.0070 C   0  0  0  0  0  0
    6.8460    7.2170  -20.2740 C   0  0  0  0  0  0
    6.2310    8.8510  -21.8920 C   0  0  0  0  0  0
    8.8070    7.3370  -19.5980 H   0  0  0  0  0  0
    4.2690    6.6371  -20.3021 H   0  0  0  0  0  0
    9.9540   10.1420  -21.5470 H   0  0  0  0  0  0
   10.4080    8.9210  -20.3280 H   0  0  0  0  0  0
    4.2579    7.8219  -23.0949 H   0  0  0  0  0  0
    2.8788    8.0181  -21.9989 H   0  0  0  0  0  0
    7.7460   10.2241  -22.4741 H   0  0  0  0  0  0
    6.5961    6.3664  -19.6503 H   0  0  0  0  0  0
    5.4882    9.2949  -22.5449 H   0  0  0  0  0  0
  1  2  2  0  0  0
  1  3  1  0  0  0
  1 34  1  0  0  0
  2  6  1  0  0  0
  2 35  1  0  0  0
  3  5  2  0  0  0
  3 27  1  0  0  0
  4  5  1  0  0  0
  4  6  2  0  0  0
  4 18  1  0  0  0
  5 24  1  0  0  0
  6 10  1  0  0  0
  7 10  2  0  0  0
  7 23  1  0  0  0
  7 33  1  0  0  0
  8 21  1  0  0  0
  8 22  1  0  0  0
  8 36  1  0  0  0
  8 37  1  0  0  0
  9 21  1  0  0  0
  9 31  1  0  0  0
  9 38  1  0  0  0
  9 39  1  0  0  0
 10 40  1  0  0  0
 11 12  2  0  0  0
 11 14  1  0  0  0
 11 15  1  0  0  0
 12 17  1  0  0  0
 12 28  1  0  0  0
 13 28  2  0  0  0
 13 29  1  0  0  0
 13 56  1  0  0  0
 14 29  2  0  0  0
 14 31  1  0  0  0
 15 30  2  0  0  0
 15 41  1  0  0  0
 16 17  2  0  0  0
 16 18  1  0  0  0
 16 30  1  0  0  0
 17 26  1  0  0  0
 18 23  2  0  0  0
 19 20  1  0  0  0
 19 31  1  0  0  0
 19 42  1  0  0  0
 19 43  1  0  0  0
 20 22  1  0  0  0
 20 32  1  0  0  0
 20 44  1  0  0  0
 21 32  1  0  0  0
 21 45  1  0  0  0
 22 46  1  0  0  0
 22 47  1  0  0  0
 23 48  1  0  0  0
 24 25  3  0  0  0
 25 49  1  0  0  0
 32 50  1  0  0  0
 33 51  1  0  0  0
 52 58  1  0  0  0
 52 59  1  0  0  0
 52 61  1  0  0  0
 53 55  1  0  0  0
 53 56  1  0  0  0
 53 62  1  0  0  0
 54 58  1  0  0  0
 54 63  1  0  0  0
 54 64  1  0  0  0
 55 59  2  0  0  0
 55 60  1  0  0  0
 56 65  1  0  0  0
 56 66  1  0  0  0
 57 58  2  0  0  0
 57 60  1  0  0  0
 57 67  1  0  0  0
 59 68  1  0  0  0
 60 69  1  0  0  0
M  END
> <s_m_entry_id>
345

> <s_m_entry_name>
000000187.1

> <s_m_Source_Path>
/Users/zaksoul/Documents/3r_UNI/2nd_SEMESTER/BSC/FRAG_RECON/RESULTS/2

> <s_m_Source_File>
000000187.mol2

> <i_m_Source_File_Index>
1

$$$$
No_0_200
                    3D
 Schrodinger Suite 2022-4.
 69 75  0  0  1  0            999 V2000
   -5.3310    3.7000  -22.1110 C   0  0  0  0  0  0
   -5.5850    3.8980  -23.4470 C   0  0  0  0  0  0
   -4.1000    3.4250  -21.7620 C   0  0  0  0  0  0
   -3.1920    3.5430  -23.9210 C   0  0  0  0  0  0
   -3.0450    3.2920  -22.5010 C   0  0  0  0  0  0
   -4.5310    3.8300  -24.4510 C   0  0  0  0  0  0
   -3.7600    3.8460  -26.6440 C   0  0  0  0  0  0
    5.9190    2.9310  -21.3150 C   0  0  0  0  0  0
    5.8000    3.0840  -23.8650 C   0  0  0  0  0  0
   -4.7710    3.9660  -25.7870 C   0  0  0  0  0  0
    2.0250    3.6960  -23.9060 C   0  0  0  0  0  0
    1.2210    4.8170  -23.6090 C   0  0  0  0  0  0
    3.0340    5.9800  -22.9120 C   0  0  0  0  0  0
    3.4260    3.8620  -23.5820 C   0  0  0  0  0  0
    1.4650    2.5900  -24.5740 C   0  0  0  0  0  0
   -0.6490    3.4390  -24.4760 C   0  0  0  0  0  0
   -0.1060    4.6480  -23.8690 C   0  0  0  0  0  0
   -2.1000    3.4710  -24.8400 C   0  0  0  0  0  0
    3.9880    1.3530  -23.2950 C   0  0  0  0  0  0
    4.9070    0.9780  -22.1430 C   0  0  2  0  0  0
    6.5300    2.4930  -22.6640 C   0  0  2  0  0  0
    4.8980    1.9760  -20.9730 C   0  0  0  0  0  0
   -2.4130    3.6400  -26.2690 C   0  0  0  0  0  0
   -1.7120    2.8540  -21.8940 C   0  0  0  0  0  0
   -0.6900    2.4870  -21.3830 C   0  0  0  0  0  0
   -0.9330    5.7060  -23.5270 F   0  0  0  0  0  0
   -3.9030    3.1750  -20.3800 F   0  0  0  0  0  0
    1.7140    5.9660  -23.0700 N   0  0  0  0  0  0
    3.9160    5.0030  -23.1300 N   0  0  0  0  0  0
    0.1590    2.5240  -24.8890 N   0  0  0  0  0  0
    4.3280    2.7990  -23.7570 N   0  0  0  0  0  0
    6.3180    1.0230  -22.6160 N   0  0  1  0  0  0
   -3.9240    3.8680  -28.0340 O   0  0  0  0  0  0
   -6.1367    3.7742  -21.3896 H   0  0  0  0  0  0
   -6.5937    4.1108  -23.7822 H   0  0  0  0  0  0
    5.4649    3.9270  -21.4240 H   0  0  0  0  0  0
    6.6993    2.9260  -20.5397 H   0  0  0  0  0  0
    6.1927    2.6358  -24.7896 H   0  0  0  0  0  0
    5.9614    4.1717  -23.8933 H   0  0  0  0  0  0
   -5.7754    4.1697  -26.1402 H   0  0  0  0  0  0
    2.0912    1.7510  -24.8550 H   0  0  0  0  0  0
    2.9422    1.3137  -22.9562 H   0  0  0  0  0  0
    4.1435    0.6553  -24.1311 H   0  0  0  0  0  0
    4.6637   -0.0314  -21.7796 H   0  0  0  0  0  0
    7.6030    2.7322  -22.7024 H   0  0  0  0  0  0
    3.9226    2.4829  -20.9336 H   0  0  0  0  0  0
    5.1836    1.4543  -20.0477 H   0  0  0  0  0  0
   -1.6388    3.6099  -27.0271 H   0  0  0  0  0  0
    0.2084    2.1639  -20.9318 H   0  0  0  0  0  0
    6.9518    0.5121  -21.9063 H   0  0  0  0  0  0
   -3.0781    3.7671  -28.4545 H   0  0  0  0  0  0
    8.2220    7.7670  -20.9400 N   0  0  0  0  0  0
    4.6560    7.1110  -21.4090 N   0  0  0  0  0  0
    9.6670    9.4480  -21.7640 N   0  0  0  0  0  0
    5.9200    7.7200  -21.5210 C   0  0  0  0  0  0
    3.6130    7.3080  -22.4360 C   0  0  0  0  0  0
    7.3520    9.4520  -22.3720 C   0  0  0  0  0  0
    8.4210    8.8830  -21.6870 C   0  0  0  0  0  0
    6.9830    7.1880  -20.8570 C   0  0  0  0  0  0
    6.1180    8.8850  -22.2870 C   0  0  0  0  0  0
    9.0087    7.3451  -20.4262 H   0  0  0  0  0  0
    4.4421    6.5142  -20.5972 H   0  0  0  0  0  0
    9.8139   10.2947  -22.3318 H   0  0  0  0  0  0
   10.4560    9.0270  -21.2530 H   0  0  0  0  0  0
    4.0409    7.8489  -23.2929 H   0  0  0  0  0  0
    2.8061    7.9319  -22.0241 H   0  0  0  0  0  0
    7.5049   10.3434  -22.9696 H   0  0  0  0  0  0
    6.8400    6.2959  -20.2580 H   0  0  0  0  0  0
    5.2843    9.3354  -22.8134 H   0  0  0  0  0  0
  1  2  2  0  0  0
  1  3  1  0  0  0
  1 34  1  0  0  0
  2  6  1  0  0  0
  2 35  1  0  0  0
  3  5  2  0  0  0
  3 27  1  0  0  0
  4  5  1  0  0  0
  4  6  2  0  0  0
  4 18  1  0  0  0
  5 24  1  0  0  0
  6 10  1  0  0  0
  7 10  2  0  0  0
  7 23  1  0  0  0
  7 33  1  0  0  0
  8 21  1  0  0  0
  8 22  1  0  0  0
  8 36  1  0  0  0
  8 37  1  0  0  0
  9 21  1  0  0  0
  9 31  1  0  0  0
  9 38  1  0  0  0
  9 39  1  0  0  0
 10 40  1  0  0  0
 11 12  2  0  0  0
 11 14  1  0  0  0
 11 15  1  0  0  0
 12 17  1  0  0  0
 12 28  1  0  0  0
 13 28  2  0  0  0
 13 29  1  0  0  0
 13 56  1  0  0  0
 14 29  2  0  0  0
 14 31  1  0  0  0
 15 30  2  0  0  0
 15 41  1  0  0  0
 16 17  2  0  0  0
 16 18  1  0  0  0
 16 30  1  0  0  0
 17 26  1  0  0  0
 18 23  2  0  0  0
 19 20  1  0  0  0
 19 31  1  0  0  0
 19 42  1  0  0  0
 19 43  1  0  0  0
 20 22  1  0  0  0
 20 32  1  0  0  0
 20 44  1  0  0  0
 21 32  1  0  0  0
 21 45  1  0  0  0
 22 46  1  0  0  0
 22 47  1  0  0  0
 23 48  1  0  0  0
 24 25  3  0  0  0
 25 49  1  0  0  0
 32 50  1  0  0  0
 33 51  1  0  0  0
 52 58  1  0  0  0
 52 59  1  0  0  0
 52 61  1  0  0  0
 53 55  1  0  0  0
 53 56  1  0  0  0
 53 62  1  0  0  0
 54 58  1  0  0  0
 54 63  1  0  0  0
 54 64  1  0  0  0
 55 59  2  0  0  0
 55 60  1  0  0  0
 56 65  1  0  0  0
 56 66  1  0  0  0
 57 58  2  0  0  0
 57 60  1  0  0  0
 57 67  1  0  0  0
 59 68  1  0  0  0
 60 69  1  0  0  0
M  END
> <s_m_entry_id>
346

> <s_m_entry_name>
000000188.1

> <s_m_Source_Path>
/Users/zaksoul/Documents/3r_UNI/2nd_SEMESTER/BSC/FRAG_RECON/RESULTS/2

> <s_m_Source_File>
000000188.mol2

> <i_m_Source_File_Index>
1

$$$$
No_0_201
                    3D
 Schrodinger Suite 2022-4.
 69 75  0  0  1  0            999 V2000
   -5.3460    3.4340  -21.8540 C   0  0  0  0  0  0
   -5.6200    3.6330  -23.1860 C   0  0  0  0  0  0
   -4.1060    3.1800  -21.5220 C   0  0  0  0  0  0
   -3.2270    3.3250  -23.6910 C   0  0  0  0  0  0
   -3.0580    3.0690  -22.2740 C   0  0  0  0  0  0
   -4.5780    3.5900  -24.2030 C   0  0  0  0  0  0
   -3.8350    3.6310  -26.4050 C   0  0  0  0  0  0
    5.9250    2.8670  -21.2010 C   0  0  0  0  0  0
    5.7710    3.0300  -23.7480 C   0  0  0  0  0  0
   -4.8370    3.7280  -25.5350 C   0  0  0  0  0  0
    1.9860    3.5730  -23.7390 C   0  0  0  0  0  0
    1.1650    4.6780  -23.4270 C   0  0  0  0  0  0
    2.9660    5.8700  -22.7470 C   0  0  0  0  0  0
    3.3880    3.7630  -23.4330 C   0  0  0  0  0  0
    1.4370    2.4600  -24.4070 C   0  0  0  0  0  0
   -0.6900    3.2700  -24.2770 C   0  0  0  0  0  0
   -0.1620    4.4860  -23.6710 C   0  0  0  0  0  0
   -2.1450    3.2770  -24.6230 C   0  0  0  0  0  0
    3.9980    1.2640  -23.1650 C   0  0  0  0  0  0
    4.9390    0.9000  -22.0260 C   0  0  2  0  0  0
    6.5270    2.4470  -22.5590 C   0  0  2  0  0  0
    4.9260    1.8910  -20.8510 C   0  0  0  0  0  0
   -2.4790    3.4470  -26.0480 C   0  0  0  0  0  0
   -1.7100    2.6530  -21.6860 C   0  0  0  0  0  0
   -0.6760    2.3020  -21.1890 C   0  0  0  0  0  0
   -1.0030    5.5270  -23.3140 F   0  0  0  0  0  0
   -3.8870    2.9260  -20.1430 F   0  0  0  0  0  0
    1.6440    5.8330  -22.8880 N   0  0  0  0  0  0
    3.8620    4.9110  -22.9800 N   0  0  0  0  0  0
    0.1290    2.3710  -24.7050 N   0  0  0  0  0  0
    4.3060    2.7180  -23.6240 N   0  0  0  0  0  0
    6.3430    0.9730  -22.5160 N   0  0  1  0  0  0
   -4.0160    3.6570  -27.7930 O   0  0  0  0  0  0
   -6.1439    3.4902  -21.1224 H   0  0  0  0  0  0
   -6.6365    3.8297  -23.5071 H   0  0  0  0  0  0
    5.4517    3.8550  -21.2999 H   0  0  0  0  0  0
    6.7153    2.8720  -20.4359 H   0  0  0  0  0  0
    6.1614    2.5932  -24.6790 H   0  0  0  0  0  0
    5.9122    4.1206  -23.7732 H   0  0  0  0  0  0
   -5.8495    3.9146  -25.8742 H   0  0  0  0  0  0
    2.0764    1.6349  -24.6991 H   0  0  0  0  0  0
    2.9574    1.2024  -22.8138 H   0  0  0  0  0  0
    4.1565    0.5726  -24.0058 H   0  0  0  0  0  0
    4.7180   -0.1152  -21.6647 H   0  0  0  0  0  0
    7.5948    2.7064  -22.6095 H   0  0  0  0  0  0
    3.9423    2.3803  -20.7975 H   0  0  0  0  0  0
    5.2327    1.3704  -19.9318 H   0  0  0  0  0  0
   -1.7141    3.4350  -26.8160 H   0  0  0  0  0  0
    0.2347    1.9941  -20.7521 H   0  0  0  0  0  0
    6.9952    0.4694  -21.8178 H   0  0  0  0  0  0
   -3.1738    3.5729  -28.2245 H   0  0  0  0  0  0
    8.2920    7.9700  -21.6440 N   0  0  0  0  0  0
    4.7630    7.0300  -21.4830 N   0  0  0  0  0  0
    9.4160    9.8330  -22.5720 N   0  0  0  0  0  0
    5.9310    7.7580  -21.7780 C   0  0  0  0  0  0
    3.5260    7.2060  -22.2710 C   0  0  0  0  0  0
    7.0330    9.6710  -22.7250 C   0  0  0  0  0  0
    8.2550    9.1520  -22.3110 C   0  0  0  0  0  0
    7.1400    7.2760  -21.3790 C   0  0  0  0  0  0
    5.8860    8.9890  -22.4590 C   0  0  0  0  0  0
    9.1939    7.5850  -21.3290 H   0  0  0  0  0  0
    4.7580    6.3566  -20.7037 H   0  0  0  0  0  0
    9.3840   10.7294  -23.0782 H   0  0  0  0  0  0
   10.3192    9.4479  -22.2609 H   0  0  0  0  0  0
    3.7340    7.8461  -23.1411 H   0  0  0  0  0  0
    2.7722    7.7219  -21.6581 H   0  0  0  0  0  0
    6.9970   10.6144  -23.2577 H   0  0  0  0  0  0
    7.1850    6.3323  -20.8476 H   0  0  0  0  0  0
    4.9338    9.4001  -22.7741 H   0  0  0  0  0  0
  1  2  2  0  0  0
  1  3  1  0  0  0
  1 34  1  0  0  0
  2  6  1  0  0  0
  2 35  1  0  0  0
  3  5  2  0  0  0
  3 27  1  0  0  0
  4  5  1  0  0  0
  4  6  2  0  0  0
  4 18  1  0  0  0
  5 24  1  0  0  0
  6 10  1  0  0  0
  7 10  2  0  0  0
  7 23  1  0  0  0
  7 33  1  0  0  0
  8 21  1  0  0  0
  8 22  1  0  0  0
  8 36  1  0  0  0
  8 37  1  0  0  0
  9 21  1  0  0  0
  9 31  1  0  0  0
  9 38  1  0  0  0
  9 39  1  0  0  0
 10 40  1  0  0  0
 11 12  2  0  0  0
 11 14  1  0  0  0
 11 15  1  0  0  0
 12 17  1  0  0  0
 12 28  1  0  0  0
 13 28  2  0  0  0
 13 29  1  0  0  0
 13 56  1  0  0  0
 14 29  2  0  0  0
 14 31  1  0  0  0
 15 30  2  0  0  0
 15 41  1  0  0  0
 16 17  2  0  0  0
 16 18  1  0  0  0
 16 30  1  0  0  0
 17 26  1  0  0  0
 18 23  2  0  0  0
 19 20  1  0  0  0
 19 31  1  0  0  0
 19 42  1  0  0  0
 19 43  1  0  0  0
 20 22  1  0  0  0
 20 32  1  0  0  0
 20 44  1  0  0  0
 21 32  1  0  0  0
 21 45  1  0  0  0
 22 46  1  0  0  0
 22 47  1  0  0  0
 23 48  1  0  0  0
 24 25  3  0  0  0
 25 49  1  0  0  0
 32 50  1  0  0  0
 33 51  1  0  0  0
 52 58  1  0  0  0
 52 59  1  0  0  0
 52 61  1  0  0  0
 53 55  1  0  0  0
 53 56  1  0  0  0
 53 62  1  0  0  0
 54 58  1  0  0  0
 54 63  1  0  0  0
 54 64  1  0  0  0
 55 59  2  0  0  0
 55 60  1  0  0  0
 56 65  1  0  0  0
 56 66  1  0  0  0
 57 58  2  0  0  0
 57 60  1  0  0  0
 57 67  1  0  0  0
 59 68  1  0  0  0
 60 69  1  0  0  0
M  END
> <s_m_entry_id>
347

> <s_m_entry_name>
000000189.1

> <s_m_Source_Path>
/Users/zaksoul/Documents/3r_UNI/2nd_SEMESTER/BSC/FRAG_RECON/RESULTS/2

> <s_m_Source_File>
000000189.mol2

> <i_m_Source_File_Index>
1

$$$$
No_0_202
                    3D
 Schrodinger Suite 2022-4.
 69 75  0  0  1  0            999 V2000
   -5.4390    3.6050  -22.0050 C   0  0  0  0  0  0
   -5.6740    3.7740  -23.3490 C   0  0  0  0  0  0
   -4.2150    3.3240  -21.6350 C   0  0  0  0  0  0
   -3.2790    3.3830  -23.7840 C   0  0  0  0  0  0
   -3.1530    3.1620  -22.3560 C   0  0  0  0  0  0
   -4.6080    3.6720  -24.3370 C   0  0  0  0  0  0
   -3.8090    3.6300  -26.5200 C   0  0  0  0  0  0
    5.7900    2.7290  -21.0460 C   0  0  0  0  0  0
    5.7060    2.8250  -23.6000 C   0  0  0  0  0  0
   -4.8290    3.7800  -25.6790 C   0  0  0  0  0  0
    1.9390    3.4770  -23.7040 C   0  0  0  0  0  0
    1.1440    4.6140  -23.4430 C   0  0  0  0  0  0
    2.9610    5.7720  -22.7500 C   0  0  0  0  0  0
    3.3380    3.6350  -23.3670 C   0  0  0  0  0  0
    1.3740    2.3630  -24.3550 C   0  0  0  0  0  0
   -0.7310    3.2370  -24.3030 C   0  0  0  0  0  0
   -0.1820    4.4540  -23.7170 C   0  0  0  0  0  0
   -2.1760    3.2770  -24.6860 C   0  0  0  0  0  0
    3.8670    1.1280  -23.0150 C   0  0  0  0  0  0
    4.7670    0.7680  -21.8430 C   0  0  2  0  0  0
    6.4130    2.2530  -22.3770 C   0  0  2  0  0  0
    4.7550    1.7930  -20.6960 C   0  0  0  0  0  0
   -2.4690    3.4170  -26.1230 C   0  0  0  0  0  0
   -1.8320    2.7230  -21.7230 C   0  0  0  0  0  0
   -0.8220    2.3570  -21.1900 C   0  0  0  0  0  0
   -1.0000    5.5290  -23.4090 F   0  0  0  0  0  0
   -4.0390    3.1030  -20.2440 F   0  0  0  0  0  0
    1.6430    5.7690  -22.9240 N   0  0  0  0  0  0
    3.8340    4.7810  -22.9340 N   0  0  0  0  0  0
    0.0720    2.3040  -24.6850 N   0  0  0  0  0  0
    4.2290    2.5590  -23.5050 N   0  0  0  0  0  0
    6.1850    0.7870  -22.2990 N   0  0  1  0  0  0
   -3.9550    3.6220  -27.9120 O   0  0  0  0  0  0
   -6.2532    3.7044  -21.2962 H   0  0  0  0  0  0
   -6.6759    3.9909  -23.7014 H   0  0  0  0  0  0
    5.3498    3.7275  -21.1843 H   0  0  0  0  0  0
    6.5612    2.7320  -20.2617 H   0  0  0  0  0  0
    6.1054    2.3510  -24.5087 H   0  0  0  0  0  0
    5.8796    3.9100  -23.6515 H   0  0  0  0  0  0
   -5.8266    3.9867  -26.0493 H   0  0  0  0  0  0
    1.9950    1.5112  -24.6078 H   0  0  0  0  0  0
    2.8166    1.1068  -22.6891 H   0  0  0  0  0  0
    4.0255    0.4093  -23.8326 H   0  0  0  0  0  0
    4.5074   -0.2300  -21.4602 H   0  0  0  0  0  0
    7.4889    2.4799  -22.4073 H   0  0  0  0  0  0
    3.7851    2.3118  -20.6819 H   0  0  0  0  0  0
    5.0225    1.2894  -19.7554 H   0  0  0  0  0  0
   -1.6852    3.3608  -26.8697 H   0  0  0  0  0  0
    0.0672    2.0339  -20.7209 H   0  0  0  0  0  0
    6.8041    0.2856  -21.5698 H   0  0  0  0  0  0
   -3.1051    3.5024  -28.3192 H   0  0  0  0  0  0
    8.3060    8.0970  -22.5800 N   0  0  0  0  0  0
    4.9270    6.9480  -21.7870 N   0  0  0  0  0  0
    9.1360   10.0770  -23.5710 N   0  0  0  0  0  0
    5.9780    7.7590  -22.2540 C   0  0  0  0  0  0
    3.5490    7.1040  -22.2960 C   0  0  0  0  0  0
    6.7810    9.7900  -23.2560 C   0  0  0  0  0  0
    8.0840    9.3160  -23.1350 C   0  0  0  0  0  0
    7.2630    7.3230  -22.1430 C   0  0  0  0  0  0
    5.7440    9.0280  -22.8170 C   0  0  0  0  0  0
    9.2687    7.7441  -22.4820 H   0  0  0  0  0  0
    5.1101    6.2258  -21.0758 H   0  0  0  0  0  0
    8.9639   11.0015  -23.9912 H   0  0  0  0  0  0
   10.0995    9.7252  -23.4770 H   0  0  0  0  0  0
    3.5490    7.8109  -23.1388 H   0  0  0  0  0  0
    2.9146    7.5352  -21.5076 H   0  0  0  0  0  0
    6.5980   10.7628  -23.6979 H   0  0  0  0  0  0
    7.4560    6.3509  -21.7039 H   0  0  0  0  0  0
    4.7306    9.4028  -22.9039 H   0  0  0  0  0  0
  1  2  2  0  0  0
  1  3  1  0  0  0
  1 34  1  0  0  0
  2  6  1  0  0  0
  2 35  1  0  0  0
  3  5  2  0  0  0
  3 27  1  0  0  0
  4  5  1  0  0  0
  4  6  2  0  0  0
  4 18  1  0  0  0
  5 24  1  0  0  0
  6 10  1  0  0  0
  7 10  2  0  0  0
  7 23  1  0  0  0
  7 33  1  0  0  0
  8 21  1  0  0  0
  8 22  1  0  0  0
  8 36  1  0  0  0
  8 37  1  0  0  0
  9 21  1  0  0  0
  9 31  1  0  0  0
  9 38  1  0  0  0
  9 39  1  0  0  0
 10 40  1  0  0  0
 11 12  2  0  0  0
 11 14  1  0  0  0
 11 15  1  0  0  0
 12 17  1  0  0  0
 12 28  1  0  0  0
 13 28  2  0  0  0
 13 29  1  0  0  0
 13 56  1  0  0  0
 14 29  2  0  0  0
 14 31  1  0  0  0
 15 30  2  0  0  0
 15 41  1  0  0  0
 16 17  2  0  0  0
 16 18  1  0  0  0
 16 30  1  0  0  0
 17 26  1  0  0  0
 18 23  2  0  0  0
 19 20  1  0  0  0
 19 31  1  0  0  0
 19 42  1  0  0  0
 19 43  1  0  0  0
 20 22  1  0  0  0
 20 32  1  0  0  0
 20 44  1  0  0  0
 21 32  1  0  0  0
 21 45  1  0  0  0
 22 46  1  0  0  0
 22 47  1  0  0  0
 23 48  1  0  0  0
 24 25  3  0  0  0
 25 49  1  0  0  0
 32 50  1  0  0  0
 33 51  1  0  0  0
 52 58  1  0  0  0
 52 59  1  0  0  0
 52 61  1  0  0  0
 53 55  1  0  0  0
 53 56  1  0  0  0
 53 62  1  0  0  0
 54 58  1  0  0  0
 54 63  1  0  0  0
 54 64  1  0  0  0
 55 59  2  0  0  0
 55 60  1  0  0  0
 56 65  1  0  0  0
 56 66  1  0  0  0
 57 58  2  0  0  0
 57 60  1  0  0  0
 57 67  1  0  0  0
 59 68  1  0  0  0
 60 69  1  0  0  0
M  END
> <s_m_entry_id>
348

> <s_m_entry_name>
000000190.1

> <s_m_Source_Path>
/Users/zaksoul/Documents/3r_UNI/2nd_SEMESTER/BSC/FRAG_RECON/RESULTS/2

> <s_m_Source_File>
000000190.mol2

> <i_m_Source_File_Index>
1

$$$$
No_0_203
                    3D
 Schrodinger Suite 2022-4.
 69 75  0  0  1  0            999 V2000
   -5.3050    3.5020  -21.6340 C   0  0  0  0  0  0
   -5.5680    3.6890  -22.9700 C   0  0  0  0  0  0
   -4.0680    3.2460  -21.2900 C   0  0  0  0  0  0
   -3.1730    3.3660  -23.4550 C   0  0  0  0  0  0
   -3.0150    3.1240  -22.0330 C   0  0  0  0  0  0
   -4.5180    3.6320  -23.9780 C   0  0  0  0  0  0
   -3.7600    3.6480  -26.1750 C   0  0  0  0  0  0
    5.9590    2.8940  -20.8930 C   0  0  0  0  0  0
    5.8250    3.0330  -23.4420 C   0  0  0  0  0  0
   -4.7670    3.7580  -25.3140 C   0  0  0  0  0  0
    2.0420    3.5920  -23.4670 C   0  0  0  0  0  0
    1.2230    4.7030  -23.1710 C   0  0  0  0  0  0
    3.0240    5.8950  -22.4900 C   0  0  0  0  0  0
    3.4420    3.7790  -23.1520 C   0  0  0  0  0  0
    1.4930    2.4750  -24.1270 C   0  0  0  0  0  0
   -0.6320    3.2950  -24.0210 C   0  0  0  0  0  0
   -0.1030    4.5140  -23.4240 C   0  0  0  0  0  0
   -2.0840    3.3040  -24.3780 C   0  0  0  0  0  0
    4.0400    1.2800  -22.8550 C   0  0  0  0  0  0
    4.9710    0.9230  -21.7060 C   0  0  2  0  0  0
    6.5690    2.4590  -22.2420 C   0  0  2  0  0  0
    4.9540    1.9270  -20.5410 C   0  0  0  0  0  0
   -2.4070    3.4620  -25.8070 C   0  0  0  0  0  0
   -1.6730    2.7080  -21.4320 C   0  0  0  0  0  0
   -0.6440    2.3580  -20.9240 C   0  0  0  0  0  0
   -0.9420    5.5620  -23.0820 F   0  0  0  0  0  0
   -3.8600    3.0050  -19.9070 F   0  0  0  0  0  0
    1.7030    5.8620  -22.6400 N   0  0  0  0  0  0
    3.9180    4.9290  -22.7070 N   0  0  0  0  0  0
    0.1870    2.3890  -24.4340 N   0  0  0  0  0  0
    4.3570    2.7280  -23.3260 N   0  0  0  0  0  0
    6.3780    0.9860  -22.1860 N   0  0  1  0  0  0
   -3.9300    3.6610  -27.5650 O   0  0  0  0  0  0
   -6.1077    3.5692  -20.9086 H   0  0  0  0  0  0
   -6.5814    3.8867  -23.3001 H   0  0  0  0  0  0
    5.4911    3.8832  -21.0049 H   0  0  0  0  0  0
    6.7433    2.9041  -20.1218 H   0  0  0  0  0  0
    6.2196    2.5860  -24.3664 H   0  0  0  0  0  0
    5.9703    4.1228  -23.4773 H   0  0  0  0  0  0
   -5.7763    3.9456  -25.6621 H   0  0  0  0  0  0
    2.1303    1.6440  -24.4070 H   0  0  0  0  0  0
    2.9965    1.2275  -22.5109 H   0  0  0  0  0  0
    4.2016    0.5802  -23.6881 H   0  0  0  0  0  0
    4.7428   -0.0876  -21.3365 H   0  0  0  0  0  0
    7.6384    2.7125  -22.2885 H   0  0  0  0  0  0
    3.9716    2.4202  -20.4996 H   0  0  0  0  0  0
    5.2507    1.4134  -19.6146 H   0  0  0  0  0  0
   -1.6362    3.4389  -26.5688 H   0  0  0  0  0  0
    0.2618    2.0501  -20.4771 H   0  0  0  0  0  0
    7.0235    0.4869  -21.4785 H   0  0  0  0  0  0
   -3.0850    3.5700  -27.9895 H   0  0  0  0  0  0
    3.9040    8.0560  -23.1610 O   0  0  0  0  0  0
    5.7620    9.2360  -22.2320 N   0  0  0  0  0  0
    7.1800    9.1220  -20.3450 C   0  0  0  0  0  0
    8.0860    8.9540  -22.5490 C   0  0  0  0  0  0
    3.5860    7.2330  -22.0230 C   0  0  0  0  0  0
    4.4190    9.3510  -22.7900 C   0  0  0  0  0  0
    5.9340    9.2600  -20.8850 C   0  0  0  0  0  0
    6.8280    9.0900  -23.0620 C   0  0  0  0  0  0
    8.2700    8.9660  -21.1800 C   0  0  0  0  0  0
    7.3090    9.1350  -19.2688 H   0  0  0  0  0  0
    8.9328    8.8390  -23.2159 H   0  0  0  0  0  0
    2.8410    7.7460  -21.3970 H   0  0  0  0  0  0
    4.4963    7.0610  -21.4298 H   0  0  0  0  0  0
    3.7516    9.8113  -22.0466 H   0  0  0  0  0  0
    4.4450   10.0021  -23.6762 H   0  0  0  0  0  0
    5.0791    9.3890  -20.2311 H   0  0  0  0  0  0
    6.6810    9.0800  -24.1359 H   0  0  0  0  0  0
    9.2631    8.8550  -20.7599 H   0  0  0  0  0  0
  1  2  2  0  0  0
  1  3  1  0  0  0
  1 34  1  0  0  0
  2  6  1  0  0  0
  2 35  1  0  0  0
  3  5  2  0  0  0
  3 27  1  0  0  0
  4  5  1  0  0  0
  4  6  2  0  0  0
  4 18  1  0  0  0
  5 24  1  0  0  0
  6 10  1  0  0  0
  7 10  2  0  0  0
  7 23  1  0  0  0
  7 33  1  0  0  0
  8 21  1  0  0  0
  8 22  1  0  0  0
  8 36  1  0  0  0
  8 37  1  0  0  0
  9 21  1  0  0  0
  9 31  1  0  0  0
  9 38  1  0  0  0
  9 39  1  0  0  0
 10 40  1  0  0  0
 11 12  2  0  0  0
 11 14  1  0  0  0
 11 15  1  0  0  0
 12 17  1  0  0  0
 12 28  1  0  0  0
 13 28  2  0  0  0
 13 29  1  0  0  0
 13 56  1  0  0  0
 14 29  2  0  0  0
 14 31  1  0  0  0
 15 30  2  0  0  0
 15 41  1  0  0  0
 16 17  2  0  0  0
 16 18  1  0  0  0
 16 30  1  0  0  0
 17 26  1  0  0  0
 18 23  2  0  0  0
 19 20  1  0  0  0
 19 31  1  0  0  0
 19 42  1  0  0  0
 19 43  1  0  0  0
 20 22  1  0  0  0
 20 32  1  0  0  0
 20 44  1  0  0  0
 21 32  1  0  0  0
 21 45  1  0  0  0
 22 46  1  0  0  0
 22 47  1  0  0  0
 23 48  1  0  0  0
 24 25  3  0  0  0
 25 49  1  0  0  0
 32 50  1  0  0  0
 33 51  1  0  0  0
 52 56  1  0  0  0
 52 57  1  0  0  0
 53 57  1  0  0  0
 53 58  1  0  0  0
 53 59  1  0  0  0
 54 58  2  0  0  0
 54 60  1  0  0  0
 54 61  1  0  0  0
 55 59  2  0  0  0
 55 60  1  0  0  0
 55 62  1  0  0  0
 56 63  1  0  0  0
 56 64  1  0  0  0
 57 65  1  0  0  0
 57 66  1  0  0  0
 58 67  1  0  0  0
 59 68  1  0  0  0
 60 69  1  0  0  0
M  END
> <s_m_entry_id>
349

> <s_m_entry_name>
000000191.1

> <s_m_Source_Path>
/Users/zaksoul/Documents/3r_UNI/2nd_SEMESTER/BSC/FRAG_RECON/RESULTS/2

> <s_m_Source_File>
000000191.mol2

> <i_m_Source_File_Index>
1

$$$$
No_0_204
                    3D
 Schrodinger Suite 2022-4.
 69 75  0  0  1  0            999 V2000
   -5.3260    3.7040  -21.7680 C   0  0  0  0  0  0
   -5.5620    3.9320  -23.1030 C   0  0  0  0  0  0
   -4.1040    3.3940  -21.4140 C   0  0  0  0  0  0
   -3.1730    3.5320  -23.5620 C   0  0  0  0  0  0
   -3.0460    3.2510  -22.1450 C   0  0  0  0  0  0
   -4.5010    3.8600  -24.0980 C   0  0  0  0  0  0
   -3.7090    3.8990  -26.2830 C   0  0  0  0  0  0
    5.8960    2.6640  -20.8850 C   0  0  0  0  0  0
    5.8050    2.8680  -23.4320 C   0  0  0  0  0  0
   -4.7250    4.0260  -25.4340 C   0  0  0  0  0  0
    2.0450    3.5660  -23.4960 C   0  0  0  0  0  0
    1.2640    4.6990  -23.1850 C   0  0  0  0  0  0
    3.0960    5.8070  -22.4500 C   0  0  0  0  0  0
    3.4470    3.6940  -23.1570 C   0  0  0  0  0  0
    1.4660    2.4860  -24.1900 C   0  0  0  0  0  0
   -0.6290    3.3810  -24.0950 C   0  0  0  0  0  0
   -0.0640    4.5660  -23.4600 C   0  0  0  0  0  0
   -2.0750    3.4520  -24.4710 C   0  0  0  0  0  0
    3.9490    1.1680  -22.9120 C   0  0  0  0  0  0
    4.8490    0.7510  -21.7590 C   0  0  2  0  0  0
    6.5090    2.2380  -22.2360 C   0  0  2  0  0  0
    4.8510    1.7260  -20.5700 C   0  0  0  0  0  0
   -2.3700    3.6560  -25.9000 C   0  0  0  0  0  0
   -1.7290    2.7710  -21.5350 C   0  0  0  0  0  0
   -0.7210    2.3720  -21.0210 C   0  0  0  0  0  0
   -0.8700    5.6350  -23.1050 F   0  0  0  0  0  0
   -3.9260    3.1130  -20.0340 F   0  0  0  0  0  0
    1.7770    5.8260  -22.6200 N   0  0  0  0  0  0
    3.9570    4.8150  -22.6780 N   0  0  0  0  0  0
    0.1630    2.4550  -24.5180 N   0  0  0  0  0  0
    4.3260    2.6140  -23.3430 N   0  0  0  0  0  0
    6.2650    0.7720  -22.2180 N   0  0  1  0  0  0
   -3.8590    3.9520  -27.6740 O   0  0  0  0  0  0
   -6.1367    3.7823  -21.0526 H   0  0  0  0  0  0
   -6.5627    4.1739  -23.4423 H   0  0  0  0  0  0
    5.4661    3.6722  -20.9789 H   0  0  0  0  0  0
    6.6688    2.6267  -20.1031 H   0  0  0  0  0  0
    6.1964    2.4281  -24.3611 H   0  0  0  0  0  0
    5.9907    3.9522  -23.4381 H   0  0  0  0  0  0
   -5.7216    4.2588  -25.7913 H   0  0  0  0  0  0
    2.0763    1.6388  -24.4811 H   0  0  0  0  0  0
    2.8992    1.1458  -22.5843 H   0  0  0  0  0  0
    4.0963    0.4827  -23.7598 H   0  0  0  0  0  0
    4.5786   -0.2589  -21.4170 H   0  0  0  0  0  0
    7.5873    2.4539  -22.2602 H   0  0  0  0  0  0
    3.8868    2.2540  -20.5306 H   0  0  0  0  0  0
    5.1155    1.1799  -19.6525 H   0  0  0  0  0  0
   -1.5895    3.6219  -26.6514 H   0  0  0  0  0  0
    0.1661    2.0200  -20.5690 H   0  0  0  0  0  0
    6.8805    0.2336  -21.5126 H   0  0  0  0  0  0
   -3.0116    3.8393  -28.0883 H   0  0  0  0  0  0
    3.7400    8.0810  -23.0080 O   0  0  0  0  0  0
    5.7130    9.2520  -22.3420 N   0  0  0  0  0  0
    7.5040    9.0020  -20.8210 C   0  0  0  0  0  0
    7.9240    9.1500  -23.1680 C   0  0  0  0  0  0
    3.7000    7.1130  -21.9430 C   0  0  0  0  0  0
    4.2780    9.3520  -22.5900 C   0  0  0  0  0  0
    6.1680    9.1280  -21.0680 C   0  0  0  0  0  0
    6.5810    9.2690  -23.3860 C   0  0  0  0  0  0
    8.3950    9.0110  -21.8760 C   0  0  0  0  0  0
    7.8589    8.8960  -19.8022 H   0  0  0  0  0  0
    8.6134    9.1640  -24.0044 H   0  0  0  0  0  0
    3.0881    7.5029  -21.1162 H   0  0  0  0  0  0
    4.7209    6.9270  -21.5780 H   0  0  0  0  0  0
    3.7698    9.6811  -21.6716 H   0  0  0  0  0  0
    4.0930   10.1031  -23.3721 H   0  0  0  0  0  0
    5.4682    9.1290  -20.2402 H   0  0  0  0  0  0
    6.2092    9.3769  -24.3985 H   0  0  0  0  0  0
    9.4581    8.9110  -21.6890 H   0  0  0  0  0  0
  1  2  2  0  0  0
  1  3  1  0  0  0
  1 34  1  0  0  0
  2  6  1  0  0  0
  2 35  1  0  0  0
  3  5  2  0  0  0
  3 27  1  0  0  0
  4  5  1  0  0  0
  4  6  2  0  0  0
  4 18  1  0  0  0
  5 24  1  0  0  0
  6 10  1  0  0  0
  7 10  2  0  0  0
  7 23  1  0  0  0
  7 33  1  0  0  0
  8 21  1  0  0  0
  8 22  1  0  0  0
  8 36  1  0  0  0
  8 37  1  0  0  0
  9 21  1  0  0  0
  9 31  1  0  0  0
  9 38  1  0  0  0
  9 39  1  0  0  0
 10 40  1  0  0  0
 11 12  2  0  0  0
 11 14  1  0  0  0
 11 15  1  0  0  0
 12 17  1  0  0  0
 12 28  1  0  0  0
 13 28  2  0  0  0
 13 29  1  0  0  0
 13 56  1  0  0  0
 14 29  2  0  0  0
 14 31  1  0  0  0
 15 30  2  0  0  0
 15 41  1  0  0  0
 16 17  2  0  0  0
 16 18  1  0  0  0
 16 30  1  0  0  0
 17 26  1  0  0  0
 18 23  2  0  0  0
 19 20  1  0  0  0
 19 31  1  0  0  0
 19 42  1  0  0  0
 19 43  1  0  0  0
 20 22  1  0  0  0
 20 32  1  0  0  0
 20 44  1  0  0  0
 21 32  1  0  0  0
 21 45  1  0  0  0
 22 46  1  0  0  0
 22 47  1  0  0  0
 23 48  1  0  0  0
 24 25  3  0  0  0
 25 49  1  0  0  0
 32 50  1  0  0  0
 33 51  1  0  0  0
 52 56  1  0  0  0
 52 57  1  0  0  0
 53 57  1  0  0  0
 53 58  1  0  0  0
 53 59  1  0  0  0
 54 58  2  0  0  0
 54 60  1  0  0  0
 54 61  1  0  0  0
 55 59  2  0  0  0
 55 60  1  0  0  0
 55 62  1  0  0  0
 56 63  1  0  0  0
 56 64  1  0  0  0
 57 65  1  0  0  0
 57 66  1  0  0  0
 58 67  1  0  0  0
 59 68  1  0  0  0
 60 69  1  0  0  0
M  END
> <s_m_entry_id>
350

> <s_m_entry_name>
000000192.1

> <s_m_Source_Path>
/Users/zaksoul/Documents/3r_UNI/2nd_SEMESTER/BSC/FRAG_RECON/RESULTS/2

> <s_m_Source_File>
000000192.mol2

> <i_m_Source_File_Index>
1

$$$$
No_0_205
                    3D
 Schrodinger Suite 2022-4.
 69 75  0  0  1  0            999 V2000
   -5.2060    3.4940  -21.7350 C   0  0  0  0  0  0
   -5.4640    3.6990  -23.0700 C   0  0  0  0  0  0
   -3.9700    3.2380  -21.3900 C   0  0  0  0  0  0
   -3.0640    3.3920  -23.5480 C   0  0  0  0  0  0
   -2.9130    3.1300  -22.1290 C   0  0  0  0  0  0
   -4.4090    3.6600  -24.0740 C   0  0  0  0  0  0
   -3.6400    3.7100  -26.2670 C   0  0  0  0  0  0
    6.0560    2.9200  -20.9490 C   0  0  0  0  0  0
    5.9340    3.0940  -23.4970 C   0  0  0  0  0  0
   -4.6520    3.8040  -25.4090 C   0  0  0  0  0  0
    2.1490    3.6390  -23.5320 C   0  0  0  0  0  0
    1.3250    4.7420  -23.2240 C   0  0  0  0  0  0
    3.1170    5.9310  -22.5170 C   0  0  0  0  0  0
    3.5470    3.8270  -23.2070 C   0  0  0  0  0  0
    1.6080    2.5290  -24.2100 C   0  0  0  0  0  0
   -0.5210    3.3390  -24.1030 C   0  0  0  0  0  0
    0.0010    4.5520  -23.4850 C   0  0  0  0  0  0
   -1.9720    3.3480  -24.4670 C   0  0  0  0  0  0
    4.1530    1.3260  -22.9430 C   0  0  0  0  0  0
    5.0800    0.9570  -21.7950 C   0  0  2  0  0  0
    6.6750    2.5060  -22.3020 C   0  0  2  0  0  0
    5.0530    1.9430  -20.6150 C   0  0  0  0  0  0
   -2.2880    3.5250  -25.8950 C   0  0  0  0  0  0
   -1.5720    2.7110  -21.5270 C   0  0  0  0  0  0
   -0.5440    2.3580  -21.0190 C   0  0  0  0  0  0
   -0.8450    5.5920  -23.1330 F   0  0  0  0  0  0
   -3.7680    2.9780  -20.0090 F   0  0  0  0  0  0
    1.7970    5.8950  -22.6750 N   0  0  0  0  0  0
    4.0160    4.9720  -22.7440 N   0  0  0  0  0  0
    0.3040    2.4420  -24.5250 N   0  0  0  0  0  0
    4.4670    2.7820  -23.3910 N   0  0  0  0  0  0
    6.4900    1.0320  -22.2670 N   0  0  1  0  0  0
   -3.8040    3.7420  -27.6570 O   0  0  0  0  0  0
   -6.0126    3.5472  -21.0128 H   0  0  0  0  0  0
   -6.4766    3.8969  -23.4025 H   0  0  0  0  0  0
    5.5848    3.9089  -21.0489 H   0  0  0  0  0  0
    6.8368    2.9220  -20.1742 H   0  0  0  0  0  0
    6.3348    2.6619  -24.4258 H   0  0  0  0  0  0
    6.0753    4.1847  -23.5152 H   0  0  0  0  0  0
   -5.6603    3.9928  -25.7595 H   0  0  0  0  0  0
    2.2497    1.7046  -24.4992 H   0  0  0  0  0  0
    3.1081    1.2644  -22.6048 H   0  0  0  0  0  0
    4.3216    0.6385  -23.7850 H   0  0  0  0  0  0
    4.8550   -0.0599  -21.4409 H   0  0  0  0  0  0
    7.7433    2.7655  -22.3384 H   0  0  0  0  0  0
    4.0689    2.4325  -20.5716 H   0  0  0  0  0  0
    5.3487    1.4182  -19.6946 H   0  0  0  0  0  0
   -1.5130    3.5160  -26.6529 H   0  0  0  0  0  0
    0.3608    2.0471  -20.5721 H   0  0  0  0  0  0
    7.1337    0.5251  -21.5634 H   0  0  0  0  0  0
   -2.9564    3.6609  -28.0783 H   0  0  0  0  0  0
    3.3460    8.3060  -22.9690 O   0  0  0  0  0  0
    5.2740    9.6800  -22.6510 N   0  0  0  0  0  0
    7.3930    9.5620  -21.6110 C   0  0  0  0  0  0
    7.2220    9.9380  -23.9630 C   0  0  0  0  0  0
    3.6720    7.2650  -22.0290 C   0  0  0  0  0  0
    3.8210    9.6030  -22.5550 C   0  0  0  0  0  0
    6.0310    9.5240  -21.5330 C   0  0  0  0  0  0
    5.8610    9.8900  -23.8580 C   0  0  0  0  0  0
    8.0000    9.7690  -22.8340 C   0  0  0  0  0  0
    7.9907    9.4301  -20.7164 H   0  0  0  0  0  0
    7.6849   10.1060  -24.9287 H   0  0  0  0  0  0
    3.2350    7.5070  -21.0490 H   0  0  0  0  0  0
    4.7648    7.1920  -21.9270 H   0  0  0  0  0  0
    3.5121    9.7919  -21.5163 H   0  0  0  0  0  0
    3.3703   10.3786  -23.1916 H   0  0  0  0  0  0
    5.5527    9.3699  -20.5725 H   0  0  0  0  0  0
    5.2486   10.0221  -24.7426 H   0  0  0  0  0  0
    9.0813    9.7990  -22.9050 H   0  0  0  0  0  0
  1  2  2  0  0  0
  1  3  1  0  0  0
  1 34  1  0  0  0
  2  6  1  0  0  0
  2 35  1  0  0  0
  3  5  2  0  0  0
  3 27  1  0  0  0
  4  5  1  0  0  0
  4  6  2  0  0  0
  4 18  1  0  0  0
  5 24  1  0  0  0
  6 10  1  0  0  0
  7 10  2  0  0  0
  7 23  1  0  0  0
  7 33  1  0  0  0
  8 21  1  0  0  0
  8 22  1  0  0  0
  8 36  1  0  0  0
  8 37  1  0  0  0
  9 21  1  0  0  0
  9 31  1  0  0  0
  9 38  1  0  0  0
  9 39  1  0  0  0
 10 40  1  0  0  0
 11 12  2  0  0  0
 11 14  1  0  0  0
 11 15  1  0  0  0
 12 17  1  0  0  0
 12 28  1  0  0  0
 13 28  2  0  0  0
 13 29  1  0  0  0
 13 56  1  0  0  0
 14 29  2  0  0  0
 14 31  1  0  0  0
 15 30  2  0  0  0
 15 41  1  0  0  0
 16 17  2  0  0  0
 16 18  1  0  0  0
 16 30  1  0  0  0
 17 26  1  0  0  0
 18 23  2  0  0  0
 19 20  1  0  0  0
 19 31  1  0  0  0
 19 42  1  0  0  0
 19 43  1  0  0  0
 20 22  1  0  0  0
 20 32  1  0  0  0
 20 44  1  0  0  0
 21 32  1  0  0  0
 21 45  1  0  0  0
 22 46  1  0  0  0
 22 47  1  0  0  0
 23 48  1  0  0  0
 24 25  3  0  0  0
 25 49  1  0  0  0
 32 50  1  0  0  0
 33 51  1  0  0  0
 52 56  1  0  0  0
 52 57  1  0  0  0
 53 57  1  0  0  0
 53 58  1  0  0  0
 53 59  1  0  0  0
 54 58  2  0  0  0
 54 60  1  0  0  0
 54 61  1  0  0  0
 55 59  2  0  0  0
 55 60  1  0  0  0
 55 62  1  0  0  0
 56 63  1  0  0  0
 56 64  1  0  0  0
 57 65  1  0  0  0
 57 66  1  0  0  0
 58 67  1  0  0  0
 59 68  1  0  0  0
 60 69  1  0  0  0
M  END
> <s_m_entry_id>
351

> <s_m_entry_name>
000000193.1

> <s_m_Source_Path>
/Users/zaksoul/Documents/3r_UNI/2nd_SEMESTER/BSC/FRAG_RECON/RESULTS/2

> <s_m_Source_File>
000000193.mol2

> <i_m_Source_File_Index>
1

$$$$
No_0_206
                    3D
 Schrodinger Suite 2022-4.
 70 76  0  0  1  0            999 V2000
   -5.3270    3.1420  -21.5710 C   0  0  0  0  0  0
   -5.6180    3.3590  -22.8970 C   0  0  0  0  0  0
   -4.0780    2.9090  -21.2560 C   0  0  0  0  0  0
   -3.2230    3.1130  -23.4300 C   0  0  0  0  0  0
   -3.0350    2.8350  -22.0190 C   0  0  0  0  0  0
   -4.5840    3.3580  -23.9240 C   0  0  0  0  0  0
   -3.8640    3.4550  -26.1320 C   0  0  0  0  0  0
    5.9600    2.8110  -21.0330 C   0  0  0  0  0  0
    5.7790    3.0170  -23.5750 C   0  0  0  0  0  0
   -4.8590    3.5150  -25.2520 C   0  0  0  0  0  0
    1.9820    3.4760  -23.5210 C   0  0  0  0  0  0
    1.1410    4.5570  -23.1810 C   0  0  0  0  0  0
    2.9210    5.7760  -22.4960 C   0  0  0  0  0  0
    3.3830    3.6920  -23.2240 C   0  0  0  0  0  0
    1.4520    2.3650  -24.2040 C   0  0  0  0  0  0
   -0.6920    3.1250  -24.0400 C   0  0  0  0  0  0
   -0.1840    4.3410  -23.4170 C   0  0  0  0  0  0
   -2.1500    3.1060  -24.3730 C   0  0  0  0  0  0
    4.0500    1.2020  -23.0080 C   0  0  0  0  0  0
    5.0090    0.8380  -21.8860 C   0  0  2  0  0  0
    6.5580    2.4290  -22.4040 C   0  0  2  0  0  0
    4.9860    1.8070  -20.6920 C   0  0  0  0  0  0
   -2.5010    3.2950  -25.7910 C   0  0  0  0  0  0
   -1.6720    2.4380  -21.4520 C   0  0  0  0  0  0
   -0.6260    2.1010  -20.9710 C   0  0  0  0  0  0
   -1.0440    5.3560  -23.0320 F   0  0  0  0  0  0
   -3.8400    2.6350  -19.8840 F   0  0  0  0  0  0
    1.5990    5.7120  -22.6250 N   0  0  0  0  0  0
    3.8360    4.8410  -22.7550 N   0  0  0  0  0  0
    0.1430    2.2520  -24.4920 N   0  0  0  0  0  0
    4.3220    2.6700  -23.4430 N   0  0  0  0  0  0
    6.4070    0.9510  -22.3870 N   0  0  1  0  0  0
   -4.0580    3.5030  -27.5180 O   0  0  0  0  0  0
   -6.1185    3.1671  -20.8307 H   0  0  0  0  0  0
   -6.6414    3.5398  -23.2053 H   0  0  0  0  0  0
    5.4644    3.7901  -21.1087 H   0  0  0  0  0  0
    6.7572    2.8191  -20.2751 H   0  0  0  0  0  0
    6.1687    2.6061  -24.5180 H   0  0  0  0  0  0
    5.8960    4.1107  -23.5811 H   0  0  0  0  0  0
   -5.8790    3.6847  -25.5773 H   0  0  0  0  0  0
    2.1054    1.5591  -24.5181 H   0  0  0  0  0  0
    3.0143    1.1122  -22.6486 H   0  0  0  0  0  0
    4.2154    0.5303  -23.8633 H   0  0  0  0  0  0
    4.8143   -0.1882  -21.5409 H   0  0  0  0  0  0
    7.6194    2.7125  -22.4595 H   0  0  0  0  0  0
    3.9924    2.2735  -20.6203 H   0  0  0  0  0  0
    5.3130    1.2762  -19.7857 H   0  0  0  0  0  0
   -1.7427    3.3141  -26.5654 H   0  0  0  0  0  0
    0.2951    1.8050  -20.5479 H   0  0  0  0  0  0
    7.0764    0.4495  -21.7037 H   0  0  0  0  0  0
   -3.2183    3.4456  -27.9586 H   0  0  0  0  0  0
    3.3900    8.0640  -23.0830 O   0  0  0  0  0  0
    7.5730   10.0990  -21.2230 N   0  0  0  0  0  0
    8.4040   10.1230  -23.4350 N   0  0  0  0  0  0
    5.0340    9.6730  -22.1630 C   0  0  0  0  0  0
    7.3570   10.0050  -22.5630 C   0  0  0  0  0  0
    6.0680    9.7870  -23.0420 C   0  0  0  0  0  0
    6.5340    9.9850  -20.3390 C   0  0  0  0  0  0
    5.2770    9.7760  -20.7890 C   0  0  0  0  0  0
    3.6220    9.4250  -22.6660 C   0  0  0  0  0  0
    3.4570    7.1150  -22.0000 C   0  0  0  0  0  0
    8.2400   10.0510  -24.4493 H   0  0  0  0  0  0
    9.3565   10.2829  -23.0772 H   0  0  0  0  0  0
    5.8851    9.7080  -24.1075 H   0  0  0  0  0  0
    6.7190   10.0630  -19.2738 H   0  0  0  0  0  0
    4.4572    9.6880  -20.0852 H   0  0  0  0  0  0
    2.9023    9.6929  -21.8784 H   0  0  0  0  0  0
    3.4079   10.1053  -23.5034 H   0  0  0  0  0  0
    2.8379    7.4700  -21.1629 H   0  0  0  0  0  0
    4.5033    6.9960  -21.6819 H   0  0  0  0  0  0
  1  2  2  0  0  0
  1  3  1  0  0  0
  1 34  1  0  0  0
  2  6  1  0  0  0
  2 35  1  0  0  0
  3  5  2  0  0  0
  3 27  1  0  0  0
  4  5  1  0  0  0
  4  6  2  0  0  0
  4 18  1  0  0  0
  5 24  1  0  0  0
  6 10  1  0  0  0
  7 10  2  0  0  0
  7 23  1  0  0  0
  7 33  1  0  0  0
  8 21  1  0  0  0
  8 22  1  0  0  0
  8 36  1  0  0  0
  8 37  1  0  0  0
  9 21  1  0  0  0
  9 31  1  0  0  0
  9 38  1  0  0  0
  9 39  1  0  0  0
 10 40  1  0  0  0
 11 12  1  0  0  0
 11 14  2  0  0  0
 11 15  1  0  0  0
 12 17  1  0  0  0
 12 28  2  0  0  0
 13 28  1  0  0  0
 13 29  2  0  0  0
 13 61  1  0  0  0
 14 29  1  0  0  0
 14 31  1  0  0  0
 15 30  2  0  0  0
 15 41  1  0  0  0
 16 17  2  0  0  0
 16 18  1  0  0  0
 16 30  1  0  0  0
 17 26  1  0  0  0
 18 23  2  0  0  0
 19 20  1  0  0  0
 19 31  1  0  0  0
 19 42  1  0  0  0
 19 43  1  0  0  0
 20 22  1  0  0  0
 20 32  1  0  0  0
 20 44  1  0  0  0
 21 32  1  0  0  0
 21 45  1  0  0  0
 22 46  1  0  0  0
 22 47  1  0  0  0
 23 48  1  0  0  0
 24 25  3  0  0  0
 25 49  1  0  0  0
 32 50  1  0  0  0
 33 51  1  0  0  0
 52 60  1  0  0  0
 52 61  1  0  0  0
 53 56  2  0  0  0
 53 58  1  0  0  0
 54 56  1  0  0  0
 54 62  1  0  0  0
 54 63  1  0  0  0
 55 57  2  0  0  0
 55 59  1  0  0  0
 55 60  1  0  0  0
 56 57  1  0  0  0
 57 64  1  0  0  0
 58 59  2  0  0  0
 58 65  1  0  0  0
 59 66  1  0  0  0
 60 67  1  0  0  0
 60 68  1  0  0  0
 61 69  1  0  0  0
 61 70  1  0  0  0
M  END
> <s_m_entry_id>
352

> <s_m_entry_name>
000000194.1

> <s_m_Source_Path>
/Users/zaksoul/Documents/3r_UNI/2nd_SEMESTER/BSC/FRAG_RECON/RESULTS/2

> <s_m_Source_File>
000000194.mol2

> <i_m_Source_File_Index>
1

$$$$
No_0_207
                    3D
 Schrodinger Suite 2022-4.
 71 77  0  0  1  0            999 V2000
   -5.1260    3.3200  -21.8900 C   0  0  0  0  0  0
   -5.4090    3.4960  -23.2230 C   0  0  0  0  0  0
   -3.8790    3.0920  -21.5610 C   0  0  0  0  0  0
   -3.0130    3.2230  -23.7360 C   0  0  0  0  0  0
   -2.8330    2.9890  -22.3160 C   0  0  0  0  0  0
   -4.3710    3.4580  -24.2440 C   0  0  0  0  0  0
   -3.6390    3.4820  -26.4500 C   0  0  0  0  0  0
    6.1560    2.9560  -21.2850 C   0  0  0  0  0  0
    5.9880    3.0830  -23.8330 C   0  0  0  0  0  0
   -4.6390    3.5730  -25.5780 C   0  0  0  0  0  0
    2.1940    3.5600  -23.8130 C   0  0  0  0  0  0
    1.3560    4.6550  -23.5110 C   0  0  0  0  0  0
    3.1380    5.8870  -22.8560 C   0  0  0  0  0  0
    3.5940    3.7780  -23.5160 C   0  0  0  0  0  0
    1.6620    2.4290  -24.4630 C   0  0  0  0  0  0
   -0.4790    3.2040  -24.3340 C   0  0  0  0  0  0
    0.0310    4.4370  -23.7470 C   0  0  0  0  0  0
   -1.9350    3.1810  -24.6730 C   0  0  0  0  0  0
    4.2490    1.2940  -23.2180 C   0  0  0  0  0  0
    5.2010    0.9620  -22.0790 C   0  0  2  0  0  0
    6.7590    2.5290  -22.6400 C   0  0  2  0  0  0
    5.1770    1.9690  -20.9170 C   0  0  0  0  0  0
   -2.2790    3.3270  -26.0980 C   0  0  0  0  0  0
   -1.4750    2.6040  -21.7300 C   0  0  0  0  0  0
   -0.4330    2.2780  -21.2330 C   0  0  0  0  0  0
   -0.8260    5.4680  -23.3990 F   0  0  0  0  0  0
   -3.6500    2.8600  -20.1800 F   0  0  0  0  0  0
    1.8170    5.8250  -22.9910 N   0  0  0  0  0  0
    4.0500    4.9400  -23.0810 N   0  0  0  0  0  0
    0.3540    2.3140  -24.7540 N   0  0  0  0  0  0
    4.5300    2.7470  -23.6970 N   0  0  0  0  0  0
    6.6010    1.0520  -22.5770 N   0  0  1  0  0  0
   -3.8270    3.4860  -27.8380 O   0  0  0  0  0  0
   -5.9211    3.3722  -21.1551 H   0  0  0  0  0  0
   -6.4302    3.6705  -23.5420 H   0  0  0  0  0  0
    5.6665    3.9350  -21.3940 H   0  0  0  0  0  0
    6.9500    2.9853  -20.5243 H   0  0  0  0  0  0
    6.3815    2.6411  -24.7603 H   0  0  0  0  0  0
    6.1112    4.1753  -23.8734 H   0  0  0  0  0  0
   -5.6562    3.7377  -25.9144 H   0  0  0  0  0  0
    2.3137    1.6107  -24.7472 H   0  0  0  0  0  0
    3.2113    1.2203  -22.8607 H   0  0  0  0  0  0
    4.4155    0.5946  -24.0506 H   0  0  0  0  0  0
    5.0002   -0.0523  -21.7036 H   0  0  0  0  0  0
    7.8221    2.8054  -22.6995 H   0  0  0  0  0  0
    4.1849    2.4413  -20.8655 H   0  0  0  0  0  0
    5.4959    1.4654  -19.9925 H   0  0  0  0  0  0
   -1.5171    3.3170  -26.8690 H   0  0  0  0  0  0
    0.4846    1.9911  -20.7962 H   0  0  0  0  0  0
    7.2651    0.5707  -21.8744 H   0  0  0  0  0  0
   -2.9854    3.4108  -28.2722 H   0  0  0  0  0  0
    4.7140    7.0630  -21.3170 N   0  3  0  0  0  0
    5.4950    8.2770  -20.8680 C   0  0  0  0  0  0
    5.6900   10.6360  -20.3980 C   0  0  0  0  0  0
    6.8270   10.2460  -21.3660 C   0  0  0  0  0  0
    6.4910    8.8390  -21.8950 C   0  0  0  0  0  0
    4.6580    9.4990  -20.4660 C   0  0  0  0  0  0
    3.6780    7.2390  -22.4010 C   0  0  0  0  0  0
    4.2821    6.6331  -20.5141 H   0  0  0  0  0  0
    5.3591    6.3389  -21.5920 H   0  0  0  0  0  0
    6.0760    7.9780  -19.9831 H   0  0  0  0  0  0
    5.2251   11.5728  -20.7389 H   0  0  0  0  0  0
    6.0901   10.7060  -19.3757 H   0  0  0  0  0  0
    7.7799   10.2130  -20.8175 H   0  0  0  0  0  0
    6.8510   10.9554  -22.2063 H   0  0  0  0  0  0
    5.9950    8.9260  -22.8730 H   0  0  0  0  0  0
    7.4022    8.2228  -21.8930 H   0  0  0  0  0  0
    4.2321    9.3350  -19.4652 H   0  0  0  0  0  0
    3.9288    9.7171  -21.2602 H   0  0  0  0  0  0
    4.1289    7.7609  -23.2579 H   0  0  0  0  0  0
    2.8492    7.8538  -22.0201 H   0  0  0  0  0  0
  1  2  2  0  0  0
  1  3  1  0  0  0
  1 34  1  0  0  0
  2  6  1  0  0  0
  2 35  1  0  0  0
  3  5  2  0  0  0
  3 27  1  0  0  0
  4  5  1  0  0  0
  4  6  2  0  0  0
  4 18  1  0  0  0
  5 24  1  0  0  0
  6 10  1  0  0  0
  7 10  2  0  0  0
  7 23  1  0  0  0
  7 33  1  0  0  0
  8 21  1  0  0  0
  8 22  1  0  0  0
  8 36  1  0  0  0
  8 37  1  0  0  0
  9 21  1  0  0  0
  9 31  1  0  0  0
  9 38  1  0  0  0
  9 39  1  0  0  0
 10 40  1  0  0  0
 11 12  1  0  0  0
 11 14  2  0  0  0
 11 15  1  0  0  0
 12 17  1  0  0  0
 12 28  2  0  0  0
 13 28  1  0  0  0
 13 29  2  0  0  0
 13 58  1  0  0  0
 14 29  1  0  0  0
 14 31  1  0  0  0
 15 30  2  0  0  0
 15 41  1  0  0  0
 16 17  2  0  0  0
 16 18  1  0  0  0
 16 30  1  0  0  0
 17 26  1  0  0  0
 18 23  2  0  0  0
 19 20  1  0  0  0
 19 31  1  0  0  0
 19 42  1  0  0  0
 19 43  1  0  0  0
 20 22  1  0  0  0
 20 32  1  0  0  0
 20 44  1  0  0  0
 21 32  1  0  0  0
 21 45  1  0  0  0
 22 46  1  0  0  0
 22 47  1  0  0  0
 23 48  1  0  0  0
 24 25  3  0  0  0
 25 49  1  0  0  0
 32 50  1  0  0  0
 33 51  1  0  0  0
 52 53  1  0  0  0
 52 58  1  0  0  0
 52 59  1  0  0  0
 52 60  1  0  0  0
 53 56  1  0  0  0
 53 57  1  0  0  0
 53 61  1  0  0  0
 54 55  1  0  0  0
 54 57  1  0  0  0
 54 62  1  0  0  0
 54 63  1  0  0  0
 55 56  1  0  0  0
 55 64  1  0  0  0
 55 65  1  0  0  0
 56 66  1  0  0  0
 56 67  1  0  0  0
 57 68  1  0  0  0
 57 69  1  0  0  0
 58 70  1  0  0  0
 58 71  1  0  0  0
M  CHG  1  52   1
M  END
> <s_m_entry_id>
353

> <s_m_entry_name>
000000195.1

> <s_m_Source_Path>
/Users/zaksoul/Documents/3r_UNI/2nd_SEMESTER/BSC/FRAG_RECON/RESULTS/2

> <s_m_Source_File>
000000195.mol2

> <i_m_Source_File_Index>
1

$$$$
No_0_208
                    3D
 Schrodinger Suite 2022-4.
 71 77  0  0  1  0            999 V2000
   -5.4140    3.6660  -22.0810 C   0  0  0  0  0  0
   -5.6340    3.8420  -23.4260 C   0  0  0  0  0  0
   -4.1910    3.3960  -21.6970 C   0  0  0  0  0  0
   -3.2300    3.4790  -23.8350 C   0  0  0  0  0  0
   -3.1190    3.2500  -22.4070 C   0  0  0  0  0  0
   -4.5560    3.7580  -24.4020 C   0  0  0  0  0  0
   -3.7320    3.7380  -26.5750 C   0  0  0  0  0  0
    5.8120    2.9060  -20.9950 C   0  0  0  0  0  0
    5.7570    3.0180  -23.5490 C   0  0  0  0  0  0
   -4.7630    3.8720  -25.7460 C   0  0  0  0  0  0
    1.9850    3.6300  -23.6930 C   0  0  0  0  0  0
    1.1740    4.7560  -23.4340 C   0  0  0  0  0  0
    2.9710    5.9300  -22.7130 C   0  0  0  0  0  0
    3.3780    3.8010  -23.3380 C   0  0  0  0  0  0
    1.4400    2.5140  -24.3580 C   0  0  0  0  0  0
   -0.6750    3.3650  -24.3250 C   0  0  0  0  0  0
   -0.1460    4.5840  -23.7250 C   0  0  0  0  0  0
   -2.1160    3.3910  -24.7250 C   0  0  0  0  0  0
    3.9300    1.2970  -22.9960 C   0  0  0  0  0  0
    4.8210    0.9400  -21.8160 C   0  0  2  0  0  0
    6.4560    2.4460  -22.3210 C   0  0  2  0  0  0
    4.7830    1.9570  -20.6630 C   0  0  0  0  0  0
   -2.3940    3.5370  -26.1640 C   0  0  0  0  0  0
   -1.8010    2.8220  -21.7610 C   0  0  0  0  0  0
   -0.7930    2.4630  -21.2190 C   0  0  0  0  0  0
   -0.9800    5.6470  -23.4200 F   0  0  0  0  0  0
   -4.0290    3.1680  -20.3060 F   0  0  0  0  0  0
    1.6540    5.9140  -22.9020 N   0  0  0  0  0  0
    3.8570    4.9490  -22.8920 N   0  0  0  0  0  0
    0.1420    2.4430  -24.7030 N   0  0  0  0  0  0
    4.2820    2.7350  -23.4730 N   0  0  0  0  0  0
    6.2430    0.9770  -22.2550 N   0  0  1  0  0  0
   -3.8600    3.7380  -27.9700 O   0  0  0  0  0  0
   -6.2368    3.7523  -21.3806 H   0  0  0  0  0  0
   -6.6344    4.0497  -23.7882 H   0  0  0  0  0  0
    5.3630    3.9008  -21.1322 H   0  0  0  0  0  0
    6.5740    2.9131  -20.2017 H   0  0  0  0  0  0
    6.1718    2.5547  -24.4564 H   0  0  0  0  0  0
    5.9195    4.1051  -23.5914 H   0  0  0  0  0  0
   -5.7586    4.0697  -26.1264 H   0  0  0  0  0  0
    2.0734    1.6708  -24.6089 H   0  0  0  0  0  0
    2.8759    1.2627  -22.6833 H   0  0  0  0  0  0
    4.1056    0.5856  -23.8164 H   0  0  0  0  0  0
    4.5677   -0.0632  -21.4426 H   0  0  0  0  0  0
    7.5298    2.6842  -22.3371 H   0  0  0  0  0  0
    3.8074    2.4650  -20.6569 H   0  0  0  0  0  0
    5.0454    1.4504  -19.7225 H   0  0  0  0  0  0
   -1.6015    3.4949  -26.9024 H   0  0  0  0  0  0
    0.0943    2.1479  -20.7409 H   0  0  0  0  0  0
    6.8588    0.4777  -21.5216 H   0  0  0  0  0  0
   -3.0038    3.6291  -28.3669 H   0  0  0  0  0  0
    4.9420    7.0920  -21.7130 N   0  3  0  0  0  0
    5.7370    8.3320  -21.3720 C   0  0  0  0  0  0
    5.9170   10.5940  -20.5530 C   0  0  0  0  0  0
    6.5770   10.5370  -21.9460 C   0  0  0  0  0  0
    6.1680    9.1900  -22.5710 C   0  0  0  0  0  0
    5.0450    9.3330  -20.4370 C   0  0  0  0  0  0
    3.5390    7.2650  -22.2440 C   0  0  0  0  0  0
    4.9180    6.4842  -20.9092 H   0  0  0  0  0  0
    5.4713    6.5267  -22.3583 H   0  0  0  0  0  0
    6.6549    7.9980  -20.8661 H   0  0  0  0  0  0
    5.2787   11.4874  -20.4870 H   0  0  0  0  0  0
    6.6972   10.5720  -19.7778 H   0  0  0  0  0  0
    7.6708   10.5710  -21.8340 H   0  0  0  0  0  0
    6.1931   11.3599  -22.5669 H   0  0  0  0  0  0
    5.3066    9.3451  -23.2373 H   0  0  0  0  0  0
    7.0446    8.7312  -23.0518 H   0  0  0  0  0  0
    5.0880    8.9558  -19.4046 H   0  0  0  0  0  0
    4.0375    9.5521  -20.8202 H   0  0  0  0  0  0
    3.5500    7.9740  -23.0850 H   0  0  0  0  0  0
    2.8961    7.6789  -21.4532 H   0  0  0  0  0  0
  1  2  2  0  0  0
  1  3  1  0  0  0
  1 34  1  0  0  0
  2  6  1  0  0  0
  2 35  1  0  0  0
  3  5  2  0  0  0
  3 27  1  0  0  0
  4  5  1  0  0  0
  4  6  2  0  0  0
  4 18  1  0  0  0
  5 24  1  0  0  0
  6 10  1  0  0  0
  7 10  2  0  0  0
  7 23  1  0  0  0
  7 33  1  0  0  0
  8 21  1  0  0  0
  8 22  1  0  0  0
  8 36  1  0  0  0
  8 37  1  0  0  0
  9 21  1  0  0  0
  9 31  1  0  0  0
  9 38  1  0  0  0
  9 39  1  0  0  0
 10 40  1  0  0  0
 11 12  1  0  0  0
 11 14  2  0  0  0
 11 15  1  0  0  0
 12 17  1  0  0  0
 12 28  2  0  0  0
 13 28  1  0  0  0
 13 29  2  0  0  0
 13 58  1  0  0  0
 14 29  1  0  0  0
 14 31  1  0  0  0
 15 30  2  0  0  0
 15 41  1  0  0  0
 16 17  2  0  0  0
 16 18  1  0  0  0
 16 30  1  0  0  0
 17 26  1  0  0  0
 18 23  2  0  0  0
 19 20  1  0  0  0
 19 31  1  0  0  0
 19 42  1  0  0  0
 19 43  1  0  0  0
 20 22  1  0  0  0
 20 32  1  0  0  0
 20 44  1  0  0  0
 21 32  1  0  0  0
 21 45  1  0  0  0
 22 46  1  0  0  0
 22 47  1  0  0  0
 23 48  1  0  0  0
 24 25  3  0  0  0
 25 49  1  0  0  0
 32 50  1  0  0  0
 33 51  1  0  0  0
 52 53  1  0  0  0
 52 58  1  0  0  0
 52 59  1  0  0  0
 52 60  1  0  0  0
 53 56  1  0  0  0
 53 57  1  0  0  0
 53 61  1  0  0  0
 54 55  1  0  0  0
 54 57  1  0  0  0
 54 62  1  0  0  0
 54 63  1  0  0  0
 55 56  1  0  0  0
 55 64  1  0  0  0
 55 65  1  0  0  0
 56 66  1  0  0  0
 56 67  1  0  0  0
 57 68  1  0  0  0
 57 69  1  0  0  0
 58 70  1  0  0  0
 58 71  1  0  0  0
M  CHG  1  52   1
M  END
> <s_m_entry_id>
354

> <s_m_entry_name>
000000196.1

> <s_m_Source_Path>
/Users/zaksoul/Documents/3r_UNI/2nd_SEMESTER/BSC/FRAG_RECON/RESULTS/2

> <s_m_Source_File>
000000196.mol2

> <i_m_Source_File_Index>
1

$$$$
No_0_209
                    3D
 Schrodinger Suite 2022-4.
 71 77  0  0  1  0            999 V2000
   -5.3490    3.3960  -21.9730 C   0  0  0  0  0  0
   -5.6050    3.6040  -23.3080 C   0  0  0  0  0  0
   -4.1120    3.1490  -21.6250 C   0  0  0  0  0  0
   -3.2020    3.3200  -23.7800 C   0  0  0  0  0  0
   -3.0520    3.0540  -22.3620 C   0  0  0  0  0  0
   -4.5470    3.5780  -24.3090 C   0  0  0  0  0  0
   -3.7710    3.6430  -26.4990 C   0  0  0  0  0  0
    5.9150    2.9170  -21.1540 C   0  0  0  0  0  0
    5.7990    3.1000  -23.7020 C   0  0  0  0  0  0
   -4.7870    3.7250  -25.6440 C   0  0  0  0  0  0
    2.0090    3.6120  -23.7460 C   0  0  0  0  0  0
    1.1740    4.7070  -23.4370 C   0  0  0  0  0  0
    2.9540    5.9090  -22.7210 C   0  0  0  0  0  0
    3.4050    3.8110  -23.4170 C   0  0  0  0  0  0
    1.4800    2.5000  -24.4310 C   0  0  0  0  0  0
   -0.6560    3.2910  -24.3270 C   0  0  0  0  0  0
   -0.1470    4.5060  -23.7040 C   0  0  0  0  0  0
   -2.1060    3.2890  -24.6960 C   0  0  0  0  0  0
    4.0320    1.3150  -23.1600 C   0  0  0  0  0  0
    4.9590    0.9490  -22.0110 C   0  0  2  0  0  0
    6.5410    2.5140  -22.5070 C   0  0  2  0  0  0
    4.9200    1.9310  -20.8280 C   0  0  0  0  0  0
   -2.4190    3.4680  -26.1240 C   0  0  0  0  0  0
   -1.7090    2.6440  -21.7570 C   0  0  0  0  0  0
   -0.6800    2.2980  -21.2470 C   0  0  0  0  0  0
   -1.0020    5.5370  -23.3500 F   0  0  0  0  0  0
   -3.9120    2.8860  -20.2450 F   0  0  0  0  0  0
    1.6350    5.8620  -22.8820 N   0  0  0  0  0  0
    3.8620    4.9590  -22.9480 N   0  0  0  0  0  0
    0.1780    2.4030  -24.7500 N   0  0  0  0  0  0
    4.3350    2.7750  -23.6020 N   0  0  0  0  0  0
    6.3690    1.0380  -22.4790 N   0  0  1  0  0  0
   -3.9310    3.6790  -27.8900 O   0  0  0  0  0  0
   -6.1583    3.4392  -21.2531 H   0  0  0  0  0  0
   -6.6183    3.7948  -23.6424 H   0  0  0  0  0  0
    5.4359    3.9024  -21.2518 H   0  0  0  0  0  0
    6.6938    2.9231  -20.3772 H   0  0  0  0  0  0
    6.2057    2.6751  -24.6315 H   0  0  0  0  0  0
    5.9312    4.1919  -23.7161 H   0  0  0  0  0  0
   -5.7958    3.9057  -25.9973 H   0  0  0  0  0  0
    2.1302    1.6822  -24.7200 H   0  0  0  0  0  0
    2.9868    1.2424  -22.8250 H   0  0  0  0  0  0
    4.2085    0.6322  -24.0042 H   0  0  0  0  0  0
    4.7411   -0.0708  -21.6610 H   0  0  0  0  0  0
    7.6073    2.7823  -22.5393 H   0  0  0  0  0  0
    3.9313    2.4112  -20.7856 H   0  0  0  0  0  0
    5.2165    1.4056  -19.9082 H   0  0  0  0  0  0
   -1.6420    3.4690  -26.8799 H   0  0  0  0  0  0
    0.2262    1.9929  -20.7989 H   0  0  0  0  0  0
    7.0146    0.5346  -21.7746 H   0  0  0  0  0  0
   -3.0814    3.6067  -28.3089 H   0  0  0  0  0  0
    5.0060    7.2390  -22.2160 N   0  3  0  0  0  0
    5.7260    8.5380  -21.9310 C   0  0  0  0  0  0
    5.9240   10.6690  -20.8160 C   0  0  0  0  0  0
    6.0640   10.9090  -22.3340 C   0  0  0  0  0  0
    5.6180    9.6080  -23.0280 C   0  0  0  0  0  0
    5.2930    9.2760  -20.6570 C   0  0  0  0  0  0
    3.4960    7.2460  -22.2250 C   0  0  0  0  0  0
    5.3290    6.5340  -21.5720 H   0  0  0  0  0  0
    5.3400    6.8620  -23.0891 H   0  0  0  0  0  0
    6.7934    8.2971  -21.8181 H   0  0  0  0  0  0
    5.2516   11.4264  -20.3868 H   0  0  0  0  0  0
    6.9215   10.6730  -20.3523 H   0  0  0  0  0  0
    7.1178   11.1100  -22.5770 H   0  0  0  0  0  0
    5.4000   11.7320  -22.6370 H   0  0  0  0  0  0
    4.5677    9.7050  -23.3401 H   0  0  0  0  0  0
    6.3204    9.3699  -23.8404 H   0  0  0  0  0  0
    5.7308    8.7762  -19.7804 H   0  0  0  0  0  0
    4.1973    9.3730  -20.6480 H   0  0  0  0  0  0
    3.1368    8.0524  -22.8813 H   0  0  0  0  0  0
    3.1239    7.4371  -21.2076 H   0  0  0  0  0  0
  1  2  2  0  0  0
  1  3  1  0  0  0
  1 34  1  0  0  0
  2  6  1  0  0  0
  2 35  1  0  0  0
  3  5  2  0  0  0
  3 27  1  0  0  0
  4  5  1  0  0  0
  4  6  2  0  0  0
  4 18  1  0  0  0
  5 24  1  0  0  0
  6 10  1  0  0  0
  7 10  2  0  0  0
  7 23  1  0  0  0
  7 33  1  0  0  0
  8 21  1  0  0  0
  8 22  1  0  0  0
  8 36  1  0  0  0
  8 37  1  0  0  0
  9 21  1  0  0  0
  9 31  1  0  0  0
  9 38  1  0  0  0
  9 39  1  0  0  0
 10 40  1  0  0  0
 11 12  1  0  0  0
 11 14  2  0  0  0
 11 15  1  0  0  0
 12 17  1  0  0  0
 12 28  2  0  0  0
 13 28  1  0  0  0
 13 29  2  0  0  0
 13 58  1  0  0  0
 14 29  1  0  0  0
 14 31  1  0  0  0
 15 30  2  0  0  0
 15 41  1  0  0  0
 16 17  2  0  0  0
 16 18  1  0  0  0
 16 30  1  0  0  0
 17 26  1  0  0  0
 18 23  2  0  0  0
 19 20  1  0  0  0
 19 31  1  0  0  0
 19 42  1  0  0  0
 19 43  1  0  0  0
 20 22  1  0  0  0
 20 32  1  0  0  0
 20 44  1  0  0  0
 21 32  1  0  0  0
 21 45  1  0  0  0
 22 46  1  0  0  0
 22 47  1  0  0  0
 23 48  1  0  0  0
 24 25  3  0  0  0
 25 49  1  0  0  0
 32 50  1  0  0  0
 33 51  1  0  0  0
 52 53  1  0  0  0
 52 58  1  0  0  0
 52 59  1  0  0  0
 52 60  1  0  0  0
 53 56  1  0  0  0
 53 57  1  0  0  0
 53 61  1  0  0  0
 54 55  1  0  0  0
 54 57  1  0  0  0
 54 62  1  0  0  0
 54 63  1  0  0  0
 55 56  1  0  0  0
 55 64  1  0  0  0
 55 65  1  0  0  0
 56 66  1  0  0  0
 56 67  1  0  0  0
 57 68  1  0  0  0
 57 69  1  0  0  0
 58 70  1  0  0  0
 58 71  1  0  0  0
M  CHG  1  52   1
M  END
> <s_m_entry_id>
355

> <s_m_entry_name>
000000197.1

> <s_m_Source_Path>
/Users/zaksoul/Documents/3r_UNI/2nd_SEMESTER/BSC/FRAG_RECON/RESULTS/2

> <s_m_Source_File>
000000197.mol2

> <i_m_Source_File_Index>
1

$$$$
No_0_210
                    3D
 Schrodinger Suite 2022-4.
 74 80  0  0  1  0            999 V2000
   -5.2210    3.5090  -21.6720 C   0  0  0  0  0  0
   -5.5220    3.6750  -23.0030 C   0  0  0  0  0  0
   -3.9770    3.2440  -21.3620 C   0  0  0  0  0  0
   -3.1460    3.3140  -23.5540 C   0  0  0  0  0  0
   -2.9480    3.0950  -22.1340 C   0  0  0  0  0  0
   -4.5040    3.5860  -24.0420 C   0  0  0  0  0  0
   -3.8120    3.5530  -26.2600 C   0  0  0  0  0  0
    6.0520    2.7770  -21.2580 C   0  0  0  0  0  0
    5.8430    2.8710  -23.8050 C   0  0  0  0  0  0
   -4.7910    3.6910  -25.3720 C   0  0  0  0  0  0
    2.0680    3.4760  -23.7260 C   0  0  0  0  0  0
    1.2720    4.6020  -23.4260 C   0  0  0  0  0  0
    3.1050    5.7840  -22.8220 C   0  0  0  0  0  0
    3.4790    3.6520  -23.4570 C   0  0  0  0  0  0
    1.4870    2.3540  -24.3490 C   0  0  0  0  0  0
   -0.6250    3.2010  -24.1950 C   0  0  0  0  0  0
   -0.0640    4.4250  -23.6360 C   0  0  0  0  0  0
   -2.0870    3.2220  -24.5080 C   0  0  0  0  0  0
    4.0560    1.1510  -23.1320 C   0  0  0  0  0  0
    5.0170    0.8040  -22.0050 C   0  0  2  0  0  0
    6.6160    2.3100  -22.6170 C   0  0  2  0  0  0
    5.0470    1.8280  -20.8580 C   0  0  0  0  0  0
   -2.4510    3.3580  -25.9290 C   0  0  0  0  0  0
   -1.5940    2.6740  -21.5650 C   0  0  0  0  0  0
   -0.5540    2.3210  -21.0820 C   0  0  0  0  0  0
   -0.8800    5.4890  -23.2890 F   0  0  0  0  0  0
   -3.7310    3.0260  -19.9810 F   0  0  0  0  0  0
    1.7800    5.7640  -22.9320 N   0  0  0  0  0  0
    3.9810    4.8040  -23.0480 N   0  0  0  0  0  0
    0.1710    2.2780  -24.6150 N   0  0  0  0  0  0
    4.3760    2.5870  -23.6390 N   0  0  0  0  0  0
    6.4100    0.8400  -22.5280 N   0  0  1  0  0  0
   -4.0240    3.5430  -27.6450 O   0  0  0  0  0  0
   -6.0013    3.5984  -20.9249 H   0  0  0  0  0  0
   -6.5424    3.8787  -23.3070 H   0  0  0  0  0  0
    5.5929    3.7699  -21.3740 H   0  0  0  0  0  0
    6.8599    2.7911  -20.5116 H   0  0  0  0  0  0
    6.2043    2.4027  -24.7325 H   0  0  0  0  0  0
    6.0005    3.9581  -23.8635 H   0  0  0  0  0  0
   -5.8081    3.8846  -25.6930 H   0  0  0  0  0  0
    2.1053    1.5098  -24.6321 H   0  0  0  0  0  0
    3.0231    1.1167  -22.7554 H   0  0  0  0  0  0
    4.1842    0.4344  -23.9566 H   0  0  0  0  0  0
    4.7889   -0.1971  -21.6104 H   0  0  0  0  0  0
    7.6863    2.5501  -22.6997 H   0  0  0  0  0  0
    4.0725    2.3344  -20.7965 H   0  0  0  0  0  0
    5.3660    1.3284  -19.9314 H   0  0  0  0  0  0
   -1.7035    3.3118  -26.7127 H   0  0  0  0  0  0
    0.3609    2.0100  -20.6561 H   0  0  0  0  0  0
    7.0710    0.3469  -21.8306 H   0  0  0  0  0  0
   -3.1929    3.4342  -28.0922 H   0  0  0  0  0  0
    4.7460    6.9250  -21.3280 N   0  3  0  0  0  0
    6.5820    8.5520  -21.9930 C   0  0  0  0  0  0
    4.6740    9.3230  -20.4900 C   0  0  0  0  0  0
    5.5590    8.1280  -20.9120 C   0  0  0  0  0  0
    6.5140   10.9110  -21.1320 C   0  0  0  0  0  0
    7.4370    9.7270  -21.4790 C   0  0  0  0  0  0
    5.5560   10.4890  -20.0010 C   0  0  0  0  0  0
    3.6970    7.1230  -22.3970 C   0  0  0  0  0  0
    4.3141    6.5201  -20.5122 H   0  0  0  0  0  0
    5.3701    6.1858  -21.6111 H   0  0  0  0  0  0
    6.0471    8.8590  -22.9039 H   0  0  0  0  0  0
    7.2358    7.7003  -22.2319 H   0  0  0  0  0  0
    3.9983    9.0101  -19.6803 H   0  0  0  0  0  0
    4.0720    9.6540  -21.3491 H   0  0  0  0  0  0
    6.1379    7.8310  -20.0251 H   0  0  0  0  0  0
    5.9302   11.1929  -22.0207 H   0  0  0  0  0  0
    7.1219   11.7648  -20.7981 H   0  0  0  0  0  0
    8.1478   10.0329  -22.2608 H   0  0  0  0  0  0
    7.9859    9.4151  -20.5782 H   0  0  0  0  0  0
    6.1412   10.1649  -19.1278 H   0  0  0  0  0  0
    4.9171   11.3409  -19.7250 H   0  0  0  0  0  0
    4.1519    7.6159  -23.2688 H   0  0  0  0  0  0
    2.8971    7.7709  -22.0091 H   0  0  0  0  0  0
  1  2  2  0  0  0
  1  3  1  0  0  0
  1 34  1  0  0  0
  2  6  1  0  0  0
  2 35  1  0  0  0
  3  5  2  0  0  0
  3 27  1  0  0  0
  4  5  1  0  0  0
  4  6  2  0  0  0
  4 18  1  0  0  0
  5 24  1  0  0  0
  6 10  1  0  0  0
  7 10  2  0  0  0
  7 23  1  0  0  0
  7 33  1  0  0  0
  8 21  1  0  0  0
  8 22  1  0  0  0
  8 36  1  0  0  0
  8 37  1  0  0  0
  9 21  1  0  0  0
  9 31  1  0  0  0
  9 38  1  0  0  0
  9 39  1  0  0  0
 10 40  1  0  0  0
 11 12  1  0  0  0
 11 14  2  0  0  0
 11 15  1  0  0  0
 12 17  1  0  0  0
 12 28  2  0  0  0
 13 28  1  0  0  0
 13 29  2  0  0  0
 13 59  1  0  0  0
 14 29  1  0  0  0
 14 31  1  0  0  0
 15 30  2  0  0  0
 15 41  1  0  0  0
 16 17  2  0  0  0
 16 18  1  0  0  0
 16 30  1  0  0  0
 17 26  1  0  0  0
 18 23  2  0  0  0
 19 20  1  0  0  0
 19 31  1  0  0  0
 19 42  1  0  0  0
 19 43  1  0  0  0
 20 22  1  0  0  0
 20 32  1  0  0  0
 20 44  1  0  0  0
 21 32  1  0  0  0
 21 45  1  0  0  0
 22 46  1  0  0  0
 22 47  1  0  0  0
 23 48  1  0  0  0
 24 25  3  0  0  0
 25 49  1  0  0  0
 32 50  1  0  0  0
 33 51  1  0  0  0
 52 55  1  0  0  0
 52 59  1  0  0  0
 52 60  1  0  0  0
 52 61  1  0  0  0
 53 55  1  0  0  0
 53 57  1  0  0  0
 53 62  1  0  0  0
 53 63  1  0  0  0
 54 55  1  0  0  0
 54 58  1  0  0  0
 54 64  1  0  0  0
 54 65  1  0  0  0
 55 66  1  0  0  0
 56 57  1  0  0  0
 56 58  1  0  0  0
 56 67  1  0  0  0
 56 68  1  0  0  0
 57 69  1  0  0  0
 57 70  1  0  0  0
 58 71  1  0  0  0
 58 72  1  0  0  0
 59 73  1  0  0  0
 59 74  1  0  0  0
M  CHG  1  52   1
M  END
> <s_m_entry_id>
356

> <s_m_entry_name>
000000198.1

> <s_m_Source_Path>
/Users/zaksoul/Documents/3r_UNI/2nd_SEMESTER/BSC/FRAG_RECON/RESULTS/2

> <s_m_Source_File>
000000198.mol2

> <i_m_Source_File_Index>
1

$$$$
No_0_211
                    3D
 Schrodinger Suite 2022-4.
 72 78  0  0  1  0            999 V2000
   -5.2200    3.5770  -22.1420 C   0  0  0  0  0  0
   -5.4450    3.7280  -23.4890 C   0  0  0  0  0  0
   -3.9920    3.3420  -21.7550 C   0  0  0  0  0  0
   -3.0320    3.4170  -23.8930 C   0  0  0  0  0  0
   -2.9160    3.2120  -22.4620 C   0  0  0  0  0  0
   -4.3640    3.6560  -24.4640 C   0  0  0  0  0  0
   -3.5390    3.6240  -26.6370 C   0  0  0  0  0  0
    6.0200    3.1000  -21.0460 C   0  0  0  0  0  0
    5.9630    3.1730  -23.6010 C   0  0  0  0  0  0
   -4.5730    3.7460  -25.8100 C   0  0  0  0  0  0
    2.1770    3.6930  -23.7540 C   0  0  0  0  0  0
    1.3400    4.8040  -23.5110 C   0  0  0  0  0  0
    3.1080    6.0300  -22.8070 C   0  0  0  0  0  0
    3.5660    3.9020  -23.4010 C   0  0  0  0  0  0
    1.6590    2.5550  -24.4020 C   0  0  0  0  0  0
   -0.4750    3.3560  -24.3810 C   0  0  0  0  0  0
    0.0240    4.5960  -23.7990 C   0  0  0  0  0  0
   -1.9160    3.3420  -24.7820 C   0  0  0  0  0  0
    4.1770    1.4180  -23.0230 C   0  0  0  0  0  0
    5.0760    1.0990  -21.8380 C   0  0  2  0  0  0
    6.6750    2.6360  -22.3650 C   0  0  2  0  0  0
    5.0140    2.1310  -20.7000 C   0  0  0  0  0  0
   -2.1970    3.4610  -26.2230 C   0  0  0  0  0  0
   -1.5890    2.8240  -21.8100 C   0  0  0  0  0  0
   -0.5730    2.4970  -21.2630 C   0  0  0  0  0  0
   -0.8350    5.6430  -23.5100 F   0  0  0  0  0  0
   -3.8240    3.1380  -20.3600 F   0  0  0  0  0  0
    1.7930    5.9800  -22.9960 N   0  0  0  0  0  0
    4.0170    5.0680  -22.9720 N   0  0  0  0  0  0
    0.3640    2.4480  -24.7460 N   0  0  0  0  0  0
    4.4960    2.8570  -23.5210 N   0  0  0  0  0  0
    6.4970    1.1630  -22.2770 N   0  0  1  0  0  0
   -3.6670    3.6000  -28.0310 O   0  0  0  0  0  0
   -6.0447    3.6543  -21.4427 H   0  0  0  0  0  0
   -6.4492    3.9078  -23.8555 H   0  0  0  0  0  0
    5.5473    4.0818  -21.1965 H   0  0  0  0  0  0
    6.7811    3.1363  -20.2526 H   0  0  0  0  0  0
    6.3899    2.7067  -24.5012 H   0  0  0  0  0  0
    6.1002    4.2629  -23.6585 H   0  0  0  0  0  0
   -5.5733    3.9137  -26.1926 H   0  0  0  0  0  0
    2.3121    1.7234  -24.6407 H   0  0  0  0  0  0
    3.1242    1.3625  -22.7091 H   0  0  0  0  0  0
    4.3706    0.6990  -23.8327 H   0  0  0  0  0  0
    4.8459    0.0959  -21.4495 H   0  0  0  0  0  0
    7.7429    2.8992  -22.3842 H   0  0  0  0  0  0
    4.0269    2.6165  -20.7010 H   0  0  0  0  0  0
    5.2873    1.6448  -19.7519 H   0  0  0  0  0  0
   -1.4033    3.4269  -26.9605 H   0  0  0  0  0  0
    0.3211    2.2093  -20.7805 H   0  0  0  0  0  0
    7.1248    0.6892  -21.5369 H   0  0  0  0  0  0
   -2.8085    3.5069  -28.4271 H   0  0  0  0  0  0
    6.4050   11.0760  -20.8490 O   0  0  0  0  0  0
    4.3960    7.2660  -21.0540 N   0  3  0  0  0  0
    5.1710    8.4780  -20.5910 C   0  0  0  0  0  0
    6.4830    8.6810  -21.3810 C   0  0  0  0  0  0
    4.3350    9.7750  -20.6130 C   0  0  0  0  0  0
    5.1960   10.9340  -20.0750 C   0  0  0  0  0  0
    7.2310    9.8960  -20.7980 C   0  0  0  0  0  0
    3.6440    7.3850  -22.3570 C   0  0  0  0  0  0
    3.7563    6.9851  -20.3274 H   0  0  0  0  0  0
    5.0173    6.4736  -21.1010 H   0  0  0  0  0  0
    5.4529    8.2961  -19.5434 H   0  0  0  0  0  0
    6.2480    8.8680  -22.4392 H   0  0  0  0  0  0
    7.1110    7.7830  -21.2850 H   0  0  0  0  0  0
    3.4483    9.6500  -19.9742 H   0  0  0  0  0  0
    4.0280    9.9950  -21.6461 H   0  0  0  0  0  0
    4.6200   11.8700  -20.1210 H   0  0  0  0  0  0
    5.4551   10.7409  -19.0235 H   0  0  0  0  0  0
    7.5089    9.6880  -19.7542 H   0  0  0  0  0  0
    8.1528   10.0690  -21.3728 H   0  0  0  0  0  0
    4.3137    7.7888  -23.1306 H   0  0  0  0  0  0
    2.8065    8.0874  -22.2339 H   0  0  0  0  0  0
  1  2  2  0  0  0
  1  3  1  0  0  0
  1 34  1  0  0  0
  2  6  1  0  0  0
  2 35  1  0  0  0
  3  5  2  0  0  0
  3 27  1  0  0  0
  4  5  1  0  0  0
  4  6  2  0  0  0
  4 18  1  0  0  0
  5 24  1  0  0  0
  6 10  1  0  0  0
  7 10  2  0  0  0
  7 23  1  0  0  0
  7 33  1  0  0  0
  8 21  1  0  0  0
  8 22  1  0  0  0
  8 36  1  0  0  0
  8 37  1  0  0  0
  9 21  1  0  0  0
  9 31  1  0  0  0
  9 38  1  0  0  0
  9 39  1  0  0  0
 10 40  1  0  0  0
 11 12  1  0  0  0
 11 14  2  0  0  0
 11 15  1  0  0  0
 12 17  1  0  0  0
 12 28  2  0  0  0
 13 28  1  0  0  0
 13 29  2  0  0  0
 13 59  1  0  0  0
 14 29  1  0  0  0
 14 31  1  0  0  0
 15 30  2  0  0  0
 15 41  1  0  0  0
 16 17  2  0  0  0
 16 18  1  0  0  0
 16 30  1  0  0  0
 17 26  1  0  0  0
 18 23  2  0  0  0
 19 20  1  0  0  0
 19 31  1  0  0  0
 19 42  1  0  0  0
 19 43  1  0  0  0
 20 22  1  0  0  0
 20 32  1  0  0  0
 20 44  1  0  0  0
 21 32  1  0  0  0
 21 45  1  0  0  0
 22 46  1  0  0  0
 22 47  1  0  0  0
 23 48  1  0  0  0
 24 25  3  0  0  0
 25 49  1  0  0  0
 32 50  1  0  0  0
 33 51  1  0  0  0
 52 57  1  0  0  0
 52 58  1  0  0  0
 53 54  1  0  0  0
 53 59  1  0  0  0
 53 60  1  0  0  0
 53 61  1  0  0  0
 54 55  1  0  0  0
 54 56  1  0  0  0
 54 62  1  0  0  0
 55 58  1  0  0  0
 55 63  1  0  0  0
 55 64  1  0  0  0
 56 57  1  0  0  0
 56 65  1  0  0  0
 56 66  1  0  0  0
 57 67  1  0  0  0
 57 68  1  0  0  0
 58 69  1  0  0  0
 58 70  1  0  0  0
 59 71  1  0  0  0
 59 72  1  0  0  0
M  CHG  1  53   1
M  END
> <s_m_entry_id>
357

> <s_m_entry_name>
000000199.1

> <s_m_Source_Path>
/Users/zaksoul/Documents/3r_UNI/2nd_SEMESTER/BSC/FRAG_RECON/RESULTS/2

> <s_m_Source_File>
000000199.mol2

> <i_m_Source_File_Index>
1

$$$$
No_0_212
                    3D
 Schrodinger Suite 2022-4.
 72 78  0  0  1  0            999 V2000
   -4.8940    3.5130  -21.8390 C   0  0  0  0  0  0
   -5.1810    3.6950  -23.1710 C   0  0  0  0  0  0
   -3.6500    3.2640  -21.5160 C   0  0  0  0  0  0
   -2.7920    3.3820  -23.6950 C   0  0  0  0  0  0
   -2.6090    3.1450  -22.2760 C   0  0  0  0  0  0
   -4.1480    3.6400  -24.1970 C   0  0  0  0  0  0
   -3.4260    3.6530  -26.4060 C   0  0  0  0  0  0
    6.3830    2.9640  -21.2860 C   0  0  0  0  0  0
    6.2060    3.0940  -23.8330 C   0  0  0  0  0  0
   -4.4190    3.7610  -25.5290 C   0  0  0  0  0  0
    2.4200    3.6340  -23.7960 C   0  0  0  0  0  0
    1.6010    4.7420  -23.4890 C   0  0  0  0  0  0
    3.4070    5.9450  -22.8420 C   0  0  0  0  0  0
    3.8250    3.8290  -23.5050 C   0  0  0  0  0  0
    1.8660    2.5130  -24.4440 C   0  0  0  0  0  0
   -0.2610    3.3220  -24.3050 C   0  0  0  0  0  0
    0.2720    4.5460  -23.7190 C   0  0  0  0  0  0
   -1.7190    3.3230  -24.6370 C   0  0  0  0  0  0
    4.4400    1.3340  -23.2110 C   0  0  0  0  0  0
    5.3920    0.9850  -22.0770 C   0  0  2  0  0  0
    6.9730    2.5270  -22.6440 C   0  0  2  0  0  0
    5.3890    1.9920  -20.9140 C   0  0  0  0  0  0
   -2.0670    3.4750  -26.0600 C   0  0  0  0  0  0
   -1.2550    2.7370  -21.6960 C   0  0  0  0  0  0
   -0.2160    2.3940  -21.2050 C   0  0  0  0  0  0
   -0.5670    5.5910  -23.3670 F   0  0  0  0  0  0
   -3.4180    3.0280  -20.1360 F   0  0  0  0  0  0
    2.0840    5.9040  -22.9700 N   0  0  0  0  0  0
    4.3020    4.9830  -23.0720 N   0  0  0  0  0  0
    0.5560    2.4190  -24.7290 N   0  0  0  0  0  0
    4.7420    2.7820  -23.6910 N   0  0  0  0  0  0
    6.7910    1.0530  -22.5810 N   0  0  1  0  0  0
   -3.6200    3.6610  -27.7930 O   0  0  0  0  0  0
   -5.6848    3.5782  -21.1004 H   0  0  0  0  0  0
   -6.2006    3.8867  -23.4851 H   0  0  0  0  0  0
    5.9084    3.9506  -21.3930 H   0  0  0  0  0  0
    7.1807    2.9791  -20.5287 H   0  0  0  0  0  0
    6.5874    2.6460  -24.7624 H   0  0  0  0  0  0
    6.3462    4.1843  -23.8733 H   0  0  0  0  0  0
   -5.4353    3.9416  -25.8601 H   0  0  0  0  0  0
    2.5024    1.6838  -24.7311 H   0  0  0  0  0  0
    3.4029    1.2765  -22.8488 H   0  0  0  0  0  0
    4.5914    0.6325  -24.0447 H   0  0  0  0  0  0
    5.1750   -0.0255  -21.7005 H   0  0  0  0  0  0
    8.0400    2.7864  -22.7086 H   0  0  0  0  0  0
    4.4050    2.4805  -20.8575 H   0  0  0  0  0  0
    5.7050    1.4832  -19.9913 H   0  0  0  0  0  0
   -1.3087    3.4539  -26.8343 H   0  0  0  0  0  0
    0.6987    2.0921  -20.7722 H   0  0  0  0  0  0
    7.4498    0.5600  -21.8815 H   0  0  0  0  0  0
   -2.7818    3.5729  -28.2314 H   0  0  0  0  0  0
    6.8350   11.0070  -21.1740 O   0  0  0  0  0  0
    5.0090    7.1030  -21.3090 N   0  3  0  0  0  0
    5.8150    8.3180  -20.9120 C   0  0  0  0  0  0
    6.8970    8.6800  -21.9540 C   0  0  0  0  0  0
    4.9390    9.5520  -20.6100 C   0  0  0  0  0  0
    5.8480   10.7140  -20.1650 C   0  0  0  0  0  0
    7.7040    9.8860  -21.4340 C   0  0  0  0  0  0
    3.9700    7.2870  -22.3890 C   0  0  0  0  0  0
    4.5697    6.7138  -20.4895 H   0  0  0  0  0  0
    5.6377    6.3624  -21.5779 H   0  0  0  0  0  0
    6.3409    8.0630  -19.9801 H   0  0  0  0  0  0
    6.4140    8.9450  -22.9061 H   0  0  0  0  0  0
    7.5702    7.8217  -22.0960 H   0  0  0  0  0  0
    4.2319    9.3100  -19.8029 H   0  0  0  0  0  0
    4.3901    9.8429  -21.5178 H   0  0  0  0  0  0
    5.2351   11.6089  -19.9820 H   0  0  0  0  0  0
    6.3528   10.4451  -19.2254 H   0  0  0  0  0  0
    8.2261    9.6039  -20.5078 H   0  0  0  0  0  0
    8.4575   10.1722  -22.1825 H   0  0  0  0  0  0
    4.4229    7.8039  -23.2479 H   0  0  0  0  0  0
    3.1531    7.9169  -22.0070 H   0  0  0  0  0  0
  1  2  2  0  0  0
  1  3  1  0  0  0
  1 34  1  0  0  0
  2  6  1  0  0  0
  2 35  1  0  0  0
  3  5  2  0  0  0
  3 27  1  0  0  0
  4  5  1  0  0  0
  4  6  2  0  0  0
  4 18  1  0  0  0
  5 24  1  0  0  0
  6 10  1  0  0  0
  7 10  2  0  0  0
  7 23  1  0  0  0
  7 33  1  0  0  0
  8 21  1  0  0  0
  8 22  1  0  0  0
  8 36  1  0  0  0
  8 37  1  0  0  0
  9 21  1  0  0  0
  9 31  1  0  0  0
  9 38  1  0  0  0
  9 39  1  0  0  0
 10 40  1  0  0  0
 11 12  1  0  0  0
 11 14  2  0  0  0
 11 15  1  0  0  0
 12 17  1  0  0  0
 12 28  2  0  0  0
 13 28  1  0  0  0
 13 29  2  0  0  0
 13 59  1  0  0  0
 14 29  1  0  0  0
 14 31  1  0  0  0
 15 30  2  0  0  0
 15 41  1  0  0  0
 16 17  2  0  0  0
 16 18  1  0  0  0
 16 30  1  0  0  0
 17 26  1  0  0  0
 18 23  2  0  0  0
 19 20  1  0  0  0
 19 31  1  0  0  0
 19 42  1  0  0  0
 19 43  1  0  0  0
 20 22  1  0  0  0
 20 32  1  0  0  0
 20 44  1  0  0  0
 21 32  1  0  0  0
 21 45  1  0  0  0
 22 46  1  0  0  0
 22 47  1  0  0  0
 23 48  1  0  0  0
 24 25  3  0  0  0
 25 49  1  0  0  0
 32 50  1  0  0  0
 33 51  1  0  0  0
 52 57  1  0  0  0
 52 58  1  0  0  0
 53 54  1  0  0  0
 53 59  1  0  0  0
 53 60  1  0  0  0
 53 61  1  0  0  0
 54 55  1  0  0  0
 54 56  1  0  0  0
 54 62  1  0  0  0
 55 58  1  0  0  0
 55 63  1  0  0  0
 55 64  1  0  0  0
 56 57  1  0  0  0
 56 65  1  0  0  0
 56 66  1  0  0  0
 57 67  1  0  0  0
 57 68  1  0  0  0
 58 69  1  0  0  0
 58 70  1  0  0  0
 59 71  1  0  0  0
 59 72  1  0  0  0
M  CHG  1  53   1
M  END
> <s_m_entry_id>
358

> <s_m_entry_name>
000000200.1

> <s_m_Source_Path>
/Users/zaksoul/Documents/3r_UNI/2nd_SEMESTER/BSC/FRAG_RECON/RESULTS/2

> <s_m_Source_File>
000000200.mol2

> <i_m_Source_File_Index>
1

$$$$
No_0_213
                    3D
 Schrodinger Suite 2022-4.
 69 75  0  0  1  0            999 V2000
   -4.8950    3.3860  -21.8820 C   0  0  0  0  0  0
   -5.1760    3.5530  -23.2170 C   0  0  0  0  0  0
   -3.6570    3.1150  -21.5530 C   0  0  0  0  0  0
   -2.7950    3.1780  -23.7330 C   0  0  0  0  0  0
   -2.6190    2.9600  -22.3100 C   0  0  0  0  0  0
   -4.1440    3.4570  -24.2400 C   0  0  0  0  0  0
   -3.4200    3.4180  -26.4490 C   0  0  0  0  0  0
    6.3660    2.5940  -21.3030 C   0  0  0  0  0  0
    6.1950    2.6860  -23.8530 C   0  0  0  0  0  0
   -4.4110    3.5620  -25.5750 C   0  0  0  0  0  0
    2.4220    3.3110  -23.8300 C   0  0  0  0  0  0
    1.6280    4.4420  -23.5430 C   0  0  0  0  0  0
    3.4590    5.6140  -22.9130 C   0  0  0  0  0  0
    3.8300    3.4790  -23.5400 C   0  0  0  0  0  0
    1.8440    2.1920  -24.4600 C   0  0  0  0  0  0
   -0.2650    3.0510  -24.3370 C   0  0  0  0  0  0
    0.2950    4.2720  -23.7710 C   0  0  0  0  0  0
   -1.7220    3.0790  -24.6720 C   0  0  0  0  0  0
    4.3890    0.9760  -23.2040 C   0  0  0  0  0  0
    5.3320    0.6250  -22.0630 C   0  0  2  0  0  0
    6.9480    2.1210  -22.6540 C   0  0  2  0  0  0
    5.3500    1.6510  -20.9170 C   0  0  0  0  0  0
   -2.0650    3.2160  -26.0980 C   0  0  0  0  0  0
   -1.2750    2.5320  -21.7210 C   0  0  0  0  0  0
   -0.2440    2.1730  -21.2220 C   0  0  0  0  0  0
   -0.5210    5.3410  -23.4370 F   0  0  0  0  0  0
   -3.4320    2.8970  -20.1690 F   0  0  0  0  0  0
    2.1360    5.6020  -23.0420 N   0  0  0  0  0  0
    4.3330    4.6290  -23.1250 N   0  0  0  0  0  0
    0.5320    2.1230  -24.7450 N   0  0  0  0  0  0
    4.7240    2.4090  -23.7080 N   0  0  0  0  0  0
    6.7320    0.6530  -22.5660 N   0  0  1  0  0  0
   -3.6120    3.4070  -27.8360 O   0  0  0  0  0  0
   -5.6847    3.4813  -21.1455 H   0  0  0  0  0  0
   -6.1910    3.7618  -23.5352 H   0  0  0  0  0  0
    5.9139    3.5891  -21.4271 H   0  0  0  0  0  0
    7.1632    2.6041  -20.5451 H   0  0  0  0  0  0
    6.5664    2.2137  -24.7744 H   0  0  0  0  0  0
    6.3595    3.7721  -23.9115 H   0  0  0  0  0  0
   -5.4223    3.7606  -25.9111 H   0  0  0  0  0  0
    2.4620    1.3443  -24.7329 H   0  0  0  0  0  0
    3.3504    0.9487  -22.8427 H   0  0  0  0  0  0
    4.5253    0.2574  -24.0256 H   0  0  0  0  0  0
    5.0918   -0.3741  -21.6704 H   0  0  0  0  0  0
    8.0207    2.3553  -22.7207 H   0  0  0  0  0  0
    4.3775    2.1630  -20.8705 H   0  0  0  0  0  0
    5.6537    1.1505  -19.9857 H   0  0  0  0  0  0
   -1.3064    3.1638  -26.8706 H   0  0  0  0  0  0
    0.6632    1.8579  -20.7829 H   0  0  0  0  0  0
    7.3798    0.1570  -21.8584 H   0  0  0  0  0  0
   -2.7752    3.2933  -28.2712 H   0  0  0  0  0  0
    3.4520    7.4140  -21.1740 N   0  3  0  0  0  0
    5.5920    7.9060  -19.9310 C   0  0  0  0  0  0
    4.4720    9.7260  -21.2420 C   0  0  0  0  0  0
    4.2170    8.4570  -20.3900 C   0  0  0  0  0  0
    4.0520    6.9510  -22.4810 C   0  0  0  0  0  0
    5.9480    9.6210  -21.5030 C   0  0  0  0  0  0
    6.5340    8.6710  -20.8170 C   0  0  0  0  0  0
    2.5150    7.7466  -21.3398 H   0  0  0  0  0  0
    3.2839    6.6136  -20.5847 H   0  0  0  0  0  0
    5.6520    6.8358  -20.1780 H   0  0  0  0  0  0
    5.7650    8.1950  -18.8839 H   0  0  0  0  0  0
    4.2749   10.6184  -20.6298 H   0  0  0  0  0  0
    3.9293    9.6360  -22.1945 H   0  0  0  0  0  0
    3.6298    8.7361  -19.5027 H   0  0  0  0  0  0
    5.1413    6.8491  -22.3671 H   0  0  0  0  0  0
    3.8620    7.7050  -23.2590 H   0  0  0  0  0  0
    6.5316   10.2415  -22.1815 H   0  0  0  0  0  0
    7.6045    8.5021  -20.9239 H   0  0  0  0  0  0
  1  2  2  0  0  0
  1  3  1  0  0  0
  1 34  1  0  0  0
  2  6  1  0  0  0
  2 35  1  0  0  0
  3  5  2  0  0  0
  3 27  1  0  0  0
  4  5  1  0  0  0
  4  6  2  0  0  0
  4 18  1  0  0  0
  5 24  1  0  0  0
  6 10  1  0  0  0
  7 10  2  0  0  0
  7 23  1  0  0  0
  7 33  1  0  0  0
  8 21  1  0  0  0
  8 22  1  0  0  0
  8 36  1  0  0  0
  8 37  1  0  0  0
  9 21  1  0  0  0
  9 31  1  0  0  0
  9 38  1  0  0  0
  9 39  1  0  0  0
 10 40  1  0  0  0
 11 12  1  0  0  0
 11 14  2  0  0  0
 11 15  1  0  0  0
 12 17  1  0  0  0
 12 28  2  0  0  0
 13 28  1  0  0  0
 13 29  2  0  0  0
 13 56  1  0  0  0
 14 29  1  0  0  0
 14 31  1  0  0  0
 15 30  2  0  0  0
 15 41  1  0  0  0
 16 17  2  0  0  0
 16 18  1  0  0  0
 16 30  1  0  0  0
 17 26  1  0  0  0
 18 23  2  0  0  0
 19 20  1  0  0  0
 19 31  1  0  0  0
 19 42  1  0  0  0
 19 43  1  0  0  0
 20 22  1  0  0  0
 20 32  1  0  0  0
 20 44  1  0  0  0
 21 32  1  0  0  0
 21 45  1  0  0  0
 22 46  1  0  0  0
 22 47  1  0  0  0
 23 48  1  0  0  0
 24 25  3  0  0  0
 25 49  1  0  0  0
 32 50  1  0  0  0
 33 51  1  0  0  0
 52 55  1  0  0  0
 52 56  1  0  0  0
 52 59  1  0  0  0
 52 60  1  0  0  0
 53 55  1  0  0  0
 53 58  1  0  0  0
 53 61  1  0  0  0
 53 62  1  0  0  0
 54 55  1  0  0  0
 54 57  1  0  0  0
 54 63  1  0  0  0
 54 64  1  0  0  0
 55 65  1  0  0  0
 56 66  1  0  0  0
 56 67  1  0  0  0
 57 58  2  0  0  0
 57 68  1  0  0  0
 58 69  1  0  0  0
M  CHG  1  52   1
M  END
> <s_m_entry_id>
359

> <s_m_entry_name>
000000201.1

> <s_m_Source_Path>
/Users/zaksoul/Documents/3r_UNI/2nd_SEMESTER/BSC/FRAG_RECON/RESULTS/2

> <s_m_Source_File>
000000201.mol2

> <i_m_Source_File_Index>
1

$$$$
No_0_214
                    3D
 Schrodinger Suite 2022-4.
 69 75  0  0  1  0            999 V2000
   -5.0940    3.7650  -22.0750 C   0  0  0  0  0  0
   -5.3500    3.9640  -23.4110 C   0  0  0  0  0  0
   -3.8640    3.4780  -21.7300 C   0  0  0  0  0  0
   -2.9620    3.5830  -23.8920 C   0  0  0  0  0  0
   -2.8130    3.3320  -22.4720 C   0  0  0  0  0  0
   -4.3000    3.8830  -24.4180 C   0  0  0  0  0  0
   -3.5370    3.8880  -26.6130 C   0  0  0  0  0  0
    6.1500    2.8780  -21.3150 C   0  0  0  0  0  0
    6.0240    3.0280  -23.8650 C   0  0  0  0  0  0
   -4.5430    4.0200  -25.7540 C   0  0  0  0  0  0
    2.2560    3.6800  -23.8940 C   0  0  0  0  0  0
    1.4650    4.8100  -23.5960 C   0  0  0  0  0  0
    3.2930    5.9550  -22.9080 C   0  0  0  0  0  0
    3.6600    3.8320  -23.5760 C   0  0  0  0  0  0
    1.6820    2.5790  -24.5590 C   0  0  0  0  0  0
   -0.4230    3.4510  -24.4550 C   0  0  0  0  0  0
    0.1350    4.6550  -23.8520 C   0  0  0  0  0  0
   -1.8740    3.4970  -24.8140 C   0  0  0  0  0  0
    4.1960    1.3180  -23.2860 C   0  0  0  0  0  0
    5.1150    0.9350  -22.1370 C   0  0  2  0  0  0
    6.7520    2.4320  -22.6650 C   0  0  2  0  0  0
    5.1210    1.9340  -20.9680 C   0  0  0  0  0  0
   -2.1900    3.6680  -26.2430 C   0  0  0  0  0  0
   -1.4830    2.8810  -21.8690 C   0  0  0  0  0  0
   -0.4640    2.5040  -21.3600 C   0  0  0  0  0  0
   -0.6790    5.7220  -23.5080 F   0  0  0  0  0  0
   -3.6650    3.2280  -20.3480 F   0  0  0  0  0  0
    1.9720    5.9550  -23.0610 N   0  0  0  0  0  0
    4.1630    4.9680  -23.1270 N   0  0  0  0  0  0
    0.3740    2.5260  -24.8690 N   0  0  0  0  0  0
    4.5500    2.7590  -23.7510 N   0  0  0  0  0  0
    6.5250    0.9640  -22.6140 N   0  0  1  0  0  0
   -3.7040    3.9090  -28.0030 O   0  0  0  0  0  0
   -5.8958    3.8493  -21.3504 H   0  0  0  0  0  0
   -6.3578    4.1868  -23.7423 H   0  0  0  0  0  0
    5.7071    3.8789  -21.4250 H   0  0  0  0  0  0
    6.9333    2.8659  -20.5428 H   0  0  0  0  0  0
    6.4096    2.5738  -24.7896 H   0  0  0  0  0  0
    6.1976    4.1138  -23.8953 H   0  0  0  0  0  0
   -5.5469    4.2328  -26.1033 H   0  0  0  0  0  0
    2.2988    1.7331  -24.8403 H   0  0  0  0  0  0
    3.1509    1.2898  -22.9440 H   0  0  0  0  0  0
    4.3412    0.6170  -24.1212 H   0  0  0  0  0  0
    4.8618   -0.0709  -21.7708 H   0  0  0  0  0  0
    7.8274    2.6592  -22.7074 H   0  0  0  0  0  0
    4.1513    2.4516  -20.9266 H   0  0  0  0  0  0
    5.4036    1.4111  -20.0424 H   0  0  0  0  0  0
   -1.4185    3.6279  -27.0034 H   0  0  0  0  0  0
    0.4331    2.1730  -20.9119 H   0  0  0  0  0  0
    7.1560    0.4474  -21.9060 H   0  0  0  0  0  0
   -2.8608    3.7991  -28.4266 H   0  0  0  0  0  0
    3.5530    7.5350  -20.9850 N   0  3  0  0  0  0
    5.8770    8.0560  -20.1510 C   0  0  0  0  0  0
    4.4020    9.9150  -20.9580 C   0  0  0  0  0  0
    4.4070    8.5400  -20.2450 C   0  0  0  0  0  0
    3.8870    7.2770  -22.4350 C   0  0  0  0  0  0
    5.7930    9.9650  -21.5260 C   0  0  0  0  0  0
    6.5640    8.9930  -21.1040 C   0  0  0  0  0  0
    2.5849    7.8060  -20.9110 H   0  0  0  0  0  0
    3.5600    6.6609  -20.4830 H   0  0  0  0  0  0
    5.9450    7.0301  -20.5420 H   0  0  0  0  0  0
    6.2521    8.2360  -19.1327 H   0  0  0  0  0  0
    4.2901   10.7114  -20.2075 H   0  0  0  0  0  0
    3.6760    9.8920  -21.7840 H   0  0  0  0  0  0
    4.0082    8.6659  -19.2276 H   0  0  0  0  0  0
    4.9795    7.2530  -22.5609 H   0  0  0  0  0  0
    3.4934    8.0972  -23.0534 H   0  0  0  0  0  0
    6.1831   10.7061  -22.2221 H   0  0  0  0  0  0
    7.5952    8.9270  -21.4477 H   0  0  0  0  0  0
  1  2  2  0  0  0
  1  3  1  0  0  0
  1 34  1  0  0  0
  2  6  1  0  0  0
  2 35  1  0  0  0
  3  5  2  0  0  0
  3 27  1  0  0  0
  4  5  1  0  0  0
  4  6  2  0  0  0
  4 18  1  0  0  0
  5 24  1  0  0  0
  6 10  1  0  0  0
  7 10  2  0  0  0
  7 23  1  0  0  0
  7 33  1  0  0  0
  8 21  1  0  0  0
  8 22  1  0  0  0
  8 36  1  0  0  0
  8 37  1  0  0  0
  9 21  1  0  0  0
  9 31  1  0  0  0
  9 38  1  0  0  0
  9 39  1  0  0  0
 10 40  1  0  0  0
 11 12  1  0  0  0
 11 14  2  0  0  0
 11 15  1  0  0  0
 12 17  1  0  0  0
 12 28  2  0  0  0
 13 28  1  0  0  0
 13 29  2  0  0  0
 13 56  1  0  0  0
 14 29  1  0  0  0
 14 31  1  0  0  0
 15 30  2  0  0  0
 15 41  1  0  0  0
 16 17  2  0  0  0
 16 18  1  0  0  0
 16 30  1  0  0  0
 17 26  1  0  0  0
 18 23  2  0  0  0
 19 20  1  0  0  0
 19 31  1  0  0  0
 19 42  1  0  0  0
 19 43  1  0  0  0
 20 22  1  0  0  0
 20 32  1  0  0  0
 20 44  1  0  0  0
 21 32  1  0  0  0
 21 45  1  0  0  0
 22 46  1  0  0  0
 22 47  1  0  0  0
 23 48  1  0  0  0
 24 25  3  0  0  0
 25 49  1  0  0  0
 32 50  1  0  0  0
 33 51  1  0  0  0
 52 55  1  0  0  0
 52 56  1  0  0  0
 52 59  1  0  0  0
 52 60  1  0  0  0
 53 55  1  0  0  0
 53 58  1  0  0  0
 53 61  1  0  0  0
 53 62  1  0  0  0
 54 55  1  0  0  0
 54 57  1  0  0  0
 54 63  1  0  0  0
 54 64  1  0  0  0
 55 65  1  0  0  0
 56 66  1  0  0  0
 56 67  1  0  0  0
 57 58  2  0  0  0
 57 68  1  0  0  0
 58 69  1  0  0  0
M  CHG  1  52   1
M  END
> <s_m_entry_id>
360

> <s_m_entry_name>
000000202.1

> <s_m_Source_Path>
/Users/zaksoul/Documents/3r_UNI/2nd_SEMESTER/BSC/FRAG_RECON/RESULTS/2

> <s_m_Source_File>
000000202.mol2

> <i_m_Source_File_Index>
1

$$$$
No_0_215
                    3D
 Schrodinger Suite 2022-4.
 69 75  0  0  1  0            999 V2000
   -5.2930    3.5630  -21.9770 C   0  0  0  0  0  0
   -5.5630    3.7550  -23.3110 C   0  0  0  0  0  0
   -4.0540    3.3090  -21.6410 C   0  0  0  0  0  0
   -3.1690    3.4410  -23.8090 C   0  0  0  0  0  0
   -3.0040    3.1930  -22.3890 C   0  0  0  0  0  0
   -4.5180    3.7040  -24.3250 C   0  0  0  0  0  0
   -3.7690    3.7310  -26.5250 C   0  0  0  0  0  0
    5.9760    2.9860  -21.2910 C   0  0  0  0  0  0
    5.8290    3.1350  -23.8400 C   0  0  0  0  0  0
   -4.7730    3.8350  -25.6590 C   0  0  0  0  0  0
    2.0450    3.6820  -23.8440 C   0  0  0  0  0  0
    1.2240    4.7900  -23.5400 C   0  0  0  0  0  0
    3.0240    5.9840  -22.8630 C   0  0  0  0  0  0
    3.4460    3.8720  -23.5350 C   0  0  0  0  0  0
    1.4960    2.5660  -24.5060 C   0  0  0  0  0  0
   -0.6310    3.3790  -24.3880 C   0  0  0  0  0  0
   -0.1020    4.5980  -23.7870 C   0  0  0  0  0  0
   -2.0850    3.3860  -24.7380 C   0  0  0  0  0  0
    4.0530    1.3740  -23.2510 C   0  0  0  0  0  0
    4.9900    1.0160  -22.1080 C   0  0  2  0  0  0
    6.5810    2.5580  -22.6450 C   0  0  2  0  0  0
    4.9750    2.0140  -20.9380 C   0  0  0  0  0  0
   -2.4140    3.5490  -26.1640 C   0  0  0  0  0  0
   -1.6580    2.7780  -21.7960 C   0  0  0  0  0  0
   -0.6250    2.4300  -21.2940 C   0  0  0  0  0  0
   -0.9430    5.6420  -23.4380 F   0  0  0  0  0  0
   -3.8390    3.0630  -20.2600 F   0  0  0  0  0  0
    1.7030    5.9480  -23.0070 N   0  0  0  0  0  0
    3.9200    5.0220  -23.0880 N   0  0  0  0  0  0
    0.1890    2.4770  -24.8080 N   0  0  0  0  0  0
    4.3640    2.8250  -23.7170 N   0  0  0  0  0  0
    6.3950    1.0840  -22.5940 N   0  0  1  0  0  0
   -3.9460    3.7490  -27.9140 O   0  0  0  0  0  0
   -6.0931    3.6242  -21.2482 H   0  0  0  0  0  0
   -6.5784    3.9507  -23.6361 H   0  0  0  0  0  0
    5.5050    3.9744  -21.3969 H   0  0  0  0  0  0
    6.7643    2.9951  -20.5239 H   0  0  0  0  0  0
    6.2207    2.6928  -24.7679 H   0  0  0  0  0  0
    5.9723    4.2252  -23.8703 H   0  0  0  0  0  0
   -5.7844    4.0206  -26.0021 H   0  0  0  0  0  0
    2.1344    1.7379  -24.7921 H   0  0  0  0  0  0
    3.0114    1.3165  -22.9021 H   0  0  0  0  0  0
    4.2124    0.6777  -24.0875 H   0  0  0  0  0  0
    4.7671    0.0033  -21.7409 H   0  0  0  0  0  0
    7.6494    2.8153  -22.6944 H   0  0  0  0  0  0
    3.9916    2.5047  -20.8905 H   0  0  0  0  0  0
    5.2789    1.4981  -20.0152 H   0  0  0  0  0  0
   -1.6471    3.5309  -26.9299 H   0  0  0  0  0  0
    0.2834    2.1229  -20.8518 H   0  0  0  0  0  0
    7.0449    0.5848  -21.8906 H   0  0  0  0  0  0
   -3.1026    3.6629  -28.3426 H   0  0  0  0  0  0
    3.5810    7.4130  -20.8850 N   0  3  0  0  0  0
    5.9760    8.1320  -20.5470 C   0  0  0  0  0  0
    4.1820    9.8660  -20.7860 C   0  0  0  0  0  0
    4.4870    8.4450  -20.2500 C   0  0  0  0  0  0
    3.5850    7.3220  -22.3930 C   0  0  0  0  0  0
    5.3870   10.1290  -21.6450 C   0  0  0  0  0  0
    6.3260    9.2220  -21.5190 C   0  0  0  0  0  0
    2.6367    7.5590  -20.5639 H   0  0  0  0  0  0
    3.7910    6.5062  -20.4981 H   0  0  0  0  0  0
    6.0470    7.1589  -21.0550 H   0  0  0  0  0  0
    6.5639    8.2670  -19.6271 H   0  0  0  0  0  0
    4.1760   10.5755  -19.9454 H   0  0  0  0  0  0
    3.2860    9.8270  -21.4230 H   0  0  0  0  0  0
    4.3300    8.4340  -19.1613 H   0  0  0  0  0  0
    4.6139    7.4390  -22.7640 H   0  0  0  0  0  0
    2.9791    8.1399  -22.8100 H   0  0  0  0  0  0
    5.5280   10.9679  -22.3249 H   0  0  0  0  0  0
    7.2472    9.3100  -22.0931 H   0  0  0  0  0  0
  1  2  2  0  0  0
  1  3  1  0  0  0
  1 34  1  0  0  0
  2  6  1  0  0  0
  2 35  1  0  0  0
  3  5  2  0  0  0
  3 27  1  0  0  0
  4  5  1  0  0  0
  4  6  2  0  0  0
  4 18  1  0  0  0
  5 24  1  0  0  0
  6 10  1  0  0  0
  7 10  2  0  0  0
  7 23  1  0  0  0
  7 33  1  0  0  0
  8 21  1  0  0  0
  8 22  1  0  0  0
  8 36  1  0  0  0
  8 37  1  0  0  0
  9 21  1  0  0  0
  9 31  1  0  0  0
  9 38  1  0  0  0
  9 39  1  0  0  0
 10 40  1  0  0  0
 11 12  1  0  0  0
 11 14  2  0  0  0
 11 15  1  0  0  0
 12 17  1  0  0  0
 12 28  2  0  0  0
 13 28  1  0  0  0
 13 29  2  0  0  0
 13 56  1  0  0  0
 14 29  1  0  0  0
 14 31  1  0  0  0
 15 30  2  0  0  0
 15 41  1  0  0  0
 16 17  2  0  0  0
 16 18  1  0  0  0
 16 30  1  0  0  0
 17 26  1  0  0  0
 18 23  2  0  0  0
 19 20  1  0  0  0
 19 31  1  0  0  0
 19 42  1  0  0  0
 19 43  1  0  0  0
 20 22  1  0  0  0
 20 32  1  0  0  0
 20 44  1  0  0  0
 21 32  1  0  0  0
 21 45  1  0  0  0
 22 46  1  0  0  0
 22 47  1  0  0  0
 23 48  1  0  0  0
 24 25  3  0  0  0
 25 49  1  0  0  0
 32 50  1  0  0  0
 33 51  1  0  0  0
 52 55  1  0  0  0
 52 56  1  0  0  0
 52 59  1  0  0  0
 52 60  1  0  0  0
 53 55  1  0  0  0
 53 58  1  0  0  0
 53 61  1  0  0  0
 53 62  1  0  0  0
 54 55  1  0  0  0
 54 57  1  0  0  0
 54 63  1  0  0  0
 54 64  1  0  0  0
 55 65  1  0  0  0
 56 66  1  0  0  0
 56 67  1  0  0  0
 57 58  2  0  0  0
 57 68  1  0  0  0
 58 69  1  0  0  0
M  CHG  1  52   1
M  END
> <s_m_entry_id>
361

> <s_m_entry_name>
000000203.1

> <s_m_Source_Path>
/Users/zaksoul/Documents/3r_UNI/2nd_SEMESTER/BSC/FRAG_RECON/RESULTS/2

> <s_m_Source_File>
000000203.mol2

> <i_m_Source_File_Index>
1

$$$$
No_0_216
                    3D
 Schrodinger Suite 2022-4.
 69 75  0  0  1  0            999 V2000
   -5.1810    3.6090  -21.8530 C   0  0  0  0  0  0
   -5.4520    3.8050  -23.1860 C   0  0  0  0  0  0
   -3.9420    3.3510  -21.5190 C   0  0  0  0  0  0
   -3.0590    3.4860  -23.6870 C   0  0  0  0  0  0
   -2.8930    3.2340  -22.2690 C   0  0  0  0  0  0
   -4.4090    3.7540  -24.2010 C   0  0  0  0  0  0
   -3.6630    3.7850  -26.4030 C   0  0  0  0  0  0
    6.0870    3.0010  -21.1820 C   0  0  0  0  0  0
    5.9380    3.1560  -23.7310 C   0  0  0  0  0  0
   -4.6650    3.8890  -25.5350 C   0  0  0  0  0  0
    2.1540    3.7130  -23.7290 C   0  0  0  0  0  0
    1.3370    4.8230  -23.4210 C   0  0  0  0  0  0
    3.1410    6.0110  -22.7430 C   0  0  0  0  0  0
    3.5570    3.8990  -23.4210 C   0  0  0  0  0  0
    1.6030    2.6010  -24.3930 C   0  0  0  0  0  0
   -0.5220    3.4190  -24.2700 C   0  0  0  0  0  0
    0.0100    4.6350  -23.6670 C   0  0  0  0  0  0
   -1.9770    3.4300  -24.6180 C   0  0  0  0  0  0
    4.1570    1.3990  -23.1440 C   0  0  0  0  0  0
    5.0950    1.0350  -22.0030 C   0  0  2  0  0  0
    6.6890    2.5740  -22.5390 C   0  0  2  0  0  0
    5.0840    2.0310  -20.8310 C   0  0  0  0  0  0
   -2.3080    3.5970  -26.0440 C   0  0  0  0  0  0
   -1.5470    2.8150  -21.6780 C   0  0  0  0  0  0
   -0.5150    2.4620  -21.1780 C   0  0  0  0  0  0
   -0.8280    5.6800  -23.3140 F   0  0  0  0  0  0
   -3.7260    3.1020  -20.1390 F   0  0  0  0  0  0
    1.8200    5.9780  -22.8860 N   0  0  0  0  0  0
    4.0350    5.0470  -22.9720 N   0  0  0  0  0  0
    0.2950    2.5160  -24.6930 N   0  0  0  0  0  0
    4.4710    2.8500  -23.6070 N   0  0  0  0  0  0
    6.5000    1.1010  -22.4910 N   0  0  1  0  0  0
   -3.8410    3.8060  -27.7920 O   0  0  0  0  0  0
   -5.9796    3.6712  -21.1226 H   0  0  0  0  0  0
   -6.4675    4.0037  -23.5091 H   0  0  0  0  0  0
    5.6179    3.9906  -21.2849 H   0  0  0  0  0  0
    6.8763    3.0060  -20.4159 H   0  0  0  0  0  0
    6.3275    2.7150  -24.6604 H   0  0  0  0  0  0
    6.0833    4.2460  -23.7593 H   0  0  0  0  0  0
   -5.6765    4.0776  -25.8762 H   0  0  0  0  0  0
    2.2385    1.7718  -24.6821 H   0  0  0  0  0  0
    3.1157    1.3435  -22.7939 H   0  0  0  0  0  0
    4.3144    0.7047  -23.9826 H   0  0  0  0  0  0
    4.8700    0.0218  -21.6387 H   0  0  0  0  0  0
    7.7578    2.8293  -22.5885 H   0  0  0  0  0  0
    4.1018    2.5236  -20.7805 H   0  0  0  0  0  0
    5.3877    1.5123  -19.9097 H   0  0  0  0  0  0
   -1.5411    3.5789  -26.8099 H   0  0  0  0  0  0
    0.3934    2.1519  -20.7378 H   0  0  0  0  0  0
    7.1492    0.5983  -21.7894 H   0  0  0  0  0  0
   -2.9984    3.7179  -28.2217 H   0  0  0  0  0  0
    4.4420    7.1910  -20.9610 N   0  3  0  0  0  0
    6.5900    8.3530  -21.5980 C   0  0  0  0  0  0
    4.7310    9.6680  -20.5490 C   0  0  0  0  0  0
    5.4200    8.2810  -20.5820 C   0  0  0  0  0  0
    3.7060    7.3460  -22.2710 C   0  0  0  0  0  0
    5.3110   10.3220  -21.7720 C   0  0  0  0  0  0
    6.2840    9.6350  -22.3200 C   0  0  0  0  0  0
    3.7720    7.0740  -20.2170 H   0  0  0  0  0  0
    4.9170    6.3020  -20.9510 H   0  0  0  0  0  0
    6.5080    7.5128  -22.3032 H   0  0  0  0  0  0
    7.5372    8.4640  -21.0499 H   0  0  0  0  0  0
    5.0641   10.2152  -19.6548 H   0  0  0  0  0  0
    3.6478    9.5370  -20.6890 H   0  0  0  0  0  0
    5.8279    8.0620  -19.5842 H   0  0  0  0  0  0
    4.3935    7.7427  -23.0325 H   0  0  0  0  0  0
    2.8852    8.0678  -22.1470 H   0  0  0  0  0  0
    4.9998   11.2696  -22.2093 H   0  0  0  0  0  0
    6.7820   10.0120  -23.2120 H   0  0  0  0  0  0
  1  2  2  0  0  0
  1  3  1  0  0  0
  1 34  1  0  0  0
  2  6  1  0  0  0
  2 35  1  0  0  0
  3  5  2  0  0  0
  3 27  1  0  0  0
  4  5  1  0  0  0
  4  6  2  0  0  0
  4 18  1  0  0  0
  5 24  1  0  0  0
  6 10  1  0  0  0
  7 10  2  0  0  0
  7 23  1  0  0  0
  7 33  1  0  0  0
  8 21  1  0  0  0
  8 22  1  0  0  0
  8 36  1  0  0  0
  8 37  1  0  0  0
  9 21  1  0  0  0
  9 31  1  0  0  0
  9 38  1  0  0  0
  9 39  1  0  0  0
 10 40  1  0  0  0
 11 12  1  0  0  0
 11 14  2  0  0  0
 11 15  1  0  0  0
 12 17  1  0  0  0
 12 28  2  0  0  0
 13 28  1  0  0  0
 13 29  2  0  0  0
 13 56  1  0  0  0
 14 29  1  0  0  0
 14 31  1  0  0  0
 15 30  2  0  0  0
 15 41  1  0  0  0
 16 17  2  0  0  0
 16 18  1  0  0  0
 16 30  1  0  0  0
 17 26  1  0  0  0
 18 23  2  0  0  0
 19 20  1  0  0  0
 19 31  1  0  0  0
 19 42  1  0  0  0
 19 43  1  0  0  0
 20 22  1  0  0  0
 20 32  1  0  0  0
 20 44  1  0  0  0
 21 32  1  0  0  0
 21 45  1  0  0  0
 22 46  1  0  0  0
 22 47  1  0  0  0
 23 48  1  0  0  0
 24 25  3  0  0  0
 25 49  1  0  0  0
 32 50  1  0  0  0
 33 51  1  0  0  0
 52 55  1  0  0  0
 52 56  1  0  0  0
 52 59  1  0  0  0
 52 60  1  0  0  0
 53 55  1  0  0  0
 53 58  1  0  0  0
 53 61  1  0  0  0
 53 62  1  0  0  0
 54 55  1  0  0  0
 54 57  1  0  0  0
 54 63  1  0  0  0
 54 64  1  0  0  0
 55 65  1  0  0  0
 56 66  1  0  0  0
 56 67  1  0  0  0
 57 58  2  0  0  0
 57 68  1  0  0  0
 58 69  1  0  0  0
M  CHG  1  52   1
M  END
> <s_m_entry_id>
362

> <s_m_entry_name>
000000204.1

> <s_m_Source_Path>
/Users/zaksoul/Documents/3r_UNI/2nd_SEMESTER/BSC/FRAG_RECON/RESULTS/2

> <s_m_Source_File>
000000204.mol2

> <i_m_Source_File_Index>
1

$$$$
No_0_217
                    3D
 Schrodinger Suite 2022-4.
 69 75  0  0  1  0            999 V2000
   -5.3210    3.4440  -21.7700 C   0  0  0  0  0  0
   -5.6120    3.6000  -23.1050 C   0  0  0  0  0  0
   -4.0740    3.2110  -21.4460 C   0  0  0  0  0  0
   -3.2220    3.2990  -23.6290 C   0  0  0  0  0  0
   -3.0340    3.0880  -22.2060 C   0  0  0  0  0  0
   -4.5810    3.5360  -24.1320 C   0  0  0  0  0  0
   -3.8640    3.5160  -26.3430 C   0  0  0  0  0  0
    5.9620    3.0030  -21.2340 C   0  0  0  0  0  0
    5.7780    3.0870  -23.7830 C   0  0  0  0  0  0
   -4.8570    3.6310  -25.4650 C   0  0  0  0  0  0
    1.9880    3.5940  -23.7460 C   0  0  0  0  0  0
    1.1600    4.7000  -23.4570 C   0  0  0  0  0  0
    2.9560    5.9300  -22.8350 C   0  0  0  0  0  0
    3.3910    3.8060  -23.4620 C   0  0  0  0  0  0
    1.4420    2.4570  -24.3730 C   0  0  0  0  0  0
   -0.6920    3.2500  -24.2430 C   0  0  0  0  0  0
   -0.1680    4.4890  -23.6800 C   0  0  0  0  0  0
   -2.1510    3.2320  -24.5720 C   0  0  0  0  0  0
    4.0290    1.3220  -23.1250 C   0  0  0  0  0  0
    4.9860    1.0020  -21.9880 C   0  0  2  0  0  0
    6.5530    2.5470  -22.5860 C   0  0  2  0  0  0
    4.9770    2.0290  -20.8430 C   0  0  0  0  0  0
   -2.5020    3.3570  -25.9970 C   0  0  0  0  0  0
   -1.6750    2.7020  -21.6220 C   0  0  0  0  0  0
   -0.6320    2.3770  -21.1270 C   0  0  0  0  0  0
   -1.0150    5.5320  -23.3440 F   0  0  0  0  0  0
   -3.8370    3.0020  -20.0620 F   0  0  0  0  0  0
    1.6330    5.8760  -22.9600 N   0  0  0  0  0  0
    3.8590    4.9720  -23.0500 N   0  0  0  0  0  0
    0.1320    2.3460  -24.6530 N   0  0  0  0  0  0
    4.3170    2.7650  -23.6320 N   0  0  0  0  0  0
    6.3830    1.0730  -22.4960 N   0  0  1  0  0  0
   -4.0610    3.4980  -27.7290 O   0  0  0  0  0  0
   -6.1111    3.5143  -21.0311 H   0  0  0  0  0  0
   -6.6343    3.7767  -23.4193 H   0  0  0  0  0  0
    5.4784    3.9833  -21.3572 H   0  0  0  0  0  0
    6.7613    3.0383  -20.4791 H   0  0  0  0  0  0
    6.1605    2.6258  -24.7055 H   0  0  0  0  0  0
    5.9083    4.1776  -23.8426 H   0  0  0  0  0  0
   -5.8752    3.7977  -25.7974 H   0  0  0  0  0  0
    2.0850    1.6284  -24.6469 H   0  0  0  0  0  0
    2.9928    1.2625  -22.7608 H   0  0  0  0  0  0
    4.1843    0.6078  -23.9471 H   0  0  0  0  0  0
    4.7792   -0.0038  -21.5935 H   0  0  0  0  0  0
    7.6175    2.8146  -22.6577 H   0  0  0  0  0  0
    3.9892    2.5103  -20.7925 H   0  0  0  0  0  0
    5.2987    1.5389  -19.9122 H   0  0  0  0  0  0
   -1.7459    3.3279  -26.7732 H   0  0  0  0  0  0
    0.2860    2.0900  -20.6910 H   0  0  0  0  0  0
    7.0483    0.5981  -21.7901 H   0  0  0  0  0  0
   -3.2228    3.4099  -28.1674 H   0  0  0  0  0  0
    4.5530    7.1280  -21.3260 N   0  3  0  0  0  0
    6.3780    8.5290  -22.3610 C   0  0  0  0  0  0
    4.7320    9.5930  -20.7990 C   0  0  0  0  0  0
    5.5020    8.2840  -21.1050 C   0  0  0  0  0  0
    3.5090    7.2850  -22.4070 C   0  0  0  0  0  0
    4.9410   10.3700  -22.0690 C   0  0  0  0  0  0
    5.8020    9.8140  -22.8860 C   0  0  0  0  0  0
    4.0973    6.9031  -20.4555 H   0  0  0  0  0  0
    5.0859    6.2902  -21.5000 H   0  0  0  0  0  0
    6.1951    7.7264  -23.0906 H   0  0  0  0  0  0
    7.4186    8.6999  -22.0481 H   0  0  0  0  0  0
    5.2271   10.1181  -19.9688 H   0  0  0  0  0  0
    3.6616    9.3651  -20.6881 H   0  0  0  0  0  0
    6.1575    8.0498  -20.2533 H   0  0  0  0  0  0
    3.9552    7.7902  -23.2763 H   0  0  0  0  0  0
    2.6872    7.9139  -22.0341 H   0  0  0  0  0  0
    4.4562   11.3056  -22.3439 H   0  0  0  0  0  0
    6.0351   10.2881  -23.8383 H   0  0  0  0  0  0
  1  2  2  0  0  0
  1  3  1  0  0  0
  1 34  1  0  0  0
  2  6  1  0  0  0
  2 35  1  0  0  0
  3  5  2  0  0  0
  3 27  1  0  0  0
  4  5  1  0  0  0
  4  6  2  0  0  0
  4 18  1  0  0  0
  5 24  1  0  0  0
  6 10  1  0  0  0
  7 10  2  0  0  0
  7 23  1  0  0  0
  7 33  1  0  0  0
  8 21  1  0  0  0
  8 22  1  0  0  0
  8 36  1  0  0  0
  8 37  1  0  0  0
  9 21  1  0  0  0
  9 31  1  0  0  0
  9 38  1  0  0  0
  9 39  1  0  0  0
 10 40  1  0  0  0
 11 12  1  0  0  0
 11 14  2  0  0  0
 11 15  1  0  0  0
 12 17  1  0  0  0
 12 28  2  0  0  0
 13 28  1  0  0  0
 13 29  2  0  0  0
 13 56  1  0  0  0
 14 29  1  0  0  0
 14 31  1  0  0  0
 15 30  2  0  0  0
 15 41  1  0  0  0
 16 17  2  0  0  0
 16 18  1  0  0  0
 16 30  1  0  0  0
 17 26  1  0  0  0
 18 23  2  0  0  0
 19 20  1  0  0  0
 19 31  1  0  0  0
 19 42  1  0  0  0
 19 43  1  0  0  0
 20 22  1  0  0  0
 20 32  1  0  0  0
 20 44  1  0  0  0
 21 32  1  0  0  0
 21 45  1  0  0  0
 22 46  1  0  0  0
 22 47  1  0  0  0
 23 48  1  0  0  0
 24 25  3  0  0  0
 25 49  1  0  0  0
 32 50  1  0  0  0
 33 51  1  0  0  0
 52 55  1  0  0  0
 52 56  1  0  0  0
 52 59  1  0  0  0
 52 60  1  0  0  0
 53 55  1  0  0  0
 53 58  1  0  0  0
 53 61  1  0  0  0
 53 62  1  0  0  0
 54 55  1  0  0  0
 54 57  1  0  0  0
 54 63  1  0  0  0
 54 64  1  0  0  0
 55 65  1  0  0  0
 56 66  1  0  0  0
 56 67  1  0  0  0
 57 58  2  0  0  0
 57 68  1  0  0  0
 58 69  1  0  0  0
M  CHG  1  52   1
M  END
> <s_m_entry_id>
363

> <s_m_entry_name>
000000205.1

> <s_m_Source_Path>
/Users/zaksoul/Documents/3r_UNI/2nd_SEMESTER/BSC/FRAG_RECON/RESULTS/2

> <s_m_Source_File>
000000205.mol2

> <i_m_Source_File_Index>
1

$$$$
No_0_218
                    3D
 Schrodinger Suite 2022-4.
 69 75  0  0  1  0            999 V2000
   -5.4850    3.4030  -21.7230 C   0  0  0  0  0  0
   -5.7410    3.6140  -23.0570 C   0  0  0  0  0  0
   -4.2510    3.1360  -21.3780 C   0  0  0  0  0  0
   -3.3440    3.2890  -23.5350 C   0  0  0  0  0  0
   -3.1950    3.0210  -22.1170 C   0  0  0  0  0  0
   -4.6860    3.5690  -24.0610 C   0  0  0  0  0  0
   -3.9160    3.6190  -26.2530 C   0  0  0  0  0  0
    5.7710    2.7330  -20.9340 C   0  0  0  0  0  0
    5.6510    2.9150  -23.4820 C   0  0  0  0  0  0
   -4.9270    3.7180  -25.3960 C   0  0  0  0  0  0
    1.8710    3.4910  -23.5170 C   0  0  0  0  0  0
    1.0560    4.6010  -23.2060 C   0  0  0  0  0  0
    2.8580    5.7730  -22.4960 C   0  0  0  0  0  0
    3.2700    3.6670  -23.1910 C   0  0  0  0  0  0
    1.3210    2.3880  -24.1980 C   0  0  0  0  0  0
   -0.8010    3.2150  -24.0900 C   0  0  0  0  0  0
   -0.2700    4.4220  -23.4690 C   0  0  0  0  0  0
   -2.2510    3.2370  -24.4540 C   0  0  0  0  0  0
    3.8560    1.1600  -22.9330 C   0  0  0  0  0  0
    4.7790    0.7800  -21.7860 C   0  0  2  0  0  0
    6.3870    2.3170  -22.2880 C   0  0  2  0  0  0
    4.7600    1.7640  -20.6040 C   0  0  0  0  0  0
   -2.5660    3.4210  -25.8810 C   0  0  0  0  0  0
   -1.8580    2.5890  -21.5160 C   0  0  0  0  0  0
   -0.8330    2.2260  -21.0090 C   0  0  0  0  0  0
   -1.1060    5.4680  -23.1140 F   0  0  0  0  0  0
   -4.0520    2.8710  -19.9980 F   0  0  0  0  0  0
    1.5380    5.7480  -22.6540 N   0  0  0  0  0  0
    3.7490    4.8070  -22.7250 N   0  0  0  0  0  0
    0.0160    2.3130  -24.5140 N   0  0  0  0  0  0
    4.1820    2.6150  -23.3780 N   0  0  0  0  0  0
    6.1900    0.8450  -22.2580 N   0  0  1  0  0  0
   -4.0790    3.6560  -27.6440 O   0  0  0  0  0  0
   -6.2914    3.4612  -21.0009 H   0  0  0  0  0  0
   -6.7517    3.8218  -23.3892 H   0  0  0  0  0  0
    5.3087    3.7263  -21.0319 H   0  0  0  0  0  0
    6.5523    2.7259  -20.1597 H   0  0  0  0  0  0
    6.0487    2.4820  -24.4117 H   0  0  0  0  0  0
    5.8023    4.0044  -23.4971 H   0  0  0  0  0  0
   -5.9336    3.9157  -25.7463 H   0  0  0  0  0  0
    1.9562    1.5592  -24.4890 H   0  0  0  0  0  0
    2.8103    1.1065  -22.5959 H   0  0  0  0  0  0
    4.0184    0.4740  -23.7774 H   0  0  0  0  0  0
    4.5448   -0.2357  -21.4346 H   0  0  0  0  0  0
    7.4576    2.5672  -22.3233 H   0  0  0  0  0  0
    3.7800    2.2616  -20.5596 H   0  0  0  0  0  0
    5.0506    1.2343  -19.6848 H   0  0  0  0  0  0
   -1.7916    3.4070  -26.6394 H   0  0  0  0  0  0
    0.0690    1.9070  -20.5620 H   0  0  0  0  0  0
    6.8285    0.3317  -21.5543 H   0  0  0  0  0  0
   -3.2318    3.5679  -28.0646 H   0  0  0  0  0  0
    4.9160    7.0080  -21.7860 N   0  3  0  0  0  0
    5.6130    9.0500  -23.0930 C   0  0  0  0  0  0
    5.1360    9.2490  -20.6400 C   0  0  0  0  0  0
    5.6920    8.3050  -21.7350 C   0  0  0  0  0  0
    3.4240    7.1010  -22.0030 C   0  0  0  0  0  0
    4.4680   10.3110  -21.4680 C   0  0  0  0  0  0
    4.7180   10.2070  -22.7500 C   0  0  0  0  0  0
    5.0960    6.4809  -20.9459 H   0  0  0  0  0  0
    5.3168    6.4102  -22.4917 H   0  0  0  0  0  0
    5.1078    8.4077  -23.8293 H   0  0  0  0  0  0
    6.6115    9.4308  -23.3539 H   0  0  0  0  0  0
    5.9764    9.6967  -20.0894 H   0  0  0  0  0  0
    4.3737    8.7138  -20.0548 H   0  0  0  0  0  0
    6.7456    8.0809  -21.5119 H   0  0  0  0  0  0
    3.2100    7.8871  -22.7421 H   0  0  0  0  0  0
    2.9330    7.3800  -21.0590 H   0  0  0  0  0  0
    3.8282   11.1118  -21.1001 H   0  0  0  0  0  0
    4.2872   10.9237  -23.4477 H   0  0  0  0  0  0
  1  2  2  0  0  0
  1  3  1  0  0  0
  1 34  1  0  0  0
  2  6  1  0  0  0
  2 35  1  0  0  0
  3  5  2  0  0  0
  3 27  1  0  0  0
  4  5  1  0  0  0
  4  6  2  0  0  0
  4 18  1  0  0  0
  5 24  1  0  0  0
  6 10  1  0  0  0
  7 10  2  0  0  0
  7 23  1  0  0  0
  7 33  1  0  0  0
  8 21  1  0  0  0
  8 22  1  0  0  0
  8 36  1  0  0  0
  8 37  1  0  0  0
  9 21  1  0  0  0
  9 31  1  0  0  0
  9 38  1  0  0  0
  9 39  1  0  0  0
 10 40  1  0  0  0
 11 12  1  0  0  0
 11 14  2  0  0  0
 11 15  1  0  0  0
 12 17  1  0  0  0
 12 28  2  0  0  0
 13 28  1  0  0  0
 13 29  2  0  0  0
 13 56  1  0  0  0
 14 29  1  0  0  0
 14 31  1  0  0  0
 15 30  2  0  0  0
 15 41  1  0  0  0
 16 17  2  0  0  0
 16 18  1  0  0  0
 16 30  1  0  0  0
 17 26  1  0  0  0
 18 23  2  0  0  0
 19 20  1  0  0  0
 19 31  1  0  0  0
 19 42  1  0  0  0
 19 43  1  0  0  0
 20 22  1  0  0  0
 20 32  1  0  0  0
 20 44  1  0  0  0
 21 32  1  0  0  0
 21 45  1  0  0  0
 22 46  1  0  0  0
 22 47  1  0  0  0
 23 48  1  0  0  0
 24 25  3  0  0  0
 25 49  1  0  0  0
 32 50  1  0  0  0
 33 51  1  0  0  0
 52 55  1  0  0  0
 52 56  1  0  0  0
 52 59  1  0  0  0
 52 60  1  0  0  0
 53 55  1  0  0  0
 53 58  1  0  0  0
 53 61  1  0  0  0
 53 62  1  0  0  0
 54 55  1  0  0  0
 54 57  1  0  0  0
 54 63  1  0  0  0
 54 64  1  0  0  0
 55 65  1  0  0  0
 56 66  1  0  0  0
 56 67  1  0  0  0
 57 58  2  0  0  0
 57 68  1  0  0  0
 58 69  1  0  0  0
M  CHG  1  52   1
M  END
> <s_m_entry_id>
364

> <s_m_entry_name>
000000206.1

> <s_m_Source_Path>
/Users/zaksoul/Documents/3r_UNI/2nd_SEMESTER/BSC/FRAG_RECON/RESULTS/2

> <s_m_Source_File>
000000206.mol2

> <i_m_Source_File_Index>
1

$$$$
No_0_219
                    3D
 Schrodinger Suite 2022-4.
 69 75  0  0  1  0            999 V2000
   -5.3770    3.5040  -22.0430 C   0  0  0  0  0  0
   -5.6200    3.7420  -23.3750 C   0  0  0  0  0  0
   -4.1430    3.2460  -21.6890 C   0  0  0  0  0  0
   -3.2130    3.4590  -23.8310 C   0  0  0  0  0  0
   -3.0770    3.1620  -22.4180 C   0  0  0  0  0  0
   -4.5530    3.7330  -24.3670 C   0  0  0  0  0  0
   -3.7580    3.8420  -26.5480 C   0  0  0  0  0  0
    5.8780    2.9680  -21.1360 C   0  0  0  0  0  0
    5.7850    3.2050  -23.6800 C   0  0  0  0  0  0
   -4.7810    3.9090  -25.7010 C   0  0  0  0  0  0
    1.9980    3.7310  -23.7460 C   0  0  0  0  0  0
    1.1640    4.8230  -23.4210 C   0  0  0  0  0  0
    2.9420    6.0020  -22.6630 C   0  0  0  0  0  0
    3.3910    3.9180  -23.4010 C   0  0  0  0  0  0
    1.4710    2.6360  -24.4590 C   0  0  0  0  0  0
   -0.6630    3.4320  -24.3570 C   0  0  0  0  0  0
   -0.1560    4.6320  -23.7030 C   0  0  0  0  0  0
   -2.1100    3.4430  -24.7380 C   0  0  0  0  0  0
    4.0080    1.4150  -23.1920 C   0  0  0  0  0  0
    4.9230    1.0210  -22.0420 C   0  0  2  0  0  0
    6.5150    2.5910  -22.4910 C   0  0  2  0  0  0
    4.8770    1.9780  -20.8390 C   0  0  0  0  0  0
   -2.4100    3.6550  -26.1650 C   0  0  0  0  0  0
   -1.7410    2.7350  -21.8110 C   0  0  0  0  0  0
   -0.7170    2.3740  -21.3000 C   0  0  0  0  0  0
   -1.0100    5.6590  -23.3350 F   0  0  0  0  0  0
   -3.9560    2.9530  -20.3130 F   0  0  0  0  0  0
    1.6240    5.9630  -22.8370 N   0  0  0  0  0  0
    3.8480    5.0540  -22.9030 N   0  0  0  0  0  0
    0.1710    2.5510  -24.7920 N   0  0  0  0  0  0
    4.3190    2.8830  -23.6000 N   0  0  0  0  0  0
    6.3370    1.1150  -22.4960 N   0  0  1  0  0  0
   -3.9060    3.9090  -27.9390 O   0  0  0  0  0  0
   -6.1922    3.5351  -21.3292 H   0  0  0  0  0  0
   -6.6296    3.9429  -23.7146 H   0  0  0  0  0  0
    5.4024    3.9566  -21.2168 H   0  0  0  0  0  0
    6.6497    2.9539  -20.3522 H   0  0  0  0  0  0
    6.1988    2.7983  -24.6145 H   0  0  0  0  0  0
    5.9212    4.2965  -23.6689 H   0  0  0  0  0  0
   -5.7861    4.1018  -26.0584 H   0  0  0  0  0  0
    2.1209    1.8224  -24.7603 H   0  0  0  0  0  0
    2.9595    1.3393  -22.8681 H   0  0  0  0  0  0
    4.1897    0.7498  -24.0490 H   0  0  0  0  0  0
    4.6989   -0.0057  -21.7169 H   0  0  0  0  0  0
    7.5826    2.8554  -22.5082 H   0  0  0  0  0  0
    3.8893    2.4602  -20.7946 H   0  0  0  0  0  0
    5.1636    1.4310  -19.9287 H   0  0  0  0  0  0
   -1.6262    3.6680  -26.9137 H   0  0  0  0  0  0
    0.1838    2.0571  -20.8491 H   0  0  0  0  0  0
    6.9750    0.5946  -21.7971 H   0  0  0  0  0  0
   -3.0533    3.8417  -28.3525 H   0  0  0  0  0  0
    4.9900    7.3790  -22.2460 N   0  3  0  0  0  0
    5.2020    9.6130  -23.3990 C   0  0  0  0  0  0
    5.2590    9.4980  -20.8960 C   0  0  0  0  0  0
    5.6410    8.7430  -22.1930 C   0  0  0  0  0  0
    3.4840    7.3260  -22.1350 C   0  0  0  0  0  0
    4.3350   10.5590  -21.4250 C   0  0  0  0  0  0
    4.3060   10.6200  -22.7340 C   0  0  0  0  0  0
    5.3952    6.7908  -21.5347 H   0  0  0  0  0  0
    5.2763    6.9076  -23.0897 H   0  0  0  0  0  0
    4.6052    8.9992  -24.0897 H   0  0  0  0  0  0
    6.0819   10.1289  -23.8109 H   0  0  0  0  0  0
    6.1574    9.9767  -20.4793 H   0  0  0  0  0  0
    4.6938    8.8228  -20.2368 H   0  0  0  0  0  0
    6.7334    8.6171  -22.2230 H   0  0  0  0  0  0
    3.0450    8.1560  -22.7080 H   0  0  0  0  0  0
    3.1900    7.4480  -21.0821 H   0  0  0  0  0  0
    3.7245   11.2406  -20.8345 H   0  0  0  0  0  0
    3.6721   11.3529  -23.2309 H   0  0  0  0  0  0
  1  2  2  0  0  0
  1  3  1  0  0  0
  1 34  1  0  0  0
  2  6  1  0  0  0
  2 35  1  0  0  0
  3  5  2  0  0  0
  3 27  1  0  0  0
  4  5  1  0  0  0
  4  6  2  0  0  0
  4 18  1  0  0  0
  5 24  1  0  0  0
  6 10  1  0  0  0
  7 10  2  0  0  0
  7 23  1  0  0  0
  7 33  1  0  0  0
  8 21  1  0  0  0
  8 22  1  0  0  0
  8 36  1  0  0  0
  8 37  1  0  0  0
  9 21  1  0  0  0
  9 31  1  0  0  0
  9 38  1  0  0  0
  9 39  1  0  0  0
 10 40  1  0  0  0
 11 12  1  0  0  0
 11 14  2  0  0  0
 11 15  1  0  0  0
 12 17  1  0  0  0
 12 28  2  0  0  0
 13 28  1  0  0  0
 13 29  2  0  0  0
 13 56  1  0  0  0
 14 29  1  0  0  0
 14 31  1  0  0  0
 15 30  2  0  0  0
 15 41  1  0  0  0
 16 17  2  0  0  0
 16 18  1  0  0  0
 16 30  1  0  0  0
 17 26  1  0  0  0
 18 23  2  0  0  0
 19 20  1  0  0  0
 19 31  1  0  0  0
 19 42  1  0  0  0
 19 43  1  0  0  0
 20 22  1  0  0  0
 20 32  1  0  0  0
 20 44  1  0  0  0
 21 32  1  0  0  0
 21 45  1  0  0  0
 22 46  1  0  0  0
 22 47  1  0  0  0
 23 48  1  0  0  0
 24 25  3  0  0  0
 25 49  1  0  0  0
 32 50  1  0  0  0
 33 51  1  0  0  0
 52 55  1  0  0  0
 52 56  1  0  0  0
 52 59  1  0  0  0
 52 60  1  0  0  0
 53 55  1  0  0  0
 53 58  1  0  0  0
 53 61  1  0  0  0
 53 62  1  0  0  0
 54 55  1  0  0  0
 54 57  1  0  0  0
 54 63  1  0  0  0
 54 64  1  0  0  0
 55 65  1  0  0  0
 56 66  1  0  0  0
 56 67  1  0  0  0
 57 58  2  0  0  0
 57 68  1  0  0  0
 58 69  1  0  0  0
M  CHG  1  52   1
M  END
> <s_m_entry_id>
365

> <s_m_entry_name>
000000207.1

> <s_m_Source_Path>
/Users/zaksoul/Documents/3r_UNI/2nd_SEMESTER/BSC/FRAG_RECON/RESULTS/2

> <s_m_Source_File>
000000207.mol2

> <i_m_Source_File_Index>
1

$$$$
No_0_220
                    3D
 Schrodinger Suite 2022-4.
 69 75  0  0  1  0            999 V2000
   -5.4970    3.3910  -22.1960 C   0  0  0  0  0  0
   -5.7090    3.6170  -23.5360 C   0  0  0  0  0  0
   -4.2750    3.1190  -21.8140 C   0  0  0  0  0  0
   -3.2980    3.2950  -23.9390 C   0  0  0  0  0  0
   -3.1960    3.0120  -22.5200 C   0  0  0  0  0  0
   -4.6220    3.5820  -24.5050 C   0  0  0  0  0  0
   -3.7810    3.6550  -26.6710 C   0  0  0  0  0  0
    5.7270    2.7020  -21.0480 C   0  0  0  0  0  0
    5.6900    2.9120  -23.5960 C   0  0  0  0  0  0
   -4.8200    3.7460  -25.8450 C   0  0  0  0  0  0
    1.9140    3.4920  -23.7480 C   0  0  0  0  0  0
    1.0890    4.5990  -23.4520 C   0  0  0  0  0  0
    2.8680    5.7620  -22.6710 C   0  0  0  0  0  0
    3.3020    3.6630  -23.3750 C   0  0  0  0  0  0
    1.3860    2.3970  -24.4590 C   0  0  0  0  0  0
   -0.7380    3.2250  -24.4110 C   0  0  0  0  0  0
   -0.2270    4.4250  -23.7600 C   0  0  0  0  0  0
   -2.1760    3.2520  -24.8220 C   0  0  0  0  0  0
    3.8770    1.1530  -23.1260 C   0  0  0  0  0  0
    4.7620    0.7600  -21.9530 C   0  0  2  0  0  0
    6.3860    2.3010  -22.3850 C   0  0  2  0  0  0
    4.7050    1.7300  -20.7610 C   0  0  0  0  0  0
   -2.4440    3.4520  -26.2570 C   0  0  0  0  0  0
   -1.8790    2.5720  -21.8800 C   0  0  0  0  0  0
   -0.8720    2.2020  -21.3430 C   0  0  0  0  0  0
   -1.0740    5.4670  -23.4210 F   0  0  0  0  0  0
   -4.1210    2.8390  -20.4310 F   0  0  0  0  0  0
    1.5540    5.7400  -22.8720 N   0  0  0  0  0  0
    3.7650    4.7970  -22.8810 N   0  0  0  0  0  0
    0.0920    2.3260  -24.8180 N   0  0  0  0  0  0
    4.2180    2.6120  -23.5430 N   0  0  0  0  0  0
    6.1870    0.8280  -22.3780 N   0  0  1  0  0  0
   -3.8980    3.7070  -28.0650 O   0  0  0  0  0  0
   -6.3269    3.4422  -21.5005 H   0  0  0  0  0  0
   -6.7085    3.8287  -23.8983 H   0  0  0  0  0  0
    5.2677    3.6963  -21.1500 H   0  0  0  0  0  0
    6.4827    2.6859  -20.2489 H   0  0  0  0  0  0
    6.1176    2.4884  -24.5167 H   0  0  0  0  0  0
    5.8423    4.0014  -23.5950 H   0  0  0  0  0  0
   -5.8141    3.9488  -26.2266 H   0  0  0  0  0  0
    2.0292    1.5702  -24.7379 H   0  0  0  0  0  0
    2.8210    1.0965  -22.8231 H   0  0  0  0  0  0
    4.0667    0.4758  -23.9718 H   0  0  0  0  0  0
    4.5157   -0.2594  -21.6210 H   0  0  0  0  0  0
    7.4574    2.5502  -22.3830 H   0  0  0  0  0  0
    3.7241    2.2275  -20.7438 H   0  0  0  0  0  0
    4.9654    1.1901  -19.8386 H   0  0  0  0  0  0
   -1.6451    3.4460  -26.9897 H   0  0  0  0  0  0
    0.0150    1.8770  -20.8710 H   0  0  0  0  0  0
    6.8025    0.3065  -21.6599 H   0  0  0  0  0  0
   -3.0377    3.6228  -28.4590 H   0  0  0  0  0  0
    4.8110    7.3390  -22.6720 N   0  3  0  0  0  0
    4.4630    9.6870  -23.5280 C   0  0  0  0  0  0
    5.2740    9.3280  -21.1830 C   0  0  0  0  0  0
    5.3200    8.7620  -22.6250 C   0  0  0  0  0  0
    3.4180    7.0830  -22.1450 C   0  0  0  0  0  0
    4.1410   10.3100  -21.2800 C   0  0  0  0  0  0
    3.7170   10.4990  -22.5060 C   0  0  0  0  0  0
    5.4622    6.7378  -22.1918 H   0  0  0  0  0  0
    4.8760    6.9961  -23.6177 H   0  0  0  0  0  0
    3.7469    9.0750  -24.0960 H   0  0  0  0  0  0
    5.1283   10.3503  -24.1002 H   0  0  0  0  0  0
    6.2080    9.8720  -20.9790 H   0  0  0  0  0  0
    4.9951    8.5222  -20.4881 H   0  0  0  0  0  0
    6.3606    8.7800  -22.9812 H   0  0  0  0  0  0
    2.7539    7.9041  -22.4530 H   0  0  0  0  0  0
    3.4410    7.0590  -21.0455 H   0  0  0  0  0  0
    3.6739   10.8441  -20.4539 H   0  0  0  0  0  0
    2.8988   11.1912  -22.6991 H   0  0  0  0  0  0
  1  2  2  0  0  0
  1  3  1  0  0  0
  1 34  1  0  0  0
  2  6  1  0  0  0
  2 35  1  0  0  0
  3  5  2  0  0  0
  3 27  1  0  0  0
  4  5  1  0  0  0
  4  6  2  0  0  0
  4 18  1  0  0  0
  5 24  1  0  0  0
  6 10  1  0  0  0
  7 10  2  0  0  0
  7 23  1  0  0  0
  7 33  1  0  0  0
  8 21  1  0  0  0
  8 22  1  0  0  0
  8 36  1  0  0  0
  8 37  1  0  0  0
  9 21  1  0  0  0
  9 31  1  0  0  0
  9 38  1  0  0  0
  9 39  1  0  0  0
 10 40  1  0  0  0
 11 12  1  0  0  0
 11 14  2  0  0  0
 11 15  1  0  0  0
 12 17  1  0  0  0
 12 28  2  0  0  0
 13 28  1  0  0  0
 13 29  2  0  0  0
 13 56  1  0  0  0
 14 29  1  0  0  0
 14 31  1  0  0  0
 15 30  2  0  0  0
 15 41  1  0  0  0
 16 17  2  0  0  0
 16 18  1  0  0  0
 16 30  1  0  0  0
 17 26  1  0  0  0
 18 23  2  0  0  0
 19 20  1  0  0  0
 19 31  1  0  0  0
 19 42  1  0  0  0
 19 43  1  0  0  0
 20 22  1  0  0  0
 20 32  1  0  0  0
 20 44  1  0  0  0
 21 32  1  0  0  0
 21 45  1  0  0  0
 22 46  1  0  0  0
 22 47  1  0  0  0
 23 48  1  0  0  0
 24 25  3  0  0  0
 25 49  1  0  0  0
 32 50  1  0  0  0
 33 51  1  0  0  0
 52 55  1  0  0  0
 52 56  1  0  0  0
 52 59  1  0  0  0
 52 60  1  0  0  0
 53 55  1  0  0  0
 53 58  1  0  0  0
 53 61  1  0  0  0
 53 62  1  0  0  0
 54 55  1  0  0  0
 54 57  1  0  0  0
 54 63  1  0  0  0
 54 64  1  0  0  0
 55 65  1  0  0  0
 56 66  1  0  0  0
 56 67  1  0  0  0
 57 58  2  0  0  0
 57 68  1  0  0  0
 58 69  1  0  0  0
M  CHG  1  52   1
M  END
> <s_m_entry_id>
366

> <s_m_entry_name>
000000208.1

> <s_m_Source_Path>
/Users/zaksoul/Documents/3r_UNI/2nd_SEMESTER/BSC/FRAG_RECON/RESULTS/2

> <s_m_Source_File>
000000208.mol2

> <i_m_Source_File_Index>
1

$$$$
No_0_221
                    3D
 Schrodinger Suite 2022-4.
 66 72  0  0  1  0            999 V2000
   -5.3870    3.8560  -22.4310 C   0  0  0  0  0  0
   -5.6030    4.0310  -23.7770 C   0  0  0  0  0  0
   -4.1680    3.5750  -22.0450 C   0  0  0  0  0  0
   -3.2020    3.6440  -24.1810 C   0  0  0  0  0  0
   -3.0950    3.4170  -22.7530 C   0  0  0  0  0  0
   -4.5240    3.9350  -24.7510 C   0  0  0  0  0  0
   -3.6970    3.9020  -26.9230 C   0  0  0  0  0  0
    5.8300    2.9880  -21.3260 C   0  0  0  0  0  0
    5.7790    3.0950  -23.8800 C   0  0  0  0  0  0
   -4.7280    4.0480  -26.0950 C   0  0  0  0  0  0
    2.0140    3.7440  -24.0320 C   0  0  0  0  0  0
    1.2140    4.8790  -23.7760 C   0  0  0  0  0  0
    3.0210    6.0360  -23.0540 C   0  0  0  0  0  0
    3.4080    3.9020  -23.6750 C   0  0  0  0  0  0
    1.4590    2.6320  -24.6940 C   0  0  0  0  0  0
   -0.6480    3.5040  -24.6670 C   0  0  0  0  0  0
   -0.1080    4.7180  -24.0680 C   0  0  0  0  0  0
   -2.0880    3.5430  -25.0690 C   0  0  0  0  0  0
    3.9350    1.3930  -23.3270 C   0  0  0  0  0  0
    4.8200    1.0300  -22.1440 C   0  0  2  0  0  0
    6.4710    2.5190  -22.6500 C   0  0  2  0  0  0
    4.7910    2.0500  -20.9930 C   0  0  0  0  0  0
   -2.3610    3.6890  -26.5090 C   0  0  0  0  0  0
   -1.7830    2.9770  -22.1040 C   0  0  0  0  0  0
   -0.7800    2.6100  -21.5590 C   0  0  0  0  0  0
   -0.9320    5.7910  -23.7670 F   0  0  0  0  0  0
   -4.0090    3.3480  -20.6530 F   0  0  0  0  0  0
    1.7050    6.0320  -23.2460 N   0  0  0  0  0  0
    3.8970    5.0460  -23.2300 N   0  0  0  0  0  0
    0.1610    2.5730  -25.0420 N   0  0  0  0  0  0
    4.3020    2.8270  -23.8060 N   0  0  0  0  0  0
    6.2430    1.0520  -22.5810 N   0  0  1  0  0  0
   -3.8240    3.9000  -28.3170 O   0  0  0  0  0  0
   -6.2102    3.9524  -21.7323 H   0  0  0  0  0  0
   -6.6005    4.2488  -24.1413 H   0  0  0  0  0  0
    5.3902    3.9866  -21.4652 H   0  0  0  0  0  0
    6.5900    2.9890  -20.5307 H   0  0  0  0  0  0
    6.1917    2.6257  -24.7852 H   0  0  0  0  0  0
    5.9526    4.1803  -23.9244 H   0  0  0  0  0  0
   -5.7210    4.2548  -26.4775 H   0  0  0  0  0  0
    2.0841    1.7821  -24.9429 H   0  0  0  0  0  0
    2.8803    1.3708  -23.0154 H   0  0  0  0  0  0
    4.1046    0.6782  -24.1457 H   0  0  0  0  0  0
    4.5564    0.0300  -21.7692 H   0  0  0  0  0  0
    7.5470    2.7469  -22.6651 H   0  0  0  0  0  0
    3.8204    2.5676  -20.9900 H   0  0  0  0  0  0
    5.0464    1.5423  -20.0512 H   0  0  0  0  0  0
   -1.5678    3.6368  -27.2460 H   0  0  0  0  0  0
    0.1033    2.2862  -21.0794 H   0  0  0  0  0  0
    6.8536    0.5483  -21.8463 H   0  0  0  0  0  0
   -2.9683    3.7833  -28.7127 H   0  0  0  0  0  0
    3.5370    7.4650  -21.0840 N   0  3  0  0  0  0
    4.7110    9.7190  -21.2910 N   0  0  0  0  0  0
    5.4640    8.2310  -19.7880 N   0  0  0  0  0  0
    4.2090    8.6470  -20.4220 C   0  0  0  0  0  0
    3.6010    7.3670  -22.5870 C   0  0  0  0  0  0
    6.5000    9.0100  -20.2170 C   0  0  0  0  0  0
    6.0580    9.8740  -21.1270 C   0  0  0  0  0  0
    2.5732    7.4270  -20.7911 H   0  0  0  0  0  0
    3.8961    6.6138  -20.6809 H   0  0  0  0  0  0
    5.6350    7.4748  -19.1099 H   0  0  0  0  0  0
    3.5370    9.0740  -19.6630 H   0  0  0  0  0  0
    4.6481    7.4450  -22.9150 H   0  0  0  0  0  0
    3.0279    8.1932  -23.0331 H   0  0  0  0  0  0
    7.4984    8.8629  -19.8078 H   0  0  0  0  0  0
    6.7534   10.5594  -21.6093 H   0  0  0  0  0  0
  1  2  2  0  0  0
  1  3  1  0  0  0
  1 34  1  0  0  0
  2  6  1  0  0  0
  2 35  1  0  0  0
  3  5  2  0  0  0
  3 27  1  0  0  0
  4  5  1  0  0  0
  4  6  2  0  0  0
  4 18  1  0  0  0
  5 24  1  0  0  0
  6 10  1  0  0  0
  7 10  2  0  0  0
  7 23  1  0  0  0
  7 33  1  0  0  0
  8 21  1  0  0  0
  8 22  1  0  0  0
  8 36  1  0  0  0
  8 37  1  0  0  0
  9 21  1  0  0  0
  9 31  1  0  0  0
  9 38  1  0  0  0
  9 39  1  0  0  0
 10 40  1  0  0  0
 11 12  1  0  0  0
 11 14  2  0  0  0
 11 15  1  0  0  0
 12 17  1  0  0  0
 12 28  2  0  0  0
 13 28  1  0  0  0
 13 29  2  0  0  0
 13 56  1  0  0  0
 14 29  1  0  0  0
 14 31  1  0  0  0
 15 30  2  0  0  0
 15 41  1  0  0  0
 16 17  2  0  0  0
 16 18  1  0  0  0
 16 30  1  0  0  0
 17 26  1  0  0  0
 18 23  2  0  0  0
 19 20  1  0  0  0
 19 31  1  0  0  0
 19 42  1  0  0  0
 19 43  1  0  0  0
 20 22  1  0  0  0
 20 32  1  0  0  0
 20 44  1  0  0  0
 21 32  1  0  0  0
 21 45  1  0  0  0
 22 46  1  0  0  0
 22 47  1  0  0  0
 23 48  1  0  0  0
 24 25  3  0  0  0
 25 49  1  0  0  0
 32 50  1  0  0  0
 33 51  1  0  0  0
 52 55  1  0  0  0
 52 56  1  0  0  0
 52 59  1  0  0  0
 52 60  1  0  0  0
 53 55  1  0  0  0
 53 58  1  0  0  0
 54 55  1  0  0  0
 54 57  1  0  0  0
 54 61  1  0  0  0
 55 62  1  0  0  0
 56 63  1  0  0  0
 56 64  1  0  0  0
 57 58  2  0  0  0
 57 65  1  0  0  0
 58 66  1  0  0  0
M  CHG  1  52   1
M  END
> <s_m_entry_id>
367

> <s_m_entry_name>
000000209.1

> <s_m_Source_Path>
/Users/zaksoul/Documents/3r_UNI/2nd_SEMESTER/BSC/FRAG_RECON/RESULTS/2

> <s_m_Source_File>
000000209.mol2

> <i_m_Source_File_Index>
1

$$$$
No_0_222
                    3D
 Schrodinger Suite 2022-4.
 66 72  0  0  1  0            999 V2000
   -5.2830    3.5880  -21.9670 C   0  0  0  0  0  0
   -5.5590    3.7320  -23.3060 C   0  0  0  0  0  0
   -4.0420    3.3490  -21.6260 C   0  0  0  0  0  0
   -3.1660    3.4040  -23.8010 C   0  0  0  0  0  0
   -2.9950    3.2070  -22.3740 C   0  0  0  0  0  0
   -4.5180    3.6470  -24.3210 C   0  0  0  0  0  0
   -3.7780    3.5960  -26.5240 C   0  0  0  0  0  0
    5.9890    3.0540  -21.3050 C   0  0  0  0  0  0
    5.8320    3.1110  -23.8570 C   0  0  0  0  0  0
   -4.7790    3.7290  -25.6580 C   0  0  0  0  0  0
    2.0460    3.6520  -23.8660 C   0  0  0  0  0  0
    1.2250    4.7680  -23.5990 C   0  0  0  0  0  0
    3.0260    5.9890  -22.9720 C   0  0  0  0  0  0
    3.4480    3.8550  -23.5690 C   0  0  0  0  0  0
    1.4970    2.5120  -24.4860 C   0  0  0  0  0  0
   -0.6310    3.3250  -24.3880 C   0  0  0  0  0  0
   -0.1020    4.5660  -23.8330 C   0  0  0  0  0  0
   -2.0860    3.3170  -24.7320 C   0  0  0  0  0  0
    4.0610    1.3690  -23.1980 C   0  0  0  0  0  0
    5.0030    1.0530  -22.0470 C   0  0  2  0  0  0
    6.5890    2.5780  -22.6460 C   0  0  2  0  0  0
    4.9910    2.0930  -20.9140 C   0  0  0  0  0  0
   -2.4220    3.4280  -26.1620 C   0  0  0  0  0  0
   -1.6460    2.8160  -21.7720 C   0  0  0  0  0  0
   -0.6110    2.4870  -21.2620 C   0  0  0  0  0  0
   -0.9430    5.6200  -23.5180 F   0  0  0  0  0  0
   -3.8220    3.1530  -20.2380 F   0  0  0  0  0  0
    1.7040    5.9450  -23.1090 N   0  0  0  0  0  0
    3.9230    5.0210  -23.1660 N   0  0  0  0  0  0
    0.1890    2.4100  -24.7790 N   0  0  0  0  0  0
    4.3670    2.8030  -23.7180 N   0  0  0  0  0  0
    6.4060    1.1070  -22.5410 N   0  0  1  0  0  0
   -3.9610    3.5640  -27.9120 O   0  0  0  0  0  0
   -6.0800    3.6743  -21.2373 H   0  0  0  0  0  0
   -6.5764    3.9136  -23.6331 H   0  0  0  0  0  0
    5.5156    4.0371  -21.4443 H   0  0  0  0  0  0
    6.7804    3.0913  -20.5419 H   0  0  0  0  0  0
    6.2204    2.6359  -24.7699 H   0  0  0  0  0  0
    5.9734    4.1996  -23.9277 H   0  0  0  0  0  0
   -5.7921    3.9007  -26.0034 H   0  0  0  0  0  0
    2.1360    1.6754  -24.7448 H   0  0  0  0  0  0
    3.0206    1.3226  -22.8438 H   0  0  0  0  0  0
    4.2184    0.6443  -24.0105 H   0  0  0  0  0  0
    4.7830    0.0537  -21.6432 H   0  0  0  0  0  0
    7.6566    2.8353  -22.7086 H   0  0  0  0  0  0
    4.0070    2.5835  -20.8797 H   0  0  0  0  0  0
    5.2988    1.6106  -19.9745 H   0  0  0  0  0  0
   -1.6576    3.3849  -26.9294 H   0  0  0  0  0  0
    0.3000    2.1980  -20.8130 H   0  0  0  0  0  0
    7.0594    0.6332  -21.8234 H   0  0  0  0  0  0
   -3.1191    3.4631  -28.3404 H   0  0  0  0  0  0
    3.9240    7.3370  -21.0830 N   0  3  0  0  0  0
    4.7860    9.7190  -21.3820 N   0  0  0  0  0  0
    6.0510    8.2310  -20.2750 N   0  0  0  0  0  0
    4.6380    8.5420  -20.5150 C   0  0  0  0  0  0
    3.5860    7.3440  -22.5520 C   0  0  0  0  0  0
    6.8550    9.1490  -20.8860 C   0  0  0  0  0  0
    6.1060   10.0140  -21.5640 C   0  0  0  0  0  0
    3.0837    7.1711  -20.5515 H   0  0  0  0  0  0
    4.4553    6.5076  -20.8689 H   0  0  0  0  0  0
    6.4688    7.4575  -19.7383 H   0  0  0  0  0  0
    4.1621    8.8400  -19.5691 H   0  0  0  0  0  0
    4.4930    7.5620  -23.1350 H   0  0  0  0  0  0
    2.8401    8.1269  -22.7540 H   0  0  0  0  0  0
    7.9360    9.0891  -20.7691 H   0  0  0  0  0  0
    6.5790   10.8029  -22.1469 H   0  0  0  0  0  0
  1  2  2  0  0  0
  1  3  1  0  0  0
  1 34  1  0  0  0
  2  6  1  0  0  0
  2 35  1  0  0  0
  3  5  2  0  0  0
  3 27  1  0  0  0
  4  5  1  0  0  0
  4  6  2  0  0  0
  4 18  1  0  0  0
  5 24  1  0  0  0
  6 10  1  0  0  0
  7 10  2  0  0  0
  7 23  1  0  0  0
  7 33  1  0  0  0
  8 21  1  0  0  0
  8 22  1  0  0  0
  8 36  1  0  0  0
  8 37  1  0  0  0
  9 21  1  0  0  0
  9 31  1  0  0  0
  9 38  1  0  0  0
  9 39  1  0  0  0
 10 40  1  0  0  0
 11 12  1  0  0  0
 11 14  2  0  0  0
 11 15  1  0  0  0
 12 17  1  0  0  0
 12 28  2  0  0  0
 13 28  1  0  0  0
 13 29  2  0  0  0
 13 56  1  0  0  0
 14 29  1  0  0  0
 14 31  1  0  0  0
 15 30  2  0  0  0
 15 41  1  0  0  0
 16 17  2  0  0  0
 16 18  1  0  0  0
 16 30  1  0  0  0
 17 26  1  0  0  0
 18 23  2  0  0  0
 19 20  1  0  0  0
 19 31  1  0  0  0
 19 42  1  0  0  0
 19 43  1  0  0  0
 20 22  1  0  0  0
 20 32  1  0  0  0
 20 44  1  0  0  0
 21 32  1  0  0  0
 21 45  1  0  0  0
 22 46  1  0  0  0
 22 47  1  0  0  0
 23 48  1  0  0  0
 24 25  3  0  0  0
 25 49  1  0  0  0
 32 50  1  0  0  0
 33 51  1  0  0  0
 52 55  1  0  0  0
 52 56  1  0  0  0
 52 59  1  0  0  0
 52 60  1  0  0  0
 53 55  1  0  0  0
 53 58  1  0  0  0
 54 55  1  0  0  0
 54 57  1  0  0  0
 54 61  1  0  0  0
 55 62  1  0  0  0
 56 63  1  0  0  0
 56 64  1  0  0  0
 57 58  2  0  0  0
 57 65  1  0  0  0
 58 66  1  0  0  0
M  CHG  1  52   1
M  END
> <s_m_entry_id>
368

> <s_m_entry_name>
000000210.1

> <s_m_Source_Path>
/Users/zaksoul/Documents/3r_UNI/2nd_SEMESTER/BSC/FRAG_RECON/RESULTS/2

> <s_m_Source_File>
000000210.mol2

> <i_m_Source_File_Index>
1

$$$$
No_0_223
                    3D
 Schrodinger Suite 2022-4.
 66 72  0  0  1  0            999 V2000
   -5.1810    3.6090  -21.8530 C   0  0  0  0  0  0
   -5.4520    3.8050  -23.1860 C   0  0  0  0  0  0
   -3.9420    3.3510  -21.5190 C   0  0  0  0  0  0
   -3.0590    3.4860  -23.6870 C   0  0  0  0  0  0
   -2.8930    3.2340  -22.2690 C   0  0  0  0  0  0
   -4.4090    3.7540  -24.2010 C   0  0  0  0  0  0
   -3.6630    3.7850  -26.4030 C   0  0  0  0  0  0
    6.0870    3.0010  -21.1820 C   0  0  0  0  0  0
    5.9380    3.1560  -23.7310 C   0  0  0  0  0  0
   -4.6650    3.8890  -25.5350 C   0  0  0  0  0  0
    2.1540    3.7130  -23.7290 C   0  0  0  0  0  0
    1.3370    4.8230  -23.4210 C   0  0  0  0  0  0
    3.1410    6.0110  -22.7430 C   0  0  0  0  0  0
    3.5570    3.8990  -23.4210 C   0  0  0  0  0  0
    1.6030    2.6010  -24.3930 C   0  0  0  0  0  0
   -0.5220    3.4190  -24.2700 C   0  0  0  0  0  0
    0.0100    4.6350  -23.6670 C   0  0  0  0  0  0
   -1.9770    3.4300  -24.6180 C   0  0  0  0  0  0
    4.1570    1.3990  -23.1440 C   0  0  0  0  0  0
    5.0950    1.0350  -22.0030 C   0  0  2  0  0  0
    6.6890    2.5740  -22.5390 C   0  0  2  0  0  0
    5.0840    2.0310  -20.8310 C   0  0  0  0  0  0
   -2.3080    3.5970  -26.0440 C   0  0  0  0  0  0
   -1.5470    2.8150  -21.6780 C   0  0  0  0  0  0
   -0.5150    2.4620  -21.1780 C   0  0  0  0  0  0
   -0.8280    5.6800  -23.3140 F   0  0  0  0  0  0
   -3.7260    3.1020  -20.1390 F   0  0  0  0  0  0
    1.8200    5.9780  -22.8860 N   0  0  0  0  0  0
    4.0350    5.0470  -22.9720 N   0  0  0  0  0  0
    0.2950    2.5160  -24.6930 N   0  0  0  0  0  0
    4.4710    2.8500  -23.6070 N   0  0  0  0  0  0
    6.5000    1.1010  -22.4910 N   0  0  1  0  0  0
   -3.8410    3.8060  -27.7920 O   0  0  0  0  0  0
   -5.9796    3.6712  -21.1226 H   0  0  0  0  0  0
   -6.4675    4.0037  -23.5091 H   0  0  0  0  0  0
    5.6179    3.9906  -21.2849 H   0  0  0  0  0  0
    6.8763    3.0060  -20.4159 H   0  0  0  0  0  0
    6.3275    2.7150  -24.6604 H   0  0  0  0  0  0
    6.0833    4.2460  -23.7593 H   0  0  0  0  0  0
   -5.6765    4.0776  -25.8762 H   0  0  0  0  0  0
    2.2385    1.7718  -24.6821 H   0  0  0  0  0  0
    3.1157    1.3435  -22.7939 H   0  0  0  0  0  0
    4.3144    0.7047  -23.9826 H   0  0  0  0  0  0
    4.8700    0.0218  -21.6387 H   0  0  0  0  0  0
    7.7578    2.8293  -22.5885 H   0  0  0  0  0  0
    4.1018    2.5236  -20.7805 H   0  0  0  0  0  0
    5.3877    1.5123  -19.9097 H   0  0  0  0  0  0
   -1.5411    3.5789  -26.8099 H   0  0  0  0  0  0
    0.3934    2.1519  -20.7378 H   0  0  0  0  0  0
    7.1492    0.5983  -21.7894 H   0  0  0  0  0  0
   -2.9984    3.7179  -28.2217 H   0  0  0  0  0  0
    4.4980    7.1590  -21.0020 N   0  3  0  0  0  0
    5.0420    9.6480  -21.1020 N   0  0  0  0  0  0
    6.7020    8.1830  -20.7290 N   0  0  0  0  0  0
    5.2670    8.3440  -20.4650 C   0  0  0  0  0  0
    3.7060    7.3460  -22.2710 C   0  0  0  0  0  0
    7.1960    9.2790  -21.3750 C   0  0  0  0  0  0
    6.2080   10.1340  -21.6200 C   0  0  0  0  0  0
    3.8879    6.8070  -20.2809 H   0  0  0  0  0  0
    5.1287    6.3813  -21.1180 H   0  0  0  0  0  0
    7.3255    7.3964  -20.4978 H   0  0  0  0  0  0
    5.0999    8.4311  -19.3813 H   0  0  0  0  0  0
    4.3585    7.7647  -23.0514 H   0  0  0  0  0  0
    2.8801    8.0489  -22.0870 H   0  0  0  0  0  0
    8.2584    9.3410  -21.6059 H   0  0  0  0  0  0
    6.4080   11.0571  -22.1621 H   0  0  0  0  0  0
  1  2  2  0  0  0
  1  3  1  0  0  0
  1 34  1  0  0  0
  2  6  1  0  0  0
  2 35  1  0  0  0
  3  5  2  0  0  0
  3 27  1  0  0  0
  4  5  1  0  0  0
  4  6  2  0  0  0
  4 18  1  0  0  0
  5 24  1  0  0  0
  6 10  1  0  0  0
  7 10  2  0  0  0
  7 23  1  0  0  0
  7 33  1  0  0  0
  8 21  1  0  0  0
  8 22  1  0  0  0
  8 36  1  0  0  0
  8 37  1  0  0  0
  9 21  1  0  0  0
  9 31  1  0  0  0
  9 38  1  0  0  0
  9 39  1  0  0  0
 10 40  1  0  0  0
 11 12  1  0  0  0
 11 14  2  0  0  0
 11 15  1  0  0  0
 12 17  1  0  0  0
 12 28  2  0  0  0
 13 28  1  0  0  0
 13 29  2  0  0  0
 13 56  1  0  0  0
 14 29  1  0  0  0
 14 31  1  0  0  0
 15 30  2  0  0  0
 15 41  1  0  0  0
 16 17  2  0  0  0
 16 18  1  0  0  0
 16 30  1  0  0  0
 17 26  1  0  0  0
 18 23  2  0  0  0
 19 20  1  0  0  0
 19 31  1  0  0  0
 19 42  1  0  0  0
 19 43  1  0  0  0
 20 22  1  0  0  0
 20 32  1  0  0  0
 20 44  1  0  0  0
 21 32  1  0  0  0
 21 45  1  0  0  0
 22 46  1  0  0  0
 22 47  1  0  0  0
 23 48  1  0  0  0
 24 25  3  0  0  0
 25 49  1  0  0  0
 32 50  1  0  0  0
 33 51  1  0  0  0
 52 55  1  0  0  0
 52 56  1  0  0  0
 52 59  1  0  0  0
 52 60  1  0  0  0
 53 55  1  0  0  0
 53 58  1  0  0  0
 54 55  1  0  0  0
 54 57  1  0  0  0
 54 61  1  0  0  0
 55 62  1  0  0  0
 56 63  1  0  0  0
 56 64  1  0  0  0
 57 58  2  0  0  0
 57 65  1  0  0  0
 58 66  1  0  0  0
M  CHG  1  52   1
M  END
> <s_m_entry_id>
369

> <s_m_entry_name>
000000211.1

> <s_m_Source_Path>
/Users/zaksoul/Documents/3r_UNI/2nd_SEMESTER/BSC/FRAG_RECON/RESULTS/2

> <s_m_Source_File>
000000211.mol2

> <i_m_Source_File_Index>
1

$$$$
No_0_224
                    3D
 Schrodinger Suite 2022-4.
 66 72  0  0  1  0            999 V2000
   -5.0450    3.4580  -21.8750 C   0  0  0  0  0  0
   -5.3170    3.6540  -23.2090 C   0  0  0  0  0  0
   -3.8060    3.2010  -21.5400 C   0  0  0  0  0  0
   -2.9240    3.3350  -23.7090 C   0  0  0  0  0  0
   -2.7580    3.0830  -22.2900 C   0  0  0  0  0  0
   -4.2730    3.6030  -24.2230 C   0  0  0  0  0  0
   -3.5270    3.6330  -26.4250 C   0  0  0  0  0  0
    6.2220    2.8520  -21.2030 C   0  0  0  0  0  0
    6.0740    3.0060  -23.7510 C   0  0  0  0  0  0
   -4.5290    3.7370  -25.5570 C   0  0  0  0  0  0
    2.2900    3.5630  -23.7500 C   0  0  0  0  0  0
    1.4730    4.6720  -23.4420 C   0  0  0  0  0  0
    3.2770    5.8600  -22.7650 C   0  0  0  0  0  0
    3.6920    3.7490  -23.4420 C   0  0  0  0  0  0
    1.7390    2.4500  -24.4140 C   0  0  0  0  0  0
   -0.3860    3.2680  -24.2910 C   0  0  0  0  0  0
    0.1460    4.4840  -23.6890 C   0  0  0  0  0  0
   -1.8410    3.2790  -24.6390 C   0  0  0  0  0  0
    4.2930    1.2480  -23.1640 C   0  0  0  0  0  0
    5.2310    0.8850  -22.0230 C   0  0  2  0  0  0
    6.8250    2.4240  -22.5590 C   0  0  2  0  0  0
    5.2200    1.8810  -20.8510 C   0  0  0  0  0  0
   -2.1720    3.4460  -26.0650 C   0  0  0  0  0  0
   -1.4120    2.6640  -21.6990 C   0  0  0  0  0  0
   -0.3800    2.3120  -21.1990 C   0  0  0  0  0  0
   -0.6920    5.5300  -23.3360 F   0  0  0  0  0  0
   -3.5910    2.9510  -20.1600 F   0  0  0  0  0  0
    1.9550    5.8270  -22.9080 N   0  0  0  0  0  0
    4.1700    4.8960  -22.9930 N   0  0  0  0  0  0
    0.4310    2.3650  -24.7140 N   0  0  0  0  0  0
    4.6070    2.7000  -23.6270 N   0  0  0  0  0  0
    6.6360    0.9510  -22.5110 N   0  0  1  0  0  0
   -3.7050    3.6540  -27.8130 O   0  0  0  0  0  0
   -5.8441    3.5202  -21.1452 H   0  0  0  0  0  0
   -6.3323    3.8529  -23.5324 H   0  0  0  0  0  0
    5.7533    3.8418  -21.3060 H   0  0  0  0  0  0
    7.0118    2.8560  -20.4374 H   0  0  0  0  0  0
    6.4635    2.5650  -24.6804 H   0  0  0  0  0  0
    6.2193    4.0960  -23.7793 H   0  0  0  0  0  0
   -5.5405    3.9256  -25.8982 H   0  0  0  0  0  0
    2.3746    1.6206  -24.7022 H   0  0  0  0  0  0
    3.2517    1.1925  -22.8139 H   0  0  0  0  0  0
    4.4505    0.5532  -24.0022 H   0  0  0  0  0  0
    5.0060   -0.1279  -21.6578 H   0  0  0  0  0  0
    7.8938    2.6793  -22.6085 H   0  0  0  0  0  0
    4.2378    2.3736  -20.8005 H   0  0  0  0  0  0
    5.5228    1.3622  -19.9295 H   0  0  0  0  0  0
   -1.4056    3.4279  -26.8314 H   0  0  0  0  0  0
    0.5281    2.0010  -20.7589 H   0  0  0  0  0  0
    7.2848    0.4486  -21.8088 H   0  0  0  0  0  0
   -2.8621    3.5660  -28.2423 H   0  0  0  0  0  0
    4.8640    6.9760  -21.2060 N   0  3  0  0  0  0
    5.2350    9.4990  -21.1960 N   0  0  0  0  0  0
    7.0170    8.1340  -21.2490 N   0  0  0  0  0  0
    5.6490    8.1730  -20.7200 C   0  0  0  0  0  0
    3.8420    7.1960  -22.2930 C   0  0  0  0  0  0
    7.3200    9.3050  -21.8800 C   0  0  0  0  0  0
    6.2560   10.1030  -21.8730 C   0  0  0  0  0  0
    4.4182    6.5322  -20.4184 H   0  0  0  0  0  0
    5.5063    6.2557  -21.4971 H   0  0  0  0  0  0
    7.7159    7.3791  -21.1990 H   0  0  0  0  0  0
    5.6800    8.1700  -19.6204 H   0  0  0  0  0  0
    4.3143    7.7143  -23.1405 H   0  0  0  0  0  0
    3.0251    7.8229  -21.9061 H   0  0  0  0  0  0
    8.3160    9.4588  -22.2926 H   0  0  0  0  0  0
    6.3000   11.0740  -22.3640 H   0  0  0  0  0  0
  1  2  2  0  0  0
  1  3  1  0  0  0
  1 34  1  0  0  0
  2  6  1  0  0  0
  2 35  1  0  0  0
  3  5  2  0  0  0
  3 27  1  0  0  0
  4  5  1  0  0  0
  4  6  2  0  0  0
  4 18  1  0  0  0
  5 24  1  0  0  0
  6 10  1  0  0  0
  7 10  2  0  0  0
  7 23  1  0  0  0
  7 33  1  0  0  0
  8 21  1  0  0  0
  8 22  1  0  0  0
  8 36  1  0  0  0
  8 37  1  0  0  0
  9 21  1  0  0  0
  9 31  1  0  0  0
  9 38  1  0  0  0
  9 39  1  0  0  0
 10 40  1  0  0  0
 11 12  1  0  0  0
 11 14  2  0  0  0
 11 15  1  0  0  0
 12 17  1  0  0  0
 12 28  2  0  0  0
 13 28  1  0  0  0
 13 29  2  0  0  0
 13 56  1  0  0  0
 14 29  1  0  0  0
 14 31  1  0  0  0
 15 30  2  0  0  0
 15 41  1  0  0  0
 16 17  2  0  0  0
 16 18  1  0  0  0
 16 30  1  0  0  0
 17 26  1  0  0  0
 18 23  2  0  0  0
 19 20  1  0  0  0
 19 31  1  0  0  0
 19 42  1  0  0  0
 19 43  1  0  0  0
 20 22  1  0  0  0
 20 32  1  0  0  0
 20 44  1  0  0  0
 21 32  1  0  0  0
 21 45  1  0  0  0
 22 46  1  0  0  0
 22 47  1  0  0  0
 23 48  1  0  0  0
 24 25  3  0  0  0
 25 49  1  0  0  0
 32 50  1  0  0  0
 33 51  1  0  0  0
 52 55  1  0  0  0
 52 56  1  0  0  0
 52 59  1  0  0  0
 52 60  1  0  0  0
 53 55  1  0  0  0
 53 58  1  0  0  0
 54 55  1  0  0  0
 54 57  1  0  0  0
 54 61  1  0  0  0
 55 62  1  0  0  0
 56 63  1  0  0  0
 56 64  1  0  0  0
 57 58  2  0  0  0
 57 65  1  0  0  0
 58 66  1  0  0  0
M  CHG  1  52   1
M  END
> <s_m_entry_id>
370

> <s_m_entry_name>
000000212.1

> <s_m_Source_Path>
/Users/zaksoul/Documents/3r_UNI/2nd_SEMESTER/BSC/FRAG_RECON/RESULTS/2

> <s_m_Source_File>
000000212.mol2

> <i_m_Source_File_Index>
1

$$$$
No_0_225
                    3D
 Schrodinger Suite 2022-4.
 66 72  0  0  1  0            999 V2000
   -5.3870    3.5540  -22.0050 C   0  0  0  0  0  0
   -5.6350    3.7570  -23.3420 C   0  0  0  0  0  0
   -4.1570    3.2760  -21.6520 C   0  0  0  0  0  0
   -3.2390    3.4030  -23.8070 C   0  0  0  0  0  0
   -3.0990    3.1450  -22.3860 C   0  0  0  0  0  0
   -4.5760    3.6930  -24.3410 C   0  0  0  0  0  0
   -3.7960    3.7170  -26.5300 C   0  0  0  0  0  0
    5.8580    2.7740  -21.1610 C   0  0  0  0  0  0
    5.7510    2.9370  -23.7100 C   0  0  0  0  0  0
   -4.8100    3.8340  -25.6780 C   0  0  0  0  0  0
    1.9770    3.5520  -23.7660 C   0  0  0  0  0  0
    1.1730    4.6720  -23.4680 C   0  0  0  0  0  0
    2.9830    5.8310  -22.7590 C   0  0  0  0  0  0
    3.3770    3.7160  -23.4360 C   0  0  0  0  0  0
    1.4190    2.4490  -24.4420 C   0  0  0  0  0  0
   -0.6950    3.2990  -24.3490 C   0  0  0  0  0  0
   -0.1540    4.5050  -23.7350 C   0  0  0  0  0  0
   -2.1430    3.3330  -24.7200 C   0  0  0  0  0  0
    3.9360    1.2050  -23.1560 C   0  0  0  0  0  0
    4.8500    0.8250  -22.0010 C   0  0  2  0  0  0
    6.4750    2.3410  -22.5080 C   0  0  2  0  0  0
    4.8360    1.8180  -20.8270 C   0  0  0  0  0  0
   -2.4490    3.5080  -26.1500 C   0  0  0  0  0  0
   -1.7690    2.7040  -21.7760 C   0  0  0  0  0  0
   -0.7510    2.3350  -21.2610 C   0  0  0  0  0  0
   -0.9810    5.5630  -23.3930 F   0  0  0  0  0  0
   -3.9670    3.0200  -20.2700 F   0  0  0  0  0  0
    1.6640    5.8190  -22.9230 N   0  0  0  0  0  0
    3.8650    4.8550  -22.9760 N   0  0  0  0  0  0
    0.1150    2.3850  -24.7630 N   0  0  0  0  0  0
    4.2790    2.6530  -23.6100 N   0  0  0  0  0  0
    6.2630    0.8710  -22.4670 N   0  0  1  0  0  0
   -3.9520    3.7450  -27.9220 O   0  0  0  0  0  0
   -6.1962    3.6253  -21.2872 H   0  0  0  0  0  0
   -6.6422    3.9719  -23.6804 H   0  0  0  0  0  0
    5.4059    3.7711  -21.2680 H   0  0  0  0  0  0
    6.6353    2.7649  -20.3827 H   0  0  0  0  0  0
    6.1486    2.4929  -24.6345 H   0  0  0  0  0  0
    5.9134    4.0247  -23.7332 H   0  0  0  0  0  0
   -5.8128    4.0398  -26.0344 H   0  0  0  0  0  0
    2.0470    1.6113  -24.7229 H   0  0  0  0  0  0
    2.8887    1.1646  -22.8220 H   0  0  0  0  0  0
    4.0955    0.5104  -23.9939 H   0  0  0  0  0  0
    4.6037   -0.1854  -21.6427 H   0  0  0  0  0  0
    7.5482    2.5800  -22.5413 H   0  0  0  0  0  0
    3.8609    2.3258  -20.7907 H   0  0  0  0  0  0
    5.1166    1.2921  -19.9025 H   0  0  0  0  0  0
   -1.6713    3.4809  -26.9046 H   0  0  0  0  0  0
    0.1453    2.0093  -20.8074 H   0  0  0  0  0  0
    6.8938    0.3567  -21.7571 H   0  0  0  0  0  0
   -3.1041    3.6451  -28.3385 H   0  0  0  0  0  0
    4.8030    6.9170  -21.4540 N   0  3  0  0  0  0
    5.0270    9.4490  -21.2520 N   0  0  0  0  0  0
    6.8290    8.2360  -21.8190 N   0  0  0  0  0  0
    5.6060    8.1200  -21.0160 C   0  0  0  0  0  0
    3.5610    7.1570  -22.2750 C   0  0  0  0  0  0
    6.9240    9.4810  -22.3710 C   0  0  0  0  0  0
    5.8440   10.1900  -22.0570 C   0  0  0  0  0  0
    4.5621    6.3683  -20.6435 H   0  0  0  0  0  0
    5.4063    6.2777  -21.9473 H   0  0  0  0  0  0
    7.5633    7.5357  -21.9961 H   0  0  0  0  0  0
    5.8721    8.0180  -19.9536 H   0  0  0  0  0  0
    3.8110    7.7860  -23.1421 H   0  0  0  0  0  0
    2.8124    7.6807  -21.6623 H   0  0  0  0  0  0
    7.7989    9.7480  -22.9619 H   0  0  0  0  0  0
    5.7269   11.2026  -22.4402 H   0  0  0  0  0  0
  1  2  2  0  0  0
  1  3  1  0  0  0
  1 34  1  0  0  0
  2  6  1  0  0  0
  2 35  1  0  0  0
  3  5  2  0  0  0
  3 27  1  0  0  0
  4  5  1  0  0  0
  4  6  2  0  0  0
  4 18  1  0  0  0
  5 24  1  0  0  0
  6 10  1  0  0  0
  7 10  2  0  0  0
  7 23  1  0  0  0
  7 33  1  0  0  0
  8 21  1  0  0  0
  8 22  1  0  0  0
  8 36  1  0  0  0
  8 37  1  0  0  0
  9 21  1  0  0  0
  9 31  1  0  0  0
  9 38  1  0  0  0
  9 39  1  0  0  0
 10 40  1  0  0  0
 11 12  1  0  0  0
 11 14  2  0  0  0
 11 15  1  0  0  0
 12 17  1  0  0  0
 12 28  2  0  0  0
 13 28  1  0  0  0
 13 29  2  0  0  0
 13 56  1  0  0  0
 14 29  1  0  0  0
 14 31  1  0  0  0
 15 30  2  0  0  0
 15 41  1  0  0  0
 16 17  2  0  0  0
 16 18  1  0  0  0
 16 30  1  0  0  0
 17 26  1  0  0  0
 18 23  2  0  0  0
 19 20  1  0  0  0
 19 31  1  0  0  0
 19 42  1  0  0  0
 19 43  1  0  0  0
 20 22  1  0  0  0
 20 32  1  0  0  0
 20 44  1  0  0  0
 21 32  1  0  0  0
 21 45  1  0  0  0
 22 46  1  0  0  0
 22 47  1  0  0  0
 23 48  1  0  0  0
 24 25  3  0  0  0
 25 49  1  0  0  0
 32 50  1  0  0  0
 33 51  1  0  0  0
 52 55  1  0  0  0
 52 56  1  0  0  0
 52 59  1  0  0  0
 52 60  1  0  0  0
 53 55  1  0  0  0
 53 58  1  0  0  0
 54 55  1  0  0  0
 54 57  1  0  0  0
 54 61  1  0  0  0
 55 62  1  0  0  0
 56 63  1  0  0  0
 56 64  1  0  0  0
 57 58  2  0  0  0
 57 65  1  0  0  0
 58 66  1  0  0  0
M  CHG  1  52   1
M  END
> <s_m_entry_id>
371

> <s_m_entry_name>
000000213.1

> <s_m_Source_Path>
/Users/zaksoul/Documents/3r_UNI/2nd_SEMESTER/BSC/FRAG_RECON/RESULTS/2

> <s_m_Source_File>
000000213.mol2

> <i_m_Source_File_Index>
1

$$$$
No_0_226
                    3D
 Schrodinger Suite 2022-4.
 66 72  0  0  1  0            999 V2000
   -5.4190    3.4020  -22.1280 C   0  0  0  0  0  0
   -5.6550    3.5730  -23.4710 C   0  0  0  0  0  0
   -4.1880    3.1590  -21.7550 C   0  0  0  0  0  0
   -3.2470    3.2630  -23.9010 C   0  0  0  0  0  0
   -3.1180    3.0360  -22.4740 C   0  0  0  0  0  0
   -4.5830    3.5130  -24.4560 C   0  0  0  0  0  0
   -3.7770    3.5110  -26.6360 C   0  0  0  0  0  0
    5.8300    2.8860  -21.1380 C   0  0  0  0  0  0
    5.7500    2.9970  -23.6920 C   0  0  0  0  0  0
   -4.8040    3.6230  -25.7990 C   0  0  0  0  0  0
    1.9650    3.5270  -23.8040 C   0  0  0  0  0  0
    1.1320    4.6350  -23.5370 C   0  0  0  0  0  0
    2.9090    5.8480  -22.8300 C   0  0  0  0  0  0
    3.3560    3.7280  -23.4600 C   0  0  0  0  0  0
    1.4390    2.4000  -24.4640 C   0  0  0  0  0  0
   -0.6940    3.2040  -24.4120 C   0  0  0  0  0  0
   -0.1870    4.4340  -23.8160 C   0  0  0  0  0  0
   -2.1390    3.1990  -24.8000 C   0  0  0  0  0  0
    3.9660    1.2370  -23.1240 C   0  0  0  0  0  0
    4.8740    0.8990  -21.9520 C   0  0  2  0  0  0
    6.4730    2.4410  -22.4700 C   0  0  2  0  0  0
    4.8250    1.9150  -20.7980 C   0  0  0  0  0  0
   -2.4310    3.3400  -26.2370 C   0  0  0  0  0  0
   -1.7860    2.6370  -21.8400 C   0  0  0  0  0  0
   -0.7660    2.3000  -21.3060 C   0  0  0  0  0  0
   -1.0410    5.4790  -23.5040 F   0  0  0  0  0  0
   -4.0080    2.9340  -20.3660 F   0  0  0  0  0  0
    1.5920    5.8030  -23.0090 N   0  0  0  0  0  0
    3.8140    4.8870  -23.0180 N   0  0  0  0  0  0
    0.1400    2.3000  -24.7980 N   0  0  0  0  0  0
    4.2830    2.6830  -23.6030 N   0  0  0  0  0  0
    6.2920    0.9670  -22.4020 N   0  0  1  0  0  0
   -3.9180    3.5080  -28.0300 O   0  0  0  0  0  0
   -6.2372    3.4703  -21.4202 H   0  0  0  0  0  0
   -6.6622    3.7598  -23.8255 H   0  0  0  0  0  0
    5.3579    3.8706  -21.2712 H   0  0  0  0  0  0
    6.5980    2.9092  -20.3508 H   0  0  0  0  0  0
    6.1679    2.5428  -24.6025 H   0  0  0  0  0  0
    5.8892    4.0873  -23.7344 H   0  0  0  0  0  0
   -5.8071    3.7987  -26.1705 H   0  0  0  0  0  0
    2.0873    1.5701  -24.7209 H   0  0  0  0  0  0
    2.9157    1.1795  -22.8022 H   0  0  0  0  0  0
    4.1506    0.5299  -23.9461 H   0  0  0  0  0  0
    4.6459   -0.1094  -21.5765 H   0  0  0  0  0  0
    7.5412    2.7025  -22.4952 H   0  0  0  0  0  0
    3.8386    2.4016  -20.7829 H   0  0  0  0  0  0
    5.1054    1.4137  -19.8599 H   0  0  0  0  0  0
   -1.6439    3.3149  -26.9819 H   0  0  0  0  0  0
    0.1318    2.0031  -20.8361 H   0  0  0  0  0  0
    6.9254    0.4813  -21.6745 H   0  0  0  0  0  0
   -3.0631    3.4190  -28.4347 H   0  0  0  0  0  0
    4.8600    7.0410  -21.8500 N   0  3  0  0  0  0
    4.8840    9.5640  -21.4810 N   0  0  0  0  0  0
    6.6240    8.5960  -22.5190 N   0  0  0  0  0  0
    5.6230    8.2950  -21.4900 C   0  0  0  0  0  0
    3.4510    7.1950  -22.3660 C   0  0  0  0  0  0
    6.4790    9.8770  -22.9690 C   0  0  0  0  0  0
    5.4310   10.4410  -22.3730 C   0  0  0  0  0  0
    4.8550    6.4183  -21.0574 H   0  0  0  0  0  0
    5.3982    6.5058  -22.5133 H   0  0  0  0  0  0
    7.3643    7.9948  -22.9081 H   0  0  0  0  0  0
    6.1237    8.1551  -20.5206 H   0  0  0  0  0  0
    3.4450    7.9029  -23.2079 H   0  0  0  0  0  0
    2.8089    7.5920  -21.5659 H   0  0  0  0  0  0
    7.1733   10.2772  -23.7063 H   0  0  0  0  0  0
    5.1389   11.4573  -22.6331 H   0  0  0  0  0  0
  1  2  2  0  0  0
  1  3  1  0  0  0
  1 34  1  0  0  0
  2  6  1  0  0  0
  2 35  1  0  0  0
  3  5  2  0  0  0
  3 27  1  0  0  0
  4  5  1  0  0  0
  4  6  2  0  0  0
  4 18  1  0  0  0
  5 24  1  0  0  0
  6 10  1  0  0  0
  7 10  2  0  0  0
  7 23  1  0  0  0
  7 33  1  0  0  0
  8 21  1  0  0  0
  8 22  1  0  0  0
  8 36  1  0  0  0
  8 37  1  0  0  0
  9 21  1  0  0  0
  9 31  1  0  0  0
  9 38  1  0  0  0
  9 39  1  0  0  0
 10 40  1  0  0  0
 11 12  1  0  0  0
 11 14  2  0  0  0
 11 15  1  0  0  0
 12 17  1  0  0  0
 12 28  2  0  0  0
 13 28  1  0  0  0
 13 29  2  0  0  0
 13 56  1  0  0  0
 14 29  1  0  0  0
 14 31  1  0  0  0
 15 30  2  0  0  0
 15 41  1  0  0  0
 16 17  2  0  0  0
 16 18  1  0  0  0
 16 30  1  0  0  0
 17 26  1  0  0  0
 18 23  2  0  0  0
 19 20  1  0  0  0
 19 31  1  0  0  0
 19 42  1  0  0  0
 19 43  1  0  0  0
 20 22  1  0  0  0
 20 32  1  0  0  0
 20 44  1  0  0  0
 21 32  1  0  0  0
 21 45  1  0  0  0
 22 46  1  0  0  0
 22 47  1  0  0  0
 23 48  1  0  0  0
 24 25  3  0  0  0
 25 49  1  0  0  0
 32 50  1  0  0  0
 33 51  1  0  0  0
 52 55  1  0  0  0
 52 56  1  0  0  0
 52 59  1  0  0  0
 52 60  1  0  0  0
 53 55  1  0  0  0
 53 58  1  0  0  0
 54 55  1  0  0  0
 54 57  1  0  0  0
 54 61  1  0  0  0
 55 62  1  0  0  0
 56 63  1  0  0  0
 56 64  1  0  0  0
 57 58  2  0  0  0
 57 65  1  0  0  0
 58 66  1  0  0  0
M  CHG  1  52   1
M  END
> <s_m_entry_id>
372

> <s_m_entry_name>
000000214.1

> <s_m_Source_Path>
/Users/zaksoul/Documents/3r_UNI/2nd_SEMESTER/BSC/FRAG_RECON/RESULTS/2

> <s_m_Source_File>
000000214.mol2

> <i_m_Source_File_Index>
1

$$$$
No_0_227
                    3D
 Schrodinger Suite 2022-4.
 66 72  0  0  1  0            999 V2000
   -5.3620    3.2390  -21.6620 C   0  0  0  0  0  0
   -5.6550    3.4620  -22.9860 C   0  0  0  0  0  0
   -4.1140    2.9960  -21.3500 C   0  0  0  0  0  0
   -3.2640    3.2010  -23.5260 C   0  0  0  0  0  0
   -3.0740    2.9180  -22.1160 C   0  0  0  0  0  0
   -4.6240    3.4560  -24.0160 C   0  0  0  0  0  0
   -3.9090    3.5550  -26.2250 C   0  0  0  0  0  0
    5.9230    2.8300  -21.1520 C   0  0  0  0  0  0
    5.7370    3.0450  -23.6930 C   0  0  0  0  0  0
   -4.9010    3.6190  -25.3420 C   0  0  0  0  0  0
    1.9440    3.5290  -23.6290 C   0  0  0  0  0  0
    1.1110    4.6150  -23.2830 C   0  0  0  0  0  0
    2.9010    5.8200  -22.5990 C   0  0  0  0  0  0
    3.3460    3.7340  -23.3350 C   0  0  0  0  0  0
    1.4040    2.4230  -24.3140 C   0  0  0  0  0  0
   -0.7340    3.1970  -24.1420 C   0  0  0  0  0  0
   -0.2160    4.4080  -23.5170 C   0  0  0  0  0  0
   -2.1930    3.1890  -24.4710 C   0  0  0  0  0  0
    3.9980    1.2390  -23.1270 C   0  0  0  0  0  0
    4.9570    0.8660  -22.0080 C   0  0  2  0  0  0
    6.5150    2.4480  -22.5260 C   0  0  2  0  0  0
    4.9430    1.8320  -20.8120 C   0  0  0  0  0  0
   -2.5460    3.3850  -25.8880 C   0  0  0  0  0  0
   -1.7130    2.5100  -21.5540 C   0  0  0  0  0  0
   -0.6680    2.1650  -21.0760 C   0  0  0  0  0  0
   -1.0690    5.4280  -23.1270 F   0  0  0  0  0  0
   -3.8760    2.7170  -19.9800 F   0  0  0  0  0  0
    1.5780    5.7650  -22.7260 N   0  0  0  0  0  0
    3.8090    4.8790  -22.8630 N   0  0  0  0  0  0
    0.0940    2.3210  -24.5990 N   0  0  0  0  0  0
    4.2780    2.7070  -23.5580 N   0  0  0  0  0  0
    6.3540    0.9710  -22.5120 N   0  0  1  0  0  0
   -4.1060    3.6080  -27.6100 O   0  0  0  0  0  0
   -6.1520    3.2671  -20.9202 H   0  0  0  0  0  0
   -6.6782    3.6496  -23.2909 H   0  0  0  0  0  0
    5.4345    3.8130  -21.2237 H   0  0  0  0  0  0
    6.7222    2.8310  -20.3962 H   0  0  0  0  0  0
    6.1214    2.6344  -24.6383 H   0  0  0  0  0  0
    5.8612    4.1380  -23.6960 H   0  0  0  0  0  0
   -5.9204    3.7966  -25.6651 H   0  0  0  0  0  0
    2.0516    1.6137  -24.6313 H   0  0  0  0  0  0
    2.9623    1.1553  -22.7660 H   0  0  0  0  0  0
    4.1564    0.5689  -23.9848 H   0  0  0  0  0  0
    4.7562   -0.1600  -21.6660 H   0  0  0  0  0  0
    7.5781    2.7246  -22.5835 H   0  0  0  0  0  0
    3.9525    2.3045  -20.7363 H   0  0  0  0  0  0
    5.2679    1.2962  -19.9079 H   0  0  0  0  0  0
   -1.7897    3.4000  -26.6644 H   0  0  0  0  0  0
    0.2520    1.8610  -20.6560 H   0  0  0  0  0  0
    7.0214    0.4629  -21.8317 H   0  0  0  0  0  0
   -3.2680    3.5467  -28.0532 H   0  0  0  0  0  0
    4.9540    7.1220  -22.0670 N   0  3  0  0  0  0
    4.8800    9.5540  -21.3060 N   0  0  0  0  0  0
    6.2740    8.9720  -22.9670 N   0  0  0  0  0  0
    5.6830    8.4070  -21.7500 C   0  0  0  0  0  0
    3.4470    7.1540  -22.1010 C   0  0  0  0  0  0
    5.8850   10.2710  -23.1310 C   0  0  0  0  0  0
    5.0380   10.6060  -22.1620 C   0  0  0  0  0  0
    5.2549    6.4043  -21.4263 H   0  0  0  0  0  0
    5.2959    6.7561  -22.9418 H   0  0  0  0  0  0
    6.8999    8.5310  -23.6559 H   0  0  0  0  0  0
    6.4760    8.2080  -21.0140 H   0  0  0  0  0  0
    3.1121    7.9597  -22.7708 H   0  0  0  0  0  0
    3.0620    7.3530  -21.0900 H   0  0  0  0  0  0
    6.2718   10.8538  -23.9657 H   0  0  0  0  0  0
    4.5931   11.5999  -22.1480 H   0  0  0  0  0  0
  1  2  2  0  0  0
  1  3  1  0  0  0
  1 34  1  0  0  0
  2  6  1  0  0  0
  2 35  1  0  0  0
  3  5  2  0  0  0
  3 27  1  0  0  0
  4  5  1  0  0  0
  4  6  2  0  0  0
  4 18  1  0  0  0
  5 24  1  0  0  0
  6 10  1  0  0  0
  7 10  2  0  0  0
  7 23  1  0  0  0
  7 33  1  0  0  0
  8 21  1  0  0  0
  8 22  1  0  0  0
  8 36  1  0  0  0
  8 37  1  0  0  0
  9 21  1  0  0  0
  9 31  1  0  0  0
  9 38  1  0  0  0
  9 39  1  0  0  0
 10 40  1  0  0  0
 11 12  1  0  0  0
 11 14  2  0  0  0
 11 15  1  0  0  0
 12 17  1  0  0  0
 12 28  2  0  0  0
 13 28  1  0  0  0
 13 29  2  0  0  0
 13 56  1  0  0  0
 14 29  1  0  0  0
 14 31  1  0  0  0
 15 30  2  0  0  0
 15 41  1  0  0  0
 16 17  2  0  0  0
 16 18  1  0  0  0
 16 30  1  0  0  0
 17 26  1  0  0  0
 18 23  2  0  0  0
 19 20  1  0  0  0
 19 31  1  0  0  0
 19 42  1  0  0  0
 19 43  1  0  0  0
 20 22  1  0  0  0
 20 32  1  0  0  0
 20 44  1  0  0  0
 21 32  1  0  0  0
 21 45  1  0  0  0
 22 46  1  0  0  0
 22 47  1  0  0  0
 23 48  1  0  0  0
 24 25  3  0  0  0
 25 49  1  0  0  0
 32 50  1  0  0  0
 33 51  1  0  0  0
 52 55  1  0  0  0
 52 56  1  0  0  0
 52 59  1  0  0  0
 52 60  1  0  0  0
 53 55  1  0  0  0
 53 58  1  0  0  0
 54 55  1  0  0  0
 54 57  1  0  0  0
 54 61  1  0  0  0
 55 62  1  0  0  0
 56 63  1  0  0  0
 56 64  1  0  0  0
 57 58  2  0  0  0
 57 65  1  0  0  0
 58 66  1  0  0  0
M  CHG  1  52   1
M  END
> <s_m_entry_id>
373

> <s_m_entry_name>
000000215.1

> <s_m_Source_Path>
/Users/zaksoul/Documents/3r_UNI/2nd_SEMESTER/BSC/FRAG_RECON/RESULTS/2

> <s_m_Source_File>
000000215.mol2

> <i_m_Source_File_Index>
1

$$$$
No_0_228
                    3D
 Schrodinger Suite 2022-4.
 66 72  0  0  1  0            999 V2000
   -5.2310    3.7570  -21.7770 C   0  0  0  0  0  0
   -5.5010    3.9500  -23.1110 C   0  0  0  0  0  0
   -3.9910    3.5060  -21.4400 C   0  0  0  0  0  0
   -3.1060    3.6430  -23.6080 C   0  0  0  0  0  0
   -2.9400    3.3940  -22.1880 C   0  0  0  0  0  0
   -4.4550    3.9030  -24.1240 C   0  0  0  0  0  0
   -3.7060    3.9350  -26.3240 C   0  0  0  0  0  0
    6.0390    3.2100  -21.0870 C   0  0  0  0  0  0
    5.8930    3.3610  -23.6360 C   0  0  0  0  0  0
   -4.7100    4.0350  -25.4580 C   0  0  0  0  0  0
    2.1070    3.8980  -23.6410 C   0  0  0  0  0  0
    1.2840    5.0030  -23.3360 C   0  0  0  0  0  0
    3.0800    6.2020  -22.6570 C   0  0  0  0  0  0
    3.5080    4.0920  -23.3310 C   0  0  0  0  0  0
    1.5620    2.7820  -24.3050 C   0  0  0  0  0  0
   -0.5670    3.5890  -24.1860 C   0  0  0  0  0  0
   -0.0420    4.8080  -23.5840 C   0  0  0  0  0  0
   -2.0210    3.5920  -24.5360 C   0  0  0  0  0  0
    4.1210    1.5950  -23.0490 C   0  0  0  0  0  0
    5.0590    1.2380  -21.9060 C   0  0  2  0  0  0
    6.6460    2.7850  -22.4420 C   0  0  2  0  0  0
    5.0410    2.2350  -20.7360 C   0  0  0  0  0  0
   -2.3510    3.7550  -25.9630 C   0  0  0  0  0  0
   -1.5930    2.9820  -21.5950 C   0  0  0  0  0  0
   -0.5600    2.6360  -21.0930 C   0  0  0  0  0  0
   -0.8860    5.8500  -23.2330 F   0  0  0  0  0  0
   -3.7760    3.2600  -20.0590 F   0  0  0  0  0  0
    1.7590    6.1620  -22.8010 N   0  0  0  0  0  0
    3.9790    5.2430  -22.8820 N   0  0  0  0  0  0
    0.2550    2.6900  -24.6070 N   0  0  0  0  0  0
    4.4280    3.0470  -23.5140 N   0  0  0  0  0  0
    6.4640    1.3110  -22.3920 N   0  0  1  0  0  0
   -3.8830    3.9540  -27.7130 O   0  0  0  0  0  0
   -6.0307    3.8152  -21.0475 H   0  0  0  0  0  0
   -6.5172    4.1428  -23.4353 H   0  0  0  0  0  0
    5.5655    4.1973  -21.1920 H   0  0  0  0  0  0
    6.8273    3.2201  -20.3199 H   0  0  0  0  0  0
    6.2868    2.9208  -24.5640 H   0  0  0  0  0  0
    6.0332    4.4516  -23.6653 H   0  0  0  0  0  0
   -5.7220    4.2175  -25.8010 H   0  0  0  0  0  0
    2.2032    1.9561  -24.5910 H   0  0  0  0  0  0
    3.0793    1.5344  -22.7008 H   0  0  0  0  0  0
    4.2835    0.9007  -23.8866 H   0  0  0  0  0  0
    4.8390    0.2240  -21.5408 H   0  0  0  0  0  0
    7.7136    3.0454  -22.4904 H   0  0  0  0  0  0
    4.0561    2.7224  -20.6876 H   0  0  0  0  0  0
    5.3458    1.7192  -19.8135 H   0  0  0  0  0  0
   -1.5831    3.7399  -26.7279 H   0  0  0  0  0  0
    0.3492    2.3309  -20.6509 H   0  0  0  0  0  0
    7.1153    0.8126  -21.6893 H   0  0  0  0  0  0
   -3.0392    3.8699  -28.1413 H   0  0  0  0  0  0
    5.1150    7.6220  -22.4720 N   0  3  0  0  0  0
    5.0570    9.9910  -21.5300 N   0  0  0  0  0  0
    6.0940    9.6190  -23.4870 N   0  0  0  0  0  0
    5.8150    8.9380  -22.2180 C   0  0  0  0  0  0
    3.6370    7.5410  -22.1850 C   0  0  0  0  0  0
    5.6000   10.8920  -23.4660 C   0  0  0  0  0  0
    4.9620   11.1020  -22.3190 C   0  0  0  0  0  0
    5.5907    6.8925  -21.9644 H   0  0  0  0  0  0
    5.2830    7.3370  -23.4241 H   0  0  0  0  0  0
    6.5832    9.2698  -24.3234 H   0  0  0  0  0  0
    6.7587    8.7551  -21.6832 H   0  0  0  0  0  0
    3.1171    8.3579  -22.7069 H   0  0  0  0  0  0
    3.4669    7.6480  -21.1035 H   0  0  0  0  0  0
    5.7620   11.5520  -24.3170 H   0  0  0  0  0  0
    4.4711   12.0567  -22.1361 H   0  0  0  0  0  0
  1  2  2  0  0  0
  1  3  1  0  0  0
  1 34  1  0  0  0
  2  6  1  0  0  0
  2 35  1  0  0  0
  3  5  2  0  0  0
  3 27  1  0  0  0
  4  5  1  0  0  0
  4  6  2  0  0  0
  4 18  1  0  0  0
  5 24  1  0  0  0
  6 10  1  0  0  0
  7 10  2  0  0  0
  7 23  1  0  0  0
  7 33  1  0  0  0
  8 21  1  0  0  0
  8 22  1  0  0  0
  8 36  1  0  0  0
  8 37  1  0  0  0
  9 21  1  0  0  0
  9 31  1  0  0  0
  9 38  1  0  0  0
  9 39  1  0  0  0
 10 40  1  0  0  0
 11 12  1  0  0  0
 11 14  2  0  0  0
 11 15  1  0  0  0
 12 17  1  0  0  0
 12 28  2  0  0  0
 13 28  1  0  0  0
 13 29  2  0  0  0
 13 56  1  0  0  0
 14 29  1  0  0  0
 14 31  1  0  0  0
 15 30  2  0  0  0
 15 41  1  0  0  0
 16 17  2  0  0  0
 16 18  1  0  0  0
 16 30  1  0  0  0
 17 26  1  0  0  0
 18 23  2  0  0  0
 19 20  1  0  0  0
 19 31  1  0  0  0
 19 42  1  0  0  0
 19 43  1  0  0  0
 20 22  1  0  0  0
 20 32  1  0  0  0
 20 44  1  0  0  0
 21 32  1  0  0  0
 21 45  1  0  0  0
 22 46  1  0  0  0
 22 47  1  0  0  0
 23 48  1  0  0  0
 24 25  3  0  0  0
 25 49  1  0  0  0
 32 50  1  0  0  0
 33 51  1  0  0  0
 52 55  1  0  0  0
 52 56  1  0  0  0
 52 59  1  0  0  0
 52 60  1  0  0  0
 53 55  1  0  0  0
 53 58  1  0  0  0
 54 55  1  0  0  0
 54 57  1  0  0  0
 54 61  1  0  0  0
 55 62  1  0  0  0
 56 63  1  0  0  0
 56 64  1  0  0  0
 57 58  2  0  0  0
 57 65  1  0  0  0
 58 66  1  0  0  0
M  CHG  1  52   1
M  END
> <s_m_entry_id>
374

> <s_m_entry_name>
000000216.1

> <s_m_Source_Path>
/Users/zaksoul/Documents/3r_UNI/2nd_SEMESTER/BSC/FRAG_RECON/RESULTS/2

> <s_m_Source_File>
000000216.mol2

> <i_m_Source_File_Index>
1

$$$$
No_0_229
                    3D
 Schrodinger Suite 2022-4.
 64 70  0  0  1  0            999 V2000
   -5.2240    3.6590  -22.0160 C   0  0  0  0  0  0
   -5.4840    3.8460  -23.3530 C   0  0  0  0  0  0
   -3.9890    3.3970  -21.6710 C   0  0  0  0  0  0
   -3.0890    3.5110  -23.8330 C   0  0  0  0  0  0
   -2.9350    3.2690  -22.4120 C   0  0  0  0  0  0
   -4.4320    3.7830  -24.3600 C   0  0  0  0  0  0
   -3.6690    3.7930  -26.5550 C   0  0  0  0  0  0
    6.0350    3.0010  -21.2530 C   0  0  0  0  0  0
    5.9070    3.1380  -23.8030 C   0  0  0  0  0  0
   -4.6780    3.9090  -25.6960 C   0  0  0  0  0  0
    2.1260    3.7130  -23.8360 C   0  0  0  0  0  0
    1.3120    4.8290  -23.5420 C   0  0  0  0  0  0
    3.1170    6.0130  -22.8590 C   0  0  0  0  0  0
    3.5270    3.8950  -23.5180 C   0  0  0  0  0  0
    1.5740    2.5990  -24.4960 C   0  0  0  0  0  0
   -0.5470    3.4280  -24.3950 C   0  0  0  0  0  0
   -0.0140    4.6460  -23.7970 C   0  0  0  0  0  0
   -1.9990    3.4440  -24.7550 C   0  0  0  0  0  0
    4.1130    1.3930  -23.2180 C   0  0  0  0  0  0
    5.0400    1.0330  -22.0670 C   0  0  2  0  0  0
    6.6460    2.5610  -22.6010 C   0  0  2  0  0  0
    5.0250    2.0380  -20.9020 C   0  0  0  0  0  0
   -2.3180    3.6020  -26.1840 C   0  0  0  0  0  0
   -1.5960    2.8480  -21.8070 C   0  0  0  0  0  0
   -0.5700    2.4940  -21.2970 C   0  0  0  0  0  0
   -0.8490    5.6980  -23.4580 F   0  0  0  0  0  0
   -3.7850    3.1570  -20.2870 F   0  0  0  0  0  0
    1.7960    5.9850  -23.0120 N   0  0  0  0  0  0
    4.0070    5.0430  -23.0730 N   0  0  0  0  0  0
    0.2680    2.5180  -24.8060 N   0  0  0  0  0  0
    4.4380    2.8390  -23.6890 N   0  0  0  0  0  0
    6.4490    1.0890  -22.5440 N   0  0  1  0  0  0
   -3.8370    3.8060  -27.9460 O   0  0  0  0  0  0
   -6.0285    3.7293  -21.2929 H   0  0  0  0  0  0
   -6.4959    4.0478  -23.6853 H   0  0  0  0  0  0
    5.5717    3.9921  -21.3671 H   0  0  0  0  0  0
    6.8188    3.0071  -20.4813 H   0  0  0  0  0  0
    6.3014    2.6881  -24.7260 H   0  0  0  0  0  0
    6.0584    4.2270  -23.8383 H   0  0  0  0  0  0
   -5.6859    4.0997  -26.0464 H   0  0  0  0  0  0
    2.2078    1.7646  -24.7738 H   0  0  0  0  0  0
    3.0686    1.3456  -22.8759 H   0  0  0  0  0  0
    4.2735    0.6914  -24.0498 H   0  0  0  0  0  0
    4.8069    0.0238  -21.6966 H   0  0  0  0  0  0
    7.7165    2.8102  -22.6454 H   0  0  0  0  0  0
    4.0448    2.5357  -20.8636 H   0  0  0  0  0  0
    5.3186    1.5244  -19.9747 H   0  0  0  0  0  0
   -1.5462    3.5749  -26.9447 H   0  0  0  0  0  0
    0.3332    2.1823  -20.8474 H   0  0  0  0  0  0
    7.0903    0.5877  -21.8342 H   0  0  0  0  0  0
   -2.9913    3.7099  -28.3679 H   0  0  0  0  0  0
    4.0120    7.3130  -20.9220 N   0  0  1  0  0  0
    6.1080    8.5850  -21.1840 N   0  0  0  0  0  0
    4.2730    9.7780  -20.8670 N   0  0  0  0  0  0
    4.8310    8.4710  -20.4300 C   0  0  0  0  0  0
    3.6850    7.3490  -22.3920 C   0  0  0  0  0  0
    5.0270   10.4360  -21.6660 C   0  0  0  0  0  0
    6.2240    9.6580  -21.8730 C   0  0  0  0  0  0
    4.5479    6.3922  -20.7450 H   0  0  0  0  0  0
    4.9940    8.4320  -19.3428 H   0  0  0  0  0  0
    4.5955    7.5801  -22.9643 H   0  0  0  0  0  0
    2.9513    8.1457  -22.5839 H   0  0  0  0  0  0
    4.7011   11.4016  -22.0498 H   0  0  0  0  0  0
    7.1204    9.8291  -22.4673 H   0  0  0  0  0  0
  1  2  2  0  0  0
  1  3  1  0  0  0
  1 34  1  0  0  0
  2  6  1  0  0  0
  2 35  1  0  0  0
  3  5  2  0  0  0
  3 27  1  0  0  0
  4  5  1  0  0  0
  4  6  2  0  0  0
  4 18  1  0  0  0
  5 24  1  0  0  0
  6 10  1  0  0  0
  7 10  2  0  0  0
  7 23  1  0  0  0
  7 33  1  0  0  0
  8 21  1  0  0  0
  8 22  1  0  0  0
  8 36  1  0  0  0
  8 37  1  0  0  0
  9 21  1  0  0  0
  9 31  1  0  0  0
  9 38  1  0  0  0
  9 39  1  0  0  0
 10 40  1  0  0  0
 11 12  1  0  0  0
 11 14  2  0  0  0
 11 15  1  0  0  0
 12 17  1  0  0  0
 12 28  2  0  0  0
 13 28  1  0  0  0
 13 29  2  0  0  0
 13 56  1  0  0  0
 14 29  1  0  0  0
 14 31  1  0  0  0
 15 30  2  0  0  0
 15 41  1  0  0  0
 16 17  2  0  0  0
 16 18  1  0  0  0
 16 30  1  0  0  0
 17 26  1  0  0  0
 18 23  2  0  0  0
 19 20  1  0  0  0
 19 31  1  0  0  0
 19 42  1  0  0  0
 19 43  1  0  0  0
 20 22  1  0  0  0
 20 32  1  0  0  0
 20 44  1  0  0  0
 21 32  1  0  0  0
 21 45  1  0  0  0
 22 46  1  0  0  0
 22 47  1  0  0  0
 23 48  1  0  0  0
 24 25  3  0  0  0
 25 49  1  0  0  0
 32 50  1  0  0  0
 33 51  1  0  0  0
 52 55  1  0  0  0
 52 56  1  0  0  0
 52 59  1  0  0  0
 53 55  1  0  0  0
 53 58  2  0  0  0
 54 55  1  0  0  0
 54 57  2  0  0  0
 55 60  1  0  0  0
 56 61  1  0  0  0
 56 62  1  0  0  0
 57 58  1  0  0  0
 57 63  1  0  0  0
 58 64  1  0  0  0
M  END
> <s_m_entry_id>
375

> <s_m_entry_name>
000000217.1

> <s_m_Source_Path>
/Users/zaksoul/Documents/3r_UNI/2nd_SEMESTER/BSC/FRAG_RECON/RESULTS/2

> <s_m_Source_File>
000000217.mol2

> <i_m_Source_File_Index>
1

$$$$
No_0_230
                    3D
 Schrodinger Suite 2022-4.
 64 70  0  0  1  0            999 V2000
   -5.2430    3.6060  -21.8060 C   0  0  0  0  0  0
   -5.5160    3.8030  -23.1390 C   0  0  0  0  0  0
   -4.0030    3.3480  -21.4740 C   0  0  0  0  0  0
   -3.1230    3.4860  -23.6430 C   0  0  0  0  0  0
   -2.9550    3.2330  -22.2250 C   0  0  0  0  0  0
   -4.4730    3.7540  -24.1550 C   0  0  0  0  0  0
   -3.7290    3.7870  -26.3570 C   0  0  0  0  0  0
    6.0260    3.0030  -21.1480 C   0  0  0  0  0  0
    5.8740    3.1610  -23.6960 C   0  0  0  0  0  0
   -4.7310    3.8890  -25.4890 C   0  0  0  0  0  0
    2.0910    3.7160  -23.6900 C   0  0  0  0  0  0
    1.2730    4.8240  -23.3800 C   0  0  0  0  0  0
    3.0770    6.0130  -22.7030 C   0  0  0  0  0  0
    3.4930    3.9020  -23.3830 C   0  0  0  0  0  0
    1.5390    2.6040  -24.3550 C   0  0  0  0  0  0
   -0.5870    3.4210  -24.2280 C   0  0  0  0  0  0
   -0.0540    4.6360  -23.6250 C   0  0  0  0  0  0
   -2.0410    3.4310  -24.5750 C   0  0  0  0  0  0
    4.0950    1.4020  -23.1090 C   0  0  0  0  0  0
    5.0340    1.0370  -21.9690 C   0  0  2  0  0  0
    6.6270    2.5780  -22.5050 C   0  0  2  0  0  0
    5.0240    2.0320  -20.7960 C   0  0  0  0  0  0
   -2.3740    3.6000  -26.0000 C   0  0  0  0  0  0
   -1.6090    2.8130  -21.6360 C   0  0  0  0  0  0
   -0.5760    2.4610  -21.1380 C   0  0  0  0  0  0
   -0.8920    5.6810  -23.2700 F   0  0  0  0  0  0
   -3.7860    3.0970  -20.0940 F   0  0  0  0  0  0
    1.7550    5.9790  -22.8440 N   0  0  0  0  0  0
    3.9710    5.0500  -22.9330 N   0  0  0  0  0  0
    0.2300    2.5190  -24.6540 N   0  0  0  0  0  0
    4.4080    2.8540  -23.5710 N   0  0  0  0  0  0
    6.4380    1.1050  -22.4590 N   0  0  1  0  0  0
   -3.9100    3.8100  -27.7460 O   0  0  0  0  0  0
   -6.0412    3.6662  -21.0751 H   0  0  0  0  0  0
   -6.5318    4.0017  -23.4612 H   0  0  0  0  0  0
    5.5569    3.9927  -21.2499 H   0  0  0  0  0  0
    6.8163    3.0080  -20.3829 H   0  0  0  0  0  0
    6.2625    2.7211  -24.6263 H   0  0  0  0  0  0
    6.0193    4.2510  -23.7232 H   0  0  0  0  0  0
   -5.7429    4.0787  -25.8283 H   0  0  0  0  0  0
    2.1743    1.7750  -24.6451 H   0  0  0  0  0  0
    3.0541    1.3455  -22.7577 H   0  0  0  0  0  0
    4.2514    0.7087  -23.9486 H   0  0  0  0  0  0
    4.8098    0.0233  -21.6055 H   0  0  0  0  0  0
    7.6957    2.8333  -22.5565 H   0  0  0  0  0  0
    4.0418    2.5246  -20.7445 H   0  0  0  0  0  0
    5.3288    1.5123  -19.8757 H   0  0  0  0  0  0
   -1.6081    3.5829  -26.7669 H   0  0  0  0  0  0
    0.3328    2.1501  -20.6991 H   0  0  0  0  0  0
    7.0887    0.6018  -21.7592 H   0  0  0  0  0  0
   -3.0675    3.7230  -28.1762 H   0  0  0  0  0  0
    4.6670    7.1470  -21.1440 N   0  0  1  0  0  0
    6.1790    8.8880  -22.0160 N   0  0  0  0  0  0
    4.6300    9.5640  -20.5900 N   0  0  0  0  0  0
    5.4800    8.3650  -20.8130 C   0  0  0  0  0  0
    3.6420    7.3480  -22.2300 C   0  0  0  0  0  0
    4.7940   10.4980  -21.4500 C   0  0  0  0  0  0
    5.8060   10.0580  -22.3800 C   0  0  0  0  0  0
    5.3227    6.3564  -21.4778 H   0  0  0  0  0  0
    6.1717    8.1871  -19.9764 H   0  0  0  0  0  0
    4.1061    7.8711  -23.0791 H   0  0  0  0  0  0
    2.8240    7.9770  -21.8490 H   0  0  0  0  0  0
    4.2091   11.4138  -21.3780 H   0  0  0  0  0  0
    6.2531   10.5231  -23.2573 H   0  0  0  0  0  0
  1  2  2  0  0  0
  1  3  1  0  0  0
  1 34  1  0  0  0
  2  6  1  0  0  0
  2 35  1  0  0  0
  3  5  2  0  0  0
  3 27  1  0  0  0
  4  5  1  0  0  0
  4  6  2  0  0  0
  4 18  1  0  0  0
  5 24  1  0  0  0
  6 10  1  0  0  0
  7 10  2  0  0  0
  7 23  1  0  0  0
  7 33  1  0  0  0
  8 21  1  0  0  0
  8 22  1  0  0  0
  8 36  1  0  0  0
  8 37  1  0  0  0
  9 21  1  0  0  0
  9 31  1  0  0  0
  9 38  1  0  0  0
  9 39  1  0  0  0
 10 40  1  0  0  0
 11 12  1  0  0  0
 11 14  2  0  0  0
 11 15  1  0  0  0
 12 17  1  0  0  0
 12 28  2  0  0  0
 13 28  1  0  0  0
 13 29  2  0  0  0
 13 56  1  0  0  0
 14 29  1  0  0  0
 14 31  1  0  0  0
 15 30  2  0  0  0
 15 41  1  0  0  0
 16 17  2  0  0  0
 16 18  1  0  0  0
 16 30  1  0  0  0
 17 26  1  0  0  0
 18 23  2  0  0  0
 19 20  1  0  0  0
 19 31  1  0  0  0
 19 42  1  0  0  0
 19 43  1  0  0  0
 20 22  1  0  0  0
 20 32  1  0  0  0
 20 44  1  0  0  0
 21 32  1  0  0  0
 21 45  1  0  0  0
 22 46  1  0  0  0
 22 47  1  0  0  0
 23 48  1  0  0  0
 24 25  3  0  0  0
 25 49  1  0  0  0
 32 50  1  0  0  0
 33 51  1  0  0  0
 52 55  1  0  0  0
 52 56  1  0  0  0
 52 59  1  0  0  0
 53 55  1  0  0  0
 53 58  2  0  0  0
 54 55  1  0  0  0
 54 57  2  0  0  0
 55 60  1  0  0  0
 56 61  1  0  0  0
 56 62  1  0  0  0
 57 58  1  0  0  0
 57 63  1  0  0  0
 58 64  1  0  0  0
M  END
> <s_m_entry_id>
376

> <s_m_entry_name>
000000218.1

> <s_m_Source_Path>
/Users/zaksoul/Documents/3r_UNI/2nd_SEMESTER/BSC/FRAG_RECON/RESULTS/2

> <s_m_Source_File>
000000218.mol2

> <i_m_Source_File_Index>
1

$$$$
No_0_231
                    3D
 Schrodinger Suite 2022-4.
 64 70  0  0  1  0            999 V2000
   -5.3320    3.3350  -21.6360 C   0  0  0  0  0  0
   -5.6110    3.5440  -22.9650 C   0  0  0  0  0  0
   -4.0870    3.0980  -21.3090 C   0  0  0  0  0  0
   -3.2140    3.2810  -23.4780 C   0  0  0  0  0  0
   -3.0380    3.0130  -22.0640 C   0  0  0  0  0  0
   -4.5700    3.5300  -23.9840 C   0  0  0  0  0  0
   -3.8320    3.6070  -26.1870 C   0  0  0  0  0  0
    5.9480    2.9460  -21.0070 C   0  0  0  0  0  0
    5.7880    3.1350  -23.5520 C   0  0  0  0  0  0
   -4.8340    3.6780  -25.3150 C   0  0  0  0  0  0
    1.9940    3.6150  -23.5320 C   0  0  0  0  0  0
    1.1550    4.7030  -23.2050 C   0  0  0  0  0  0
    2.9370    5.9180  -22.5150 C   0  0  0  0  0  0
    3.3930    3.8250  -23.2250 C   0  0  0  0  0  0
    1.4620    2.5020  -24.2100 C   0  0  0  0  0  0
   -0.6780    3.2740  -24.0690 C   0  0  0  0  0  0
   -0.1690    4.4920  -23.4500 C   0  0  0  0  0  0
   -2.1340    3.2610  -24.4120 C   0  0  0  0  0  0
    4.0450    1.3340  -22.9860 C   0  0  0  0  0  0
    4.9930    0.9730  -21.8530 C   0  0  2  0  0  0
    6.5550    2.5520  -22.3710 C   0  0  2  0  0  0
    4.9670    1.9510  -20.6670 C   0  0  0  0  0  0
   -2.4730    3.4420  -25.8350 C   0  0  0  0  0  0
   -1.6830    2.6120  -21.4830 C   0  0  0  0  0  0
   -0.6420    2.2730  -20.9910 C   0  0  0  0  0  0
   -1.0260    5.5150  -23.0790 F   0  0  0  0  0  0
   -3.8620    2.8320  -19.9330 F   0  0  0  0  0  0
    1.6160    5.8600  -22.6550 N   0  0  0  0  0  0
    3.8490    4.9760  -22.7600 N   0  0  0  0  0  0
    0.1560    2.3950  -24.5080 N   0  0  0  0  0  0
    4.3280    2.7980  -23.4290 N   0  0  0  0  0  0
    6.3950    1.0740  -22.3440 N   0  0  1  0  0  0
   -4.0160    3.6460  -27.5750 O   0  0  0  0  0  0
   -6.1291    3.3701  -20.9022 H   0  0  0  0  0  0
   -6.6312    3.7276  -23.2820 H   0  0  0  0  0  0
    5.4588    3.9274  -21.0937 H   0  0  0  0  0  0
    6.7393    2.9561  -20.2430 H   0  0  0  0  0  0
    6.1829    2.7159  -24.4892 H   0  0  0  0  0  0
    5.9111    4.2280  -23.5651 H   0  0  0  0  0  0
   -5.8501    3.8517  -25.6503 H   0  0  0  0  0  0
    2.1139    1.6906  -24.5129 H   0  0  0  0  0  0
    3.0061    1.2523  -22.6340 H   0  0  0  0  0  0
    4.2135    0.6548  -23.8347 H   0  0  0  0  0  0
    4.7902   -0.0499  -21.5030 H   0  0  0  0  0  0
    7.6185    2.8287  -22.4205 H   0  0  0  0  0  0
    3.9753    2.4231  -20.6065 H   0  0  0  0  0  0
    5.2828    1.4253  -19.7538 H   0  0  0  0  0  0
   -1.7085    3.4510  -26.6035 H   0  0  0  0  0  0
    0.2743    1.9749  -20.5589 H   0  0  0  0  0  0
    7.0570    0.5746  -21.6521 H   0  0  0  0  0  0
   -3.1731    3.5807  -28.0083 H   0  0  0  0  0  0
    4.9690    7.2000  -21.8300 N   0  0  1  0  0  0
    5.3470    9.4530  -22.7580 N   0  0  0  0  0  0
    4.9410    9.3460  -20.5880 N   0  0  0  0  0  0
    5.6290    8.5340  -21.6250 C   0  0  0  0  0  0
    3.4760    7.2570  -22.0250 C   0  0  0  0  0  0
    4.4010   10.4210  -21.0270 C   0  0  0  0  0  0
    4.6670   10.4910  -22.4440 C   0  0  0  0  0  0
    5.3799    6.7271  -22.7098 H   0  0  0  0  0  0
    6.7067    8.4370  -21.4271 H   0  0  0  0  0  0
    3.2320    8.0400  -22.7580 H   0  0  0  0  0  0
    2.9921    7.5210  -21.0731 H   0  0  0  0  0  0
    3.8649   11.0791  -20.3448 H   0  0  0  0  0  0
    4.4019   11.2202  -23.2082 H   0  0  0  0  0  0
  1  2  2  0  0  0
  1  3  1  0  0  0
  1 34  1  0  0  0
  2  6  1  0  0  0
  2 35  1  0  0  0
  3  5  2  0  0  0
  3 27  1  0  0  0
  4  5  1  0  0  0
  4  6  2  0  0  0
  4 18  1  0  0  0
  5 24  1  0  0  0
  6 10  1  0  0  0
  7 10  2  0  0  0
  7 23  1  0  0  0
  7 33  1  0  0  0
  8 21  1  0  0  0
  8 22  1  0  0  0
  8 36  1  0  0  0
  8 37  1  0  0  0
  9 21  1  0  0  0
  9 31  1  0  0  0
  9 38  1  0  0  0
  9 39  1  0  0  0
 10 40  1  0  0  0
 11 12  1  0  0  0
 11 14  2  0  0  0
 11 15  1  0  0  0
 12 17  1  0  0  0
 12 28  2  0  0  0
 13 28  1  0  0  0
 13 29  2  0  0  0
 13 56  1  0  0  0
 14 29  1  0  0  0
 14 31  1  0  0  0
 15 30  2  0  0  0
 15 41  1  0  0  0
 16 17  2  0  0  0
 16 18  1  0  0  0
 16 30  1  0  0  0
 17 26  1  0  0  0
 18 23  2  0  0  0
 19 20  1  0  0  0
 19 31  1  0  0  0
 19 42  1  0  0  0
 19 43  1  0  0  0
 20 22  1  0  0  0
 20 32  1  0  0  0
 20 44  1  0  0  0
 21 32  1  0  0  0
 21 45  1  0  0  0
 22 46  1  0  0  0
 22 47  1  0  0  0
 23 48  1  0  0  0
 24 25  3  0  0  0
 25 49  1  0  0  0
 32 50  1  0  0  0
 33 51  1  0  0  0
 52 55  1  0  0  0
 52 56  1  0  0  0
 52 59  1  0  0  0
 53 55  1  0  0  0
 53 58  2  0  0  0
 54 55  1  0  0  0
 54 57  2  0  0  0
 55 60  1  0  0  0
 56 61  1  0  0  0
 56 62  1  0  0  0
 57 58  1  0  0  0
 57 63  1  0  0  0
 58 64  1  0  0  0
M  END
> <s_m_entry_id>
377

> <s_m_entry_name>
000000219.1

> <s_m_Source_Path>
/Users/zaksoul/Documents/3r_UNI/2nd_SEMESTER/BSC/FRAG_RECON/RESULTS/2

> <s_m_Source_File>
000000219.mol2

> <i_m_Source_File_Index>
1

$$$$
No_0_232
                    3D
 Schrodinger Suite 2022-4.
 64 70  0  0  1  0            999 V2000
   -5.3060    3.4630  -21.7070 C   0  0  0  0  0  0
   -5.5740    3.6850  -23.0370 C   0  0  0  0  0  0
   -4.0690    3.1880  -21.3760 C   0  0  0  0  0  0
   -3.1830    3.3530  -23.5410 C   0  0  0  0  0  0
   -3.0210    3.0750  -22.1270 C   0  0  0  0  0  0
   -4.5290    3.6430  -24.0520 C   0  0  0  0  0  0
   -3.7810    3.7060  -26.2520 C   0  0  0  0  0  0
    5.9560    2.7420  -21.0370 C   0  0  0  0  0  0
    5.8110    2.9430  -23.5820 C   0  0  0  0  0  0
   -4.7830    3.8040  -25.3830 C   0  0  0  0  0  0
    2.0320    3.5350  -23.5740 C   0  0  0  0  0  0
    1.2250    4.6450  -23.2470 C   0  0  0  0  0  0
    3.0390    5.8050  -22.5470 C   0  0  0  0  0  0
    3.4360    3.7020  -23.2620 C   0  0  0  0  0  0
    1.4710    2.4390  -24.2590 C   0  0  0  0  0  0
   -0.6460    3.2740  -24.1230 C   0  0  0  0  0  0
   -0.1040    4.4740  -23.4980 C   0  0  0  0  0  0
   -2.1000    3.3050  -24.4720 C   0  0  0  0  0  0
    4.0140    1.1920  -23.0280 C   0  0  0  0  0  0
    4.9470    0.7990  -21.8930 C   0  0  2  0  0  0
    6.5560    2.3340  -22.4000 C   0  0  2  0  0  0
    4.9440    1.7740  -20.7040 C   0  0  0  0  0  0
   -2.4280    3.5000  -25.8950 C   0  0  0  0  0  0
   -1.6800    2.6330  -21.5430 C   0  0  0  0  0  0
   -0.6510    2.2620  -21.0490 C   0  0  0  0  0  0
   -0.9320    5.5210  -23.1270 F   0  0  0  0  0  0
   -3.8570    2.9120  -20.0010 F   0  0  0  0  0  0
    1.7170    5.7870  -22.6910 N   0  0  0  0  0  0
    3.9240    4.8370  -22.7920 N   0  0  0  0  0  0
    0.1630    2.3710  -24.5620 N   0  0  0  0  0  0
    4.3410    2.6480  -23.4660 N   0  0  0  0  0  0
    6.3530    0.8610  -22.3790 N   0  0  1  0  0  0
   -3.9580    3.7540  -27.6400 O   0  0  0  0  0  0
   -6.1044    3.5192  -20.9759 H   0  0  0  0  0  0
   -6.5873    3.8989  -23.3573 H   0  0  0  0  0  0
    5.4957    3.7374  -21.1228 H   0  0  0  0  0  0
    6.7443    2.7259  -20.2699 H   0  0  0  0  0  0
    6.1967    2.5149  -24.5190 H   0  0  0  0  0  0
    5.9664    4.0319  -23.5911 H   0  0  0  0  0  0
   -5.7925    4.0077  -25.7212 H   0  0  0  0  0  0
    2.1003    1.6100  -24.5621 H   0  0  0  0  0  0
    2.9715    1.1395  -22.6808 H   0  0  0  0  0  0
    4.1653    0.5110  -23.8785 H   0  0  0  0  0  0
    4.7119   -0.2183  -21.5468 H   0  0  0  0  0  0
    7.6274    2.5794  -22.4444 H   0  0  0  0  0  0
    3.9662    2.2745  -20.6455 H   0  0  0  0  0  0
    5.2417    1.2362  -19.7918 H   0  0  0  0  0  0
   -1.6610    3.4890  -26.6610 H   0  0  0  0  0  0
    0.2542    1.9359  -20.6139 H   0  0  0  0  0  0
    6.9969    0.3401  -21.6859 H   0  0  0  0  0  0
   -3.1157    3.6659  -28.0705 H   0  0  0  0  0  0
    5.0590    7.2730  -22.4560 N   0  0  1  0  0  0
    4.8390    9.6670  -23.0020 N   0  0  0  0  0  0
    5.3540    9.1860  -20.9060 N   0  0  0  0  0  0
    5.6310    8.6480  -22.2630 C   0  0  0  0  0  0
    3.6150    7.1270  -22.0500 C   0  0  0  0  0  0
    4.5950   10.2170  -20.8880 C   0  0  0  0  0  0
    4.2590   10.5310  -22.2560 C   0  0  0  0  0  0
    5.1180    7.0009  -23.4995 H   0  0  0  0  0  0
    6.7006    8.6920  -22.5161 H   0  0  0  0  0  0
    3.0307    7.9604  -22.4672 H   0  0  0  0  0  0
    3.5370    7.1720  -20.9537 H   0  0  0  0  0  0
    4.3261   10.6789  -19.9392 H   0  0  0  0  0  0
    3.6474   11.3135  -22.7027 H   0  0  0  0  0  0
  1  2  2  0  0  0
  1  3  1  0  0  0
  1 34  1  0  0  0
  2  6  1  0  0  0
  2 35  1  0  0  0
  3  5  2  0  0  0
  3 27  1  0  0  0
  4  5  1  0  0  0
  4  6  2  0  0  0
  4 18  1  0  0  0
  5 24  1  0  0  0
  6 10  1  0  0  0
  7 10  2  0  0  0
  7 23  1  0  0  0
  7 33  1  0  0  0
  8 21  1  0  0  0
  8 22  1  0  0  0
  8 36  1  0  0  0
  8 37  1  0  0  0
  9 21  1  0  0  0
  9 31  1  0  0  0
  9 38  1  0  0  0
  9 39  1  0  0  0
 10 40  1  0  0  0
 11 12  1  0  0  0
 11 14  2  0  0  0
 11 15  1  0  0  0
 12 17  1  0  0  0
 12 28  2  0  0  0
 13 28  1  0  0  0
 13 29  2  0  0  0
 13 56  1  0  0  0
 14 29  1  0  0  0
 14 31  1  0  0  0
 15 30  2  0  0  0
 15 41  1  0  0  0
 16 17  2  0  0  0
 16 18  1  0  0  0
 16 30  1  0  0  0
 17 26  1  0  0  0
 18 23  2  0  0  0
 19 20  1  0  0  0
 19 31  1  0  0  0
 19 42  1  0  0  0
 19 43  1  0  0  0
 20 22  1  0  0  0
 20 32  1  0  0  0
 20 44  1  0  0  0
 21 32  1  0  0  0
 21 45  1  0  0  0
 22 46  1  0  0  0
 22 47  1  0  0  0
 23 48  1  0  0  0
 24 25  3  0  0  0
 25 49  1  0  0  0
 32 50  1  0  0  0
 33 51  1  0  0  0
 52 55  1  0  0  0
 52 56  1  0  0  0
 52 59  1  0  0  0
 53 55  1  0  0  0
 53 58  2  0  0  0
 54 55  1  0  0  0
 54 57  2  0  0  0
 55 60  1  0  0  0
 56 61  1  0  0  0
 56 62  1  0  0  0
 57 58  1  0  0  0
 57 63  1  0  0  0
 58 64  1  0  0  0
M  END
> <s_m_entry_id>
378

> <s_m_entry_name>
000000220.1

> <s_m_Source_Path>
/Users/zaksoul/Documents/3r_UNI/2nd_SEMESTER/BSC/FRAG_RECON/RESULTS/2

> <s_m_Source_File>
000000220.mol2

> <i_m_Source_File_Index>
1

$$$$
No_0_233
                    3D
 Schrodinger Suite 2022-4.
 74 80  0  0  1  0            999 V2000
   -5.4570    3.6130  -21.9130 C   0  0  0  0  0  0
   -5.7010    3.7970  -23.2530 C   0  0  0  0  0  0
   -4.2290    3.3370  -21.5530 C   0  0  0  0  0  0
   -3.3060    3.4270  -23.7070 C   0  0  0  0  0  0
   -3.1700    3.1910  -22.2830 C   0  0  0  0  0  0
   -4.6410    3.7140  -24.2490 C   0  0  0  0  0  0
   -3.8560    3.7030  -26.4360 C   0  0  0  0  0  0
    5.7840    2.8050  -21.0330 C   0  0  0  0  0  0
    5.6830    2.9300  -23.5850 C   0  0  0  0  0  0
   -4.8710    3.8370  -25.5880 C   0  0  0  0  0  0
    1.9110    3.5580  -23.6590 C   0  0  0  0  0  0
    1.1100    4.6860  -23.3790 C   0  0  0  0  0  0
    2.9230    5.8480  -22.6830 C   0  0  0  0  0  0
    3.3110    3.7210  -23.3280 C   0  0  0  0  0  0
    1.3500    2.4470  -24.3190 C   0  0  0  0  0  0
   -0.7610    3.3060  -24.2430 C   0  0  0  0  0  0
   -0.2170    4.5200  -23.6460 C   0  0  0  0  0  0
   -2.2090    3.3400  -24.6180 C   0  0  0  0  0  0
    3.8590    1.2140  -23.0090 C   0  0  0  0  0  0
    4.7700    0.8470  -21.8470 C   0  0  2  0  0  0
    6.4020    2.3500  -22.3730 C   0  0  2  0  0  0
    4.7570    1.8570  -20.6880 C   0  0  0  0  0  0
   -2.5110    3.4950  -26.0510 C   0  0  0  0  0  0
   -1.8430    2.7540  -21.6630 C   0  0  0  0  0  0
   -0.8270    2.3880  -21.1410 C   0  0  0  0  0  0
   -1.0410    5.5850  -23.3210 F   0  0  0  0  0  0
   -4.0430    3.1000  -20.1670 F   0  0  0  0  0  0
    1.6040    5.8380  -22.8490 N   0  0  0  0  0  0
    3.8020    4.8650  -22.8840 N   0  0  0  0  0  0
    0.0460    2.3830  -24.6410 N   0  0  0  0  0  0
    4.2090    2.6530  -23.4840 N   0  0  0  0  0  0
    6.1840    0.8810  -22.3110 N   0  0  1  0  0  0
   -4.0090    3.7110  -27.8280 O   0  0  0  0  0  0
   -6.2668    3.6993  -21.1975 H   0  0  0  0  0  0
   -6.7067    4.0108  -23.5963 H   0  0  0  0  0  0
    5.3356    3.8018  -21.1572 H   0  0  0  0  0  0
    6.5598    2.8040  -20.2532 H   0  0  0  0  0  0
    6.0797    2.4708  -24.5025 H   0  0  0  0  0  0
    5.8495    4.0166  -23.6243 H   0  0  0  0  0  0
   -5.8725    4.0407  -25.9493 H   0  0  0  0  0  0
    1.9754    1.6028  -24.5860 H   0  0  0  0  0  0
    2.8108    1.1817  -22.6771 H   0  0  0  0  0  0
    4.0173    0.5061  -23.8359 H   0  0  0  0  0  0
    4.5187   -0.1571  -21.4746 H   0  0  0  0  0  0
    7.4762    2.5842  -22.4073 H   0  0  0  0  0  0
    3.7837    2.3689  -20.6618 H   0  0  0  0  0  0
    5.0334    1.3445  -19.7548 H   0  0  0  0  0  0
   -1.7321    3.4538  -26.8038 H   0  0  0  0  0  0
    0.0675    2.0662  -20.6812 H   0  0  0  0  0  0
    6.8110    0.3749  -21.5919 H   0  0  0  0  0  0
   -3.1608    3.6021  -28.2417 H   0  0  0  0  0  0
    4.7470    6.9680  -21.3870 N   0  3  0  0  0  0
    5.6480    8.1600  -21.1480 C   0  0  0  0  0  0
    4.4920   10.2550  -21.7220 C   0  0  0  0  0  0
    5.5180    9.9800  -22.8350 C   0  0  0  0  0  0
    3.5050    7.1790  -22.2170 C   0  0  0  0  0  0
    6.2630    8.6810  -22.4650 C   0  0  0  0  0  0
    4.8950    9.3600  -20.5380 C   0  0  0  0  0  0
    6.7740    7.7160  -20.1900 C   0  0  0  0  0  0
    4.4869    6.5668  -20.4996 H   0  0  0  0  0  0
    5.2891    6.2188  -21.7881 H   0  0  0  0  0  0
    3.4888    9.9690  -22.0711 H   0  0  0  0  0  0
    4.5550   11.3109  -21.4200 H   0  0  0  0  0  0
    6.2359   10.8119  -22.8850 H   0  0  0  0  0  0
    4.9920    9.8410  -23.7910 H   0  0  0  0  0  0
    3.7499    7.7979  -23.0928 H   0  0  0  0  0  0
    2.7535    7.7183  -21.6216 H   0  0  0  0  0  0
    6.1139    7.9347  -23.2593 H   0  0  0  0  0  0
    7.3290    8.9030  -22.3090 H   0  0  0  0  0  0
    5.5721    9.9161  -19.8729 H   0  0  0  0  0  0
    3.9898    9.0019  -20.0259 H   0  0  0  0  0  0
    7.4467    8.5647  -19.9971 H   0  0  0  0  0  0
    6.3360    7.3730  -19.2410 H   0  0  0  0  0  0
    7.3430    6.8940  -20.6490 H   0  0  0  0  0  0
  1  2  2  0  0  0
  1  3  1  0  0  0
  1 34  1  0  0  0
  2  6  1  0  0  0
  2 35  1  0  0  0
  3  5  2  0  0  0
  3 27  1  0  0  0
  4  5  1  0  0  0
  4  6  2  0  0  0
  4 18  1  0  0  0
  5 24  1  0  0  0
  6 10  1  0  0  0
  7 10  2  0  0  0
  7 23  1  0  0  0
  7 33  1  0  0  0
  8 21  1  0  0  0
  8 22  1  0  0  0
  8 36  1  0  0  0
  8 37  1  0  0  0
  9 21  1  0  0  0
  9 31  1  0  0  0
  9 38  1  0  0  0
  9 39  1  0  0  0
 10 40  1  0  0  0
 11 12  1  0  0  0
 11 14  2  0  0  0
 11 15  1  0  0  0
 12 17  1  0  0  0
 12 28  2  0  0  0
 13 28  1  0  0  0
 13 29  2  0  0  0
 13 56  1  0  0  0
 14 29  1  0  0  0
 14 31  1  0  0  0
 15 30  2  0  0  0
 15 41  1  0  0  0
 16 17  2  0  0  0
 16 18  1  0  0  0
 16 30  1  0  0  0
 17 26  1  0  0  0
 18 23  2  0  0  0
 19 20  1  0  0  0
 19 31  1  0  0  0
 19 42  1  0  0  0
 19 43  1  0  0  0
 20 22  1  0  0  0
 20 32  1  0  0  0
 20 44  1  0  0  0
 21 32  1  0  0  0
 21 45  1  0  0  0
 22 46  1  0  0  0
 22 47  1  0  0  0
 23 48  1  0  0  0
 24 25  3  0  0  0
 25 49  1  0  0  0
 32 50  1  0  0  0
 33 51  1  0  0  0
 52 53  1  0  0  0
 52 56  1  0  0  0
 52 60  1  0  0  0
 52 61  1  0  0  0
 53 57  1  0  0  0
 53 58  1  0  0  0
 53 59  1  0  0  0
 54 55  1  0  0  0
 54 58  1  0  0  0
 54 62  1  0  0  0
 54 63  1  0  0  0
 55 57  1  0  0  0
 55 64  1  0  0  0
 55 65  1  0  0  0
 56 66  1  0  0  0
 56 67  1  0  0  0
 57 68  1  0  0  0
 57 69  1  0  0  0
 58 70  1  0  0  0
 58 71  1  0  0  0
 59 72  1  0  0  0
 59 73  1  0  0  0
 59 74  1  0  0  0
M  CHG  1  52   1
M  END
> <s_m_entry_id>
379

> <s_m_entry_name>
000000221.1

> <s_m_Source_Path>
/Users/zaksoul/Documents/3r_UNI/2nd_SEMESTER/BSC/FRAG_RECON/RESULTS/2

> <s_m_Source_File>
000000221.mol2

> <i_m_Source_File_Index>
1

$$$$
No_0_234
                    3D
 Schrodinger Suite 2022-4.
 74 80  0  0  1  0            999 V2000
   -5.3910    3.3410  -22.1670 C   0  0  0  0  0  0
   -5.6460    3.5550  -23.5010 C   0  0  0  0  0  0
   -4.1550    3.0820  -21.8200 C   0  0  0  0  0  0
   -3.2460    3.2500  -23.9750 C   0  0  0  0  0  0
   -3.0970    2.9780  -22.5580 C   0  0  0  0  0  0
   -4.5890    3.5220  -24.5030 C   0  0  0  0  0  0
   -3.8150    3.5860  -26.6940 C   0  0  0  0  0  0
    5.8690    2.7540  -21.3600 C   0  0  0  0  0  0
    5.7520    2.9460  -23.9080 C   0  0  0  0  0  0
   -4.8290    3.6750  -25.8380 C   0  0  0  0  0  0
    1.9680    3.4920  -23.9470 C   0  0  0  0  0  0
    1.1430    4.5950  -23.6340 C   0  0  0  0  0  0
    2.9350    5.7780  -22.9160 C   0  0  0  0  0  0
    3.3650    3.6780  -23.6180 C   0  0  0  0  0  0
    1.4270    2.3880  -24.6340 C   0  0  0  0  0  0
   -0.7010    3.1980  -24.5260 C   0  0  0  0  0  0
   -0.1800    4.4070  -23.8990 C   0  0  0  0  0  0
   -2.1510    3.2100  -24.8930 C   0  0  0  0  0  0
    3.9690    1.1750  -23.3690 C   0  0  0  0  0  0
    4.8940    0.7970  -22.2210 C   0  0  2  0  0  0
    6.4900    2.3490  -22.7150 C   0  0  2  0  0  0
    4.8650    1.7760  -21.0360 C   0  0  0  0  0  0
   -2.4640    3.3970  -26.3200 C   0  0  0  0  0  0
   -1.7580    2.5540  -21.9570 C   0  0  0  0  0  0
   -0.7310    2.1970  -21.4490 C   0  0  0  0  0  0
   -1.0250    5.4450  -23.5420 F   0  0  0  0  0  0
   -3.9570    2.8130  -20.4410 F   0  0  0  0  0  0
    1.6150    5.7430  -23.0760 N   0  0  0  0  0  0
    3.8340    4.8200  -23.1470 N   0  0  0  0  0  0
    0.1240    2.3040  -24.9520 N   0  0  0  0  0  0
    4.2850    2.6340  -23.8080 N   0  0  0  0  0  0
    6.3040    0.8740  -22.6910 N   0  0  1  0  0  0
   -3.9760    3.6270  -28.0840 O   0  0  0  0  0  0
   -6.1991    3.3902  -21.4462 H   0  0  0  0  0  0
   -6.6581    3.7558  -23.8333 H   0  0  0  0  0  0
    5.3988    3.7439  -21.4549 H   0  0  0  0  0  0
    6.6493    2.7500  -20.5847 H   0  0  0  0  0  0
    6.1546    2.5191  -24.8384 H   0  0  0  0  0  0
    5.8954    4.0366  -23.9191 H   0  0  0  0  0  0
   -5.8369    3.8657  -26.1884 H   0  0  0  0  0  0
    2.0693    1.5651  -24.9260 H   0  0  0  0  0  0
    2.9232    1.1114  -23.0339 H   0  0  0  0  0  0
    4.1395    0.4932  -24.2152 H   0  0  0  0  0  0
    4.6668   -0.2220  -21.8746 H   0  0  0  0  0  0
    7.5587    2.6074  -22.7473 H   0  0  0  0  0  0
    3.8810    2.2655  -20.9906 H   0  0  0  0  0  0
    5.1576    1.2453  -20.1180 H   0  0  0  0  0  0
   -1.6880    3.3920  -27.0769 H   0  0  0  0  0  0
    0.1728    1.8831  -21.0021 H   0  0  0  0  0  0
    6.9463    0.3632  -21.9889 H   0  0  0  0  0  0
   -3.1279    3.5478  -28.5046 H   0  0  0  0  0  0
    4.1990   10.2200  -20.7220 O   0  0  0  0  0  0
    4.7400    6.8930  -21.6000 N   0  0  1  0  0  0
    3.6050    8.4510  -19.4470 N   0  0  0  0  0  0
    5.3830    8.1280  -21.0060 C   0  0  0  0  0  0
    7.7110    7.3770  -20.7570 C   0  0  0  0  0  0
    7.6210    8.1840  -22.0650 C   0  0  0  0  0  0
    3.4900    7.1080  -22.4170 C   0  0  0  0  0  0
    6.2420    8.8720  -22.0520 C   0  0  0  0  0  0
    6.4480    7.7400  -19.9600 C   0  0  0  0  0  0
    4.3460    9.0530  -20.3900 C   0  0  0  0  0  0
    5.4412    6.4029  -22.2592 H   0  0  0  0  0  0
    3.7721    7.4923  -19.2168 H   0  0  0  0  0  0
    2.8868    8.9621  -18.9749 H   0  0  0  0  0  0
    8.6014    7.6931  -20.1938 H   0  0  0  0  0  0
    7.7000    6.3020  -20.9900 H   0  0  0  0  0  0
    7.6790    7.4980  -22.9230 H   0  0  0  0  0  0
    8.4112    8.9492  -22.0780 H   0  0  0  0  0  0
    3.7210    7.7539  -23.2769 H   0  0  0  0  0  0
    2.7317    7.6132  -21.8008 H   0  0  0  0  0  0
    6.3609    9.9225  -21.7481 H   0  0  0  0  0  0
    5.7761    8.7760  -23.0438 H   0  0  0  0  0  0
    6.1041    6.8584  -19.3992 H   0  0  0  0  0  0
    6.6591    8.6054  -19.3147 H   0  0  0  0  0  0
  1  2  2  0  0  0
  1  3  1  0  0  0
  1 34  1  0  0  0
  2  6  1  0  0  0
  2 35  1  0  0  0
  3  5  2  0  0  0
  3 27  1  0  0  0
  4  5  1  0  0  0
  4  6  2  0  0  0
  4 18  1  0  0  0
  5 24  1  0  0  0
  6 10  1  0  0  0
  7 10  2  0  0  0
  7 23  1  0  0  0
  7 33  1  0  0  0
  8 21  1  0  0  0
  8 22  1  0  0  0
  8 36  1  0  0  0
  8 37  1  0  0  0
  9 21  1  0  0  0
  9 31  1  0  0  0
  9 38  1  0  0  0
  9 39  1  0  0  0
 10 40  1  0  0  0
 11 12  1  0  0  0
 11 14  2  0  0  0
 11 15  1  0  0  0
 12 17  1  0  0  0
 12 28  2  0  0  0
 13 28  1  0  0  0
 13 29  2  0  0  0
 13 58  1  0  0  0
 14 29  1  0  0  0
 14 31  1  0  0  0
 15 30  2  0  0  0
 15 41  1  0  0  0
 16 17  2  0  0  0
 16 18  1  0  0  0
 16 30  1  0  0  0
 17 26  1  0  0  0
 18 23  2  0  0  0
 19 20  1  0  0  0
 19 31  1  0  0  0
 19 42  1  0  0  0
 19 43  1  0  0  0
 20 22  1  0  0  0
 20 32  1  0  0  0
 20 44  1  0  0  0
 21 32  1  0  0  0
 21 45  1  0  0  0
 22 46  1  0  0  0
 22 47  1  0  0  0
 23 48  1  0  0  0
 24 25  3  0  0  0
 25 49  1  0  0  0
 32 50  1  0  0  0
 33 51  1  0  0  0
 52 61  2  0  0  0
 53 55  1  0  0  0
 53 58  1  0  0  0
 53 62  1  0  0  0
 54 61  1  0  0  0
 54 63  1  0  0  0
 54 64  1  0  0  0
 55 59  1  0  0  0
 55 60  1  0  0  0
 55 61  1  0  0  0
 56 57  1  0  0  0
 56 60  1  0  0  0
 56 65  1  0  0  0
 56 66  1  0  0  0
 57 59  1  0  0  0
 57 67  1  0  0  0
 57 68  1  0  0  0
 58 69  1  0  0  0
 58 70  1  0  0  0
 59 71  1  0  0  0
 59 72  1  0  0  0
 60 73  1  0  0  0
 60 74  1  0  0  0
M  END
> <s_m_entry_id>
380

> <s_m_entry_name>
000000222.1

> <s_m_Source_Path>
/Users/zaksoul/Documents/3r_UNI/2nd_SEMESTER/BSC/FRAG_RECON/RESULTS/2

> <s_m_Source_File>
000000222.mol2

> <i_m_Source_File_Index>
1

$$$$
No_0_235
                    3D
 Schrodinger Suite 2022-4.
 74 80  0  0  1  0            999 V2000
   -5.4080    3.3580  -21.9000 C   0  0  0  0  0  0
   -5.6630    3.5370  -23.2390 C   0  0  0  0  0  0
   -4.1740    3.1040  -21.5470 C   0  0  0  0  0  0
   -3.2640    3.2110  -23.7060 C   0  0  0  0  0  0
   -3.1160    2.9770  -22.2820 C   0  0  0  0  0  0
   -4.6060    3.4740  -24.2400 C   0  0  0  0  0  0
   -3.8320    3.4760  -26.4320 C   0  0  0  0  0  0
    5.8500    2.7570  -21.0790 C   0  0  0  0  0  0
    5.7330    2.8800  -23.6310 C   0  0  0  0  0  0
   -4.8460    3.5910  -25.5790 C   0  0  0  0  0  0
    1.9500    3.4380  -23.6840 C   0  0  0  0  0  0
    1.1300    4.5510  -23.4000 C   0  0  0  0  0  0
    2.9250    5.7470  -22.7140 C   0  0  0  0  0  0
    3.3490    3.6270  -23.3610 C   0  0  0  0  0  0
    1.4070    2.3170  -24.3410 C   0  0  0  0  0  0
   -0.7190    3.1370  -24.2550 C   0  0  0  0  0  0
   -0.1940    4.3600  -23.6610 C   0  0  0  0  0  0
   -2.1690    3.1440  -24.6220 C   0  0  0  0  0  0
    3.9450    1.1300  -23.0440 C   0  0  0  0  0  0
    4.8680    0.7810  -21.8870 C   0  0  2  0  0  0
    6.4690    2.3130  -22.4220 C   0  0  2  0  0  0
    4.8430    1.7910  -20.7280 C   0  0  0  0  0  0
   -2.4820    3.2930  -26.0530 C   0  0  0  0  0  0
   -1.7780    2.5650  -21.6690 C   0  0  0  0  0  0
   -0.7520    2.2190  -21.1520 C   0  0  0  0  0  0
   -1.0360    5.4100  -23.3310 F   0  0  0  0  0  0
   -3.9750    2.8720  -20.1610 F   0  0  0  0  0  0
    1.6060    5.7130  -22.8740 N   0  0  0  0  0  0
    3.8210    4.7800  -22.9200 N   0  0  0  0  0  0
    0.1030    2.2290  -24.6570 N   0  0  0  0  0  0
    4.2650    2.5760  -23.5220 N   0  0  0  0  0  0
    6.2790    0.8410  -22.3580 N   0  0  1  0  0  0
   -3.9940    3.4810  -27.8230 O   0  0  0  0  0  0
   -6.2158    3.4282  -21.1805 H   0  0  0  0  0  0
   -6.6742    3.7318  -23.5774 H   0  0  0  0  0  0
    5.3826    3.7454  -21.2001 H   0  0  0  0  0  0
    6.6298    2.7711  -20.3033 H   0  0  0  0  0  0
    6.1348    2.4277  -24.5497 H   0  0  0  0  0  0
    5.8793    3.9695  -23.6703 H   0  0  0  0  0  0
   -5.8531    3.7768  -25.9344 H   0  0  0  0  0  0
    2.0454    1.4839  -24.6120 H   0  0  0  0  0  0
    2.8992    1.0795  -22.7068 H   0  0  0  0  0  0
    4.1125    0.4258  -23.8723 H   0  0  0  0  0  0
    4.6380   -0.2278  -21.5137 H   0  0  0  0  0  0
    7.5385    2.5673  -22.4613 H   0  0  0  0  0  0
    3.8603    2.2843  -20.6967 H   0  0  0  0  0  0
    5.1337    1.2833  -19.7964 H   0  0  0  0  0  0
   -1.7063    3.2659  -26.8097 H   0  0  0  0  0  0
    0.1509    1.9140  -20.6971 H   0  0  0  0  0  0
    6.9193    0.3461  -21.6429 H   0  0  0  0  0  0
   -3.1457    3.3871  -28.2402 H   0  0  0  0  0  0
    4.3420   10.1450  -20.5240 O   0  0  0  0  0  0
    4.9010    6.9340  -21.7550 N   0  0  1  0  0  0
    4.1840    8.2590  -19.2890 N   0  0  0  0  0  0
    5.5750    8.1830  -21.2270 C   0  0  0  0  0  0
    7.9440    7.6220  -21.5650 C   0  0  0  0  0  0
    7.4990    8.4940  -22.7530 C   0  0  0  0  0  0
    3.4850    7.0880  -22.2520 C   0  0  0  0  0  0
    6.1160    9.0590  -22.3780 C   0  0  0  0  0  0
    6.8760    7.8270  -20.4800 C   0  0  0  0  0  0
    4.6440    8.9770  -20.3240 C   0  0  0  0  0  0
    5.4644    6.5457  -22.5906 H   0  0  0  0  0  0
    4.4660    7.3061  -19.1770 H   0  0  0  0  0  0
    3.5586    8.6763  -18.6296 H   0  0  0  0  0  0
    8.9155    7.9798  -21.1932 H   0  0  0  0  0  0
    7.9560    6.5658  -21.8721 H   0  0  0  0  0  0
    7.4071    7.8674  -23.6524 H   0  0  0  0  0  0
    8.2095    9.3235  -22.8839 H   0  0  0  0  0  0
    3.4660    7.8012  -23.0892 H   0  0  0  0  0  0
    2.8545    7.4887  -21.4446 H   0  0  0  0  0  0
    6.2260   10.0960  -22.0280 H   0  0  0  0  0  0
    5.4421    8.9810  -23.2439 H   0  0  0  0  0  0
    6.7331    6.8874  -19.9262 H   0  0  0  0  0  0
    7.1681    8.6672  -19.8329 H   0  0  0  0  0  0
  1  2  2  0  0  0
  1  3  1  0  0  0
  1 34  1  0  0  0
  2  6  1  0  0  0
  2 35  1  0  0  0
  3  5  2  0  0  0
  3 27  1  0  0  0
  4  5  1  0  0  0
  4  6  2  0  0  0
  4 18  1  0  0  0
  5 24  1  0  0  0
  6 10  1  0  0  0
  7 10  2  0  0  0
  7 23  1  0  0  0
  7 33  1  0  0  0
  8 21  1  0  0  0
  8 22  1  0  0  0
  8 36  1  0  0  0
  8 37  1  0  0  0
  9 21  1  0  0  0
  9 31  1  0  0  0
  9 38  1  0  0  0
  9 39  1  0  0  0
 10 40  1  0  0  0
 11 12  1  0  0  0
 11 14  2  0  0  0
 11 15  1  0  0  0
 12 17  1  0  0  0
 12 28  2  0  0  0
 13 28  1  0  0  0
 13 29  2  0  0  0
 13 58  1  0  0  0
 14 29  1  0  0  0
 14 31  1  0  0  0
 15 30  2  0  0  0
 15 41  1  0  0  0
 16 17  2  0  0  0
 16 18  1  0  0  0
 16 30  1  0  0  0
 17 26  1  0  0  0
 18 23  2  0  0  0
 19 20  1  0  0  0
 19 31  1  0  0  0
 19 42  1  0  0  0
 19 43  1  0  0  0
 20 22  1  0  0  0
 20 32  1  0  0  0
 20 44  1  0  0  0
 21 32  1  0  0  0
 21 45  1  0  0  0
 22 46  1  0  0  0
 22 47  1  0  0  0
 23 48  1  0  0  0
 24 25  3  0  0  0
 25 49  1  0  0  0
 32 50  1  0  0  0
 33 51  1  0  0  0
 52 61  2  0  0  0
 53 55  1  0  0  0
 53 58  1  0  0  0
 53 62  1  0  0  0
 54 61  1  0  0  0
 54 63  1  0  0  0
 54 64  1  0  0  0
 55 59  1  0  0  0
 55 60  1  0  0  0
 55 61  1  0  0  0
 56 57  1  0  0  0
 56 60  1  0  0  0
 56 65  1  0  0  0
 56 66  1  0  0  0
 57 59  1  0  0  0
 57 67  1  0  0  0
 57 68  1  0  0  0
 58 69  1  0  0  0
 58 70  1  0  0  0
 59 71  1  0  0  0
 59 72  1  0  0  0
 60 73  1  0  0  0
 60 74  1  0  0  0
M  END
> <s_m_entry_id>
381

> <s_m_entry_name>
000000223.1

> <s_m_Source_Path>
/Users/zaksoul/Documents/3r_UNI/2nd_SEMESTER/BSC/FRAG_RECON/RESULTS/2

> <s_m_Source_File>
000000223.mol2

> <i_m_Source_File_Index>
1

$$$$
No_0_236
                    3D
 Schrodinger Suite 2022-4.
 74 80  0  0  1  0            999 V2000
   -5.4080    3.4180  -21.8460 C   0  0  0  0  0  0
   -5.6800    3.6140  -23.1800 C   0  0  0  0  0  0
   -4.1700    3.1590  -21.5120 C   0  0  0  0  0  0
   -3.2870    3.2930  -23.6810 C   0  0  0  0  0  0
   -3.1210    3.0410  -22.2620 C   0  0  0  0  0  0
   -4.6360    3.5620  -24.1950 C   0  0  0  0  0  0
   -3.8900    3.5930  -26.3960 C   0  0  0  0  0  0
    5.8590    2.8010  -21.1750 C   0  0  0  0  0  0
    5.7100    2.9560  -23.7240 C   0  0  0  0  0  0
   -4.8920    3.6970  -25.5280 C   0  0  0  0  0  0
    1.9270    3.5160  -23.7220 C   0  0  0  0  0  0
    1.1110    4.6260  -23.4140 C   0  0  0  0  0  0
    2.9160    5.8130  -22.7360 C   0  0  0  0  0  0
    3.3290    3.7010  -23.4140 C   0  0  0  0  0  0
    1.3740    2.4040  -24.3860 C   0  0  0  0  0  0
   -0.7500    3.2240  -24.2630 C   0  0  0  0  0  0
   -0.2170    4.4400  -23.6600 C   0  0  0  0  0  0
   -2.2040    3.2370  -24.6110 C   0  0  0  0  0  0
    3.9280    1.2000  -23.1370 C   0  0  0  0  0  0
    4.8650    0.8350  -21.9960 C   0  0  2  0  0  0
    6.4610    2.3740  -22.5320 C   0  0  2  0  0  0
    4.8560    1.8310  -20.8240 C   0  0  0  0  0  0
   -2.5350    3.4040  -26.0370 C   0  0  0  0  0  0
   -1.7760    2.6200  -21.6710 C   0  0  0  0  0  0
   -0.7440    2.2670  -21.1710 C   0  0  0  0  0  0
   -1.0540    5.4860  -23.3070 F   0  0  0  0  0  0
   -3.9540    2.9090  -20.1320 F   0  0  0  0  0  0
    1.5940    5.7810  -22.8790 N   0  0  0  0  0  0
    3.8080    4.8480  -22.9650 N   0  0  0  0  0  0
    0.0660    2.3210  -24.6870 N   0  0  0  0  0  0
    4.2430    2.6510  -23.6000 N   0  0  0  0  0  0
    6.2700    0.9000  -22.4840 N   0  0  1  0  0  0
   -4.0690    3.6150  -27.7850 O   0  0  0  0  0  0
   -6.2071    3.4802  -21.1162 H   0  0  0  0  0  0
   -6.6955    3.8139  -23.5024 H   0  0  0  0  0  0
    5.3907    3.7910  -21.2779 H   0  0  0  0  0  0
    6.6483    2.8050  -20.4089 H   0  0  0  0  0  0
    6.0986    2.5149  -24.6537 H   0  0  0  0  0  0
    5.8563    4.0459  -23.7512 H   0  0  0  0  0  0
   -5.9031    3.8876  -25.8691 H   0  0  0  0  0  0
    2.0095    1.5748  -24.6751 H   0  0  0  0  0  0
    2.8866    1.1455  -22.7869 H   0  0  0  0  0  0
    4.0844    0.5056  -23.9757 H   0  0  0  0  0  0
    4.6388   -0.1779  -21.6314 H   0  0  0  0  0  0
    7.5303    2.6274  -22.5815 H   0  0  0  0  0  0
    3.8742    2.3244  -20.7735 H   0  0  0  0  0  0
    5.1577    1.3113  -19.9027 H   0  0  0  0  0  0
   -1.7686    3.3859  -26.8034 H   0  0  0  0  0  0
    0.1642    1.9549  -20.7319 H   0  0  0  0  0  0
    6.9192    0.3973  -21.7824 H   0  0  0  0  0  0
   -3.2262    3.5260  -28.2143 H   0  0  0  0  0  0
    4.5320   10.0850  -20.4390 O   0  0  0  0  0  0
    4.9830    7.0760  -22.1350 N   0  0  1  0  0  0
    4.8040    8.0810  -19.4310 N   0  0  0  0  0  0
    5.6820    8.3240  -21.6370 C   0  0  0  0  0  0
    7.9290    8.0190  -22.5860 C   0  0  0  0  0  0
    7.1520    8.9590  -23.5260 C   0  0  0  0  0  0
    3.4820    7.1480  -22.2630 C   0  0  0  0  0  0
    5.8680    9.3540  -22.7720 C   0  0  0  0  0  0
    7.1460    8.0170  -21.2630 C   0  0  0  0  0  0
    4.9490    8.9360  -20.4540 C   0  0  0  0  0  0
    5.3501    6.8250  -23.1192 H   0  0  0  0  0  0
    5.1662    7.1515  -19.5010 H   0  0  0  0  0  0
    4.3319    8.3720  -18.5989 H   0  0  0  0  0  0
    8.9363    8.4257  -22.4131 H   0  0  0  0  0  0
    7.9350    7.0032  -23.0079 H   0  0  0  0  0  0
    6.8850    8.4169  -24.4451 H   0  0  0  0  0  0
    7.7532    9.8593  -23.7211 H   0  0  0  0  0  0
    3.2130    7.9350  -22.9830 H   0  0  0  0  0  0
    3.0419    7.4071  -21.2887 H   0  0  0  0  0  0
    5.9920   10.3576  -22.3392 H   0  0  0  0  0  0
    5.0103    9.3010  -23.4587 H   0  0  0  0  0  0
    7.2050    7.0181  -20.8061 H   0  0  0  0  0  0
    7.5313    8.8136  -20.6095 H   0  0  0  0  0  0
  1  2  2  0  0  0
  1  3  1  0  0  0
  1 34  1  0  0  0
  2  6  1  0  0  0
  2 35  1  0  0  0
  3  5  2  0  0  0
  3 27  1  0  0  0
  4  5  1  0  0  0
  4  6  2  0  0  0
  4 18  1  0  0  0
  5 24  1  0  0  0
  6 10  1  0  0  0
  7 10  2  0  0  0
  7 23  1  0  0  0
  7 33  1  0  0  0
  8 21  1  0  0  0
  8 22  1  0  0  0
  8 36  1  0  0  0
  8 37  1  0  0  0
  9 21  1  0  0  0
  9 31  1  0  0  0
  9 38  1  0  0  0
  9 39  1  0  0  0
 10 40  1  0  0  0
 11 12  1  0  0  0
 11 14  2  0  0  0
 11 15  1  0  0  0
 12 17  1  0  0  0
 12 28  2  0  0  0
 13 28  1  0  0  0
 13 29  2  0  0  0
 13 58  1  0  0  0
 14 29  1  0  0  0
 14 31  1  0  0  0
 15 30  2  0  0  0
 15 41  1  0  0  0
 16 17  2  0  0  0
 16 18  1  0  0  0
 16 30  1  0  0  0
 17 26  1  0  0  0
 18 23  2  0  0  0
 19 20  1  0  0  0
 19 31  1  0  0  0
 19 42  1  0  0  0
 19 43  1  0  0  0
 20 22  1  0  0  0
 20 32  1  0  0  0
 20 44  1  0  0  0
 21 32  1  0  0  0
 21 45  1  0  0  0
 22 46  1  0  0  0
 22 47  1  0  0  0
 23 48  1  0  0  0
 24 25  3  0  0  0
 25 49  1  0  0  0
 32 50  1  0  0  0
 33 51  1  0  0  0
 52 61  2  0  0  0
 53 55  1  0  0  0
 53 58  1  0  0  0
 53 62  1  0  0  0
 54 61  1  0  0  0
 54 63  1  0  0  0
 54 64  1  0  0  0
 55 59  1  0  0  0
 55 60  1  0  0  0
 55 61  1  0  0  0
 56 57  1  0  0  0
 56 60  1  0  0  0
 56 65  1  0  0  0
 56 66  1  0  0  0
 57 59  1  0  0  0
 57 67  1  0  0  0
 57 68  1  0  0  0
 58 69  1  0  0  0
 58 70  1  0  0  0
 59 71  1  0  0  0
 59 72  1  0  0  0
 60 73  1  0  0  0
 60 74  1  0  0  0
M  END
> <s_m_entry_id>
382

> <s_m_entry_name>
000000224.1

> <s_m_Source_Path>
/Users/zaksoul/Documents/3r_UNI/2nd_SEMESTER/BSC/FRAG_RECON/RESULTS/2

> <s_m_Source_File>
000000224.mol2

> <i_m_Source_File_Index>
1

$$$$
No_0_237
                    3D
 Schrodinger Suite 2022-4.
 72 78  0  0  1  0            999 V2000
   -5.4690    3.3430  -21.9170 C   0  0  0  0  0  0
   -5.7100    3.5630  -23.2530 C   0  0  0  0  0  0
   -4.2390    3.0710  -21.5610 C   0  0  0  0  0  0
   -3.3100    3.2340  -23.7090 C   0  0  0  0  0  0
   -3.1750    2.9580  -22.2910 C   0  0  0  0  0  0
   -4.6460    3.5210  -24.2460 C   0  0  0  0  0  0
   -3.8540    3.5810  -26.4310 C   0  0  0  0  0  0
    5.7780    2.6400  -21.0210 C   0  0  0  0  0  0
    5.6840    2.8380  -23.5680 C   0  0  0  0  0  0
   -4.8730    3.6790  -25.5830 C   0  0  0  0  0  0
    1.9050    3.4230  -23.6370 C   0  0  0  0  0  0
    1.0900    4.5330  -23.3280 C   0  0  0  0  0  0
    2.8880    5.6970  -22.5930 C   0  0  0  0  0  0
    3.3020    3.5940  -23.2970 C   0  0  0  0  0  0
    1.3600    2.3260  -24.3310 C   0  0  0  0  0  0
   -0.7610    3.1580  -24.2390 C   0  0  0  0  0  0
   -0.2330    4.3600  -23.6050 C   0  0  0  0  0  0
   -2.2080    3.1850  -24.6170 C   0  0  0  0  0  0
    3.8790    1.0840  -23.0480 C   0  0  0  0  0  0
    4.7890    0.6950  -21.8940 C   0  0  2  0  0  0
    6.4060    2.2310  -22.3710 C   0  0  2  0  0  0
    4.7610    1.6720  -20.7060 C   0  0  0  0  0  0
   -2.5080    3.3780  -26.0460 C   0  0  0  0  0  0
   -1.8450    2.5190  -21.6790 C   0  0  0  0  0  0
   -0.8270    2.1500  -21.1640 C   0  0  0  0  0  0
   -1.0710    5.4050  -23.2520 F   0  0  0  0  0  0
   -4.0540    2.7970  -20.1810 F   0  0  0  0  0  0
    1.5690    5.6760  -22.7640 N   0  0  0  0  0  0
    3.7780    4.7300  -22.8190 N   0  0  0  0  0  0
    0.0580    2.2560  -24.6600 N   0  0  0  0  0  0
    4.2130    2.5410  -23.4810 N   0  0  0  0  0  0
    6.2050    0.7590  -22.3510 N   0  0  1  0  0  0
   -4.0030    3.6270  -27.8230 O   0  0  0  0  0  0
   -6.2826    3.3992  -21.2029 H   0  0  0  0  0  0
   -6.7173    3.7747  -23.5931 H   0  0  0  0  0  0
    5.3189    3.6350  -21.1169 H   0  0  0  0  0  0
    6.5507    2.6269  -20.2382 H   0  0  0  0  0  0
    6.0896    2.4092  -24.4962 H   0  0  0  0  0  0
    5.8374    3.9272  -23.5761 H   0  0  0  0  0  0
   -5.8759    3.8808  -25.9414 H   0  0  0  0  0  0
    1.9955    1.4968  -24.6201 H   0  0  0  0  0  0
    2.8300    1.0305  -22.7212 H   0  0  0  0  0  0
    4.0486    0.4027  -23.8948 H   0  0  0  0  0  0
    4.5498   -0.3224  -21.5508 H   0  0  0  0  0  0
    7.4776    2.4782  -22.3942 H   0  0  0  0  0  0
    3.7818    2.1717  -20.6686 H   0  0  0  0  0  0
    5.0415    1.1352  -19.7878 H   0  0  0  0  0  0
   -1.7261    3.3670  -26.7967 H   0  0  0  0  0  0
    0.0698    1.8261  -20.7101 H   0  0  0  0  0  0
    6.8355    0.2396  -21.6446 H   0  0  0  0  0  0
   -3.1518    3.5399  -28.2357 H   0  0  0  0  0  0
    4.9530    6.9230  -21.9320 N   0  3  0  0  0  0
    5.7150    8.1350  -21.4410 C   0  0  0  0  0  0
    3.4520    7.0200  -22.0870 C   0  0  0  0  0  0
    4.7010   10.2720  -21.5720 C   0  0  0  0  0  0
    4.5390    9.8690  -20.3360 C   0  0  0  0  0  0
    5.2290    8.5680  -20.0330 C   0  0  0  0  0  0
    5.5380    9.3400  -22.4020 C   0  0  0  0  0  0
    7.2110    7.7710  -21.3630 C   0  0  0  0  0  0
    5.1730    6.1351  -21.3431 H   0  0  0  0  0  0
    5.3548    6.6121  -22.8026 H   0  0  0  0  0  0
    3.2079    7.8193  -22.8022 H   0  0  0  0  0  0
    2.9981    7.2640  -21.1152 H   0  0  0  0  0  0
    4.2461   11.2038  -21.9049 H   0  0  0  0  0  0
    3.9481   10.4649  -19.6421 H   0  0  0  0  0  0
    6.1021    8.7630  -19.3929 H   0  0  0  0  0  0
    4.4873    7.8423  -19.6681 H   0  0  0  0  0  0
    4.9591    9.0200  -23.2809 H   0  0  0  0  0  0
    6.5188    9.8029  -22.5860 H   0  0  0  0  0  0
    7.7822    8.6414  -21.0078 H   0  0  0  0  0  0
    7.3480    6.9320  -20.6650 H   0  0  0  0  0  0
    7.5701    7.4799  -22.3612 H   0  0  0  0  0  0
  1  2  2  0  0  0
  1  3  1  0  0  0
  1 34  1  0  0  0
  2  6  1  0  0  0
  2 35  1  0  0  0
  3  5  2  0  0  0
  3 27  1  0  0  0
  4  5  1  0  0  0
  4  6  2  0  0  0
  4 18  1  0  0  0
  5 24  1  0  0  0
  6 10  1  0  0  0
  7 10  2  0  0  0
  7 23  1  0  0  0
  7 33  1  0  0  0
  8 21  1  0  0  0
  8 22  1  0  0  0
  8 36  1  0  0  0
  8 37  1  0  0  0
  9 21  1  0  0  0
  9 31  1  0  0  0
  9 38  1  0  0  0
  9 39  1  0  0  0
 10 40  1  0  0  0
 11 12  1  0  0  0
 11 14  2  0  0  0
 11 15  1  0  0  0
 12 17  1  0  0  0
 12 28  2  0  0  0
 13 28  1  0  0  0
 13 29  2  0  0  0
 13 54  1  0  0  0
 14 29  1  0  0  0
 14 31  1  0  0  0
 15 30  2  0  0  0
 15 41  1  0  0  0
 16 17  2  0  0  0
 16 18  1  0  0  0
 16 30  1  0  0  0
 17 26  1  0  0  0
 18 23  2  0  0  0
 19 20  1  0  0  0
 19 31  1  0  0  0
 19 42  1  0  0  0
 19 43  1  0  0  0
 20 22  1  0  0  0
 20 32  1  0  0  0
 20 44  1  0  0  0
 21 32  1  0  0  0
 21 45  1  0  0  0
 22 46  1  0  0  0
 22 47  1  0  0  0
 23 48  1  0  0  0
 24 25  3  0  0  0
 25 49  1  0  0  0
 32 50  1  0  0  0
 33 51  1  0  0  0
 52 53  1  0  0  0
 52 54  1  0  0  0
 52 60  1  0  0  0
 52 61  1  0  0  0
 53 57  1  0  0  0
 53 58  1  0  0  0
 53 59  1  0  0  0
 54 62  1  0  0  0
 54 63  1  0  0  0
 55 56  2  0  0  0
 55 58  1  0  0  0
 55 64  1  0  0  0
 56 57  1  0  0  0
 56 65  1  0  0  0
 57 66  1  0  0  0
 57 67  1  0  0  0
 58 68  1  0  0  0
 58 69  1  0  0  0
 59 70  1  0  0  0
 59 71  1  0  0  0
 59 72  1  0  0  0
M  CHG  1  52   1
M  END
> <s_m_entry_id>
383

> <s_m_entry_name>
000000225.1

> <s_m_Source_Path>
/Users/zaksoul/Documents/3r_UNI/2nd_SEMESTER/BSC/FRAG_RECON/RESULTS/2

> <s_m_Source_File>
000000225.mol2

> <i_m_Source_File_Index>
1

$$$$
No_0_238
                    3D
 Schrodinger Suite 2022-4.
 69 75  0  0  1  0            999 V2000
   -5.4160    3.5830  -21.7200 C   0  0  0  0  0  0
   -5.6860    3.7800  -23.0530 C   0  0  0  0  0  0
   -4.1770    3.3230  -21.3850 C   0  0  0  0  0  0
   -3.2940    3.4570  -23.5540 C   0  0  0  0  0  0
   -3.1280    3.2040  -22.1350 C   0  0  0  0  0  0
   -4.6420    3.7280  -24.0680 C   0  0  0  0  0  0
   -3.8960    3.7580  -26.2690 C   0  0  0  0  0  0
    5.8510    2.9560  -21.0460 C   0  0  0  0  0  0
    5.7030    3.1120  -23.5940 C   0  0  0  0  0  0
   -4.8980    3.8630  -25.4020 C   0  0  0  0  0  0
    1.9200    3.6760  -23.5940 C   0  0  0  0  0  0
    1.1050    4.7860  -23.2860 C   0  0  0  0  0  0
    2.9110    5.9710  -22.6070 C   0  0  0  0  0  0
    3.3230    3.8590  -23.2850 C   0  0  0  0  0  0
    1.3670    2.5640  -24.2590 C   0  0  0  0  0  0
   -0.7570    3.3860  -24.1350 C   0  0  0  0  0  0
   -0.2220    4.6010  -23.5320 C   0  0  0  0  0  0
   -2.2110    3.4000  -24.4840 C   0  0  0  0  0  0
    3.9190    1.3570  -23.0090 C   0  0  0  0  0  0
    4.8560    0.9920  -21.8670 C   0  0  2  0  0  0
    6.4530    2.5280  -22.4030 C   0  0  2  0  0  0
    4.8470    1.9870  -20.6950 C   0  0  0  0  0  0
   -2.5410    3.5680  -25.9100 C   0  0  0  0  0  0
   -1.7840    2.7820  -21.5440 C   0  0  0  0  0  0
   -0.7520    2.4280  -21.0440 C   0  0  0  0  0  0
   -1.0580    5.6480  -23.1790 F   0  0  0  0  0  0
   -3.9620    3.0730  -20.0050 F   0  0  0  0  0  0
    1.5890    5.9400  -22.7500 N   0  0  0  0  0  0
    3.8030    5.0050  -22.8360 N   0  0  0  0  0  0
    0.0590    2.4820  -24.5590 N   0  0  0  0  0  0
    4.2360    2.8080  -23.4710 N   0  0  0  0  0  0
    6.2610    1.0550  -22.3550 N   0  0  1  0  0  0
   -4.0740    3.7800  -27.6580 O   0  0  0  0  0  0
   -6.2146    3.6463  -20.9897 H   0  0  0  0  0  0
   -6.7010    3.9808  -23.3763 H   0  0  0  0  0  0
    5.3836    3.9464  -21.1490 H   0  0  0  0  0  0
    6.6403    2.9590  -20.2799 H   0  0  0  0  0  0
    6.0915    2.6700  -24.5234 H   0  0  0  0  0  0
    5.8503    4.2017  -23.6223 H   0  0  0  0  0  0
   -5.9091    4.0536  -25.7431 H   0  0  0  0  0  0
    2.0015    1.7337  -24.5471 H   0  0  0  0  0  0
    2.8776    1.3035  -22.6588 H   0  0  0  0  0  0
    4.0754    0.6626  -23.8477 H   0  0  0  0  0  0
    4.6289   -0.0212  -21.5037 H   0  0  0  0  0  0
    7.5223    2.7812  -22.4524 H   0  0  0  0  0  0
    3.8655    2.4813  -20.6456 H   0  0  0  0  0  0
    5.1487    1.4673  -19.7737 H   0  0  0  0  0  0
   -1.7746    3.5489  -26.6764 H   0  0  0  0  0  0
    0.1556    2.1158  -20.6037 H   0  0  0  0  0  0
    6.9092    0.5512  -21.6533 H   0  0  0  0  0  0
   -3.2312    3.6910  -28.0873 H   0  0  0  0  0  0
    5.0830    9.3880  -23.6520 O   0  5  0  0  0  0
    5.6840   10.8160  -21.9750 O   0  0  0  0  0  0
    4.9780    7.2210  -22.0090 N   0  0  1  0  0  0
    6.8430    8.4480  -19.9430 N   0  3  0  0  0  0
    7.1870    8.2220  -21.3400 C   0  0  0  0  0  0
    5.4240    8.7650  -20.0350 C   0  0  0  0  0  0
    5.4620    9.6490  -22.4570 C   0  0  0  0  0  0
    5.6730    8.4700  -21.5360 C   0  0  0  0  0  0
    3.4780    7.3050  -22.1340 C   0  0  0  0  0  0
    5.3451    6.9519  -22.9884 H   0  0  0  0  0  0
    7.3410    9.2570  -19.6060 H   0  0  0  0  0  0
    6.9581    7.5875  -19.4307 H   0  0  0  0  0  0
    7.3350    7.1373  -21.4470 H   0  0  0  0  0  0
    7.6937    9.1365  -21.6818 H   0  0  0  0  0  0
    5.3500    9.8590  -19.9470 H   0  0  0  0  0  0
    4.8900    7.8891  -19.6380 H   0  0  0  0  0  0
    3.2140    8.0919  -22.8559 H   0  0  0  0  0  0
    3.0419    7.5631  -21.1577 H   0  0  0  0  0  0
  1  2  2  0  0  0
  1  3  1  0  0  0
  1 34  1  0  0  0
  2  6  1  0  0  0
  2 35  1  0  0  0
  3  5  2  0  0  0
  3 27  1  0  0  0
  4  5  1  0  0  0
  4  6  2  0  0  0
  4 18  1  0  0  0
  5 24  1  0  0  0
  6 10  1  0  0  0
  7 10  2  0  0  0
  7 23  1  0  0  0
  7 33  1  0  0  0
  8 21  1  0  0  0
  8 22  1  0  0  0
  8 36  1  0  0  0
  8 37  1  0  0  0
  9 21  1  0  0  0
  9 31  1  0  0  0
  9 38  1  0  0  0
  9 39  1  0  0  0
 10 40  1  0  0  0
 11 12  1  0  0  0
 11 14  2  0  0  0
 11 15  1  0  0  0
 12 17  1  0  0  0
 12 28  2  0  0  0
 13 28  1  0  0  0
 13 29  2  0  0  0
 13 60  1  0  0  0
 14 29  1  0  0  0
 14 31  1  0  0  0
 15 30  2  0  0  0
 15 41  1  0  0  0
 16 17  2  0  0  0
 16 18  1  0  0  0
 16 30  1  0  0  0
 17 26  1  0  0  0
 18 23  2  0  0  0
 19 20  1  0  0  0
 19 31  1  0  0  0
 19 42  1  0  0  0
 19 43  1  0  0  0
 20 22  1  0  0  0
 20 32  1  0  0  0
 20 44  1  0  0  0
 21 32  1  0  0  0
 21 45  1  0  0  0
 22 46  1  0  0  0
 22 47  1  0  0  0
 23 48  1  0  0  0
 24 25  3  0  0  0
 25 49  1  0  0  0
 32 50  1  0  0  0
 33 51  1  0  0  0
 52 58  1  0  0  0
 53 58  2  0  0  0
 54 59  1  0  0  0
 54 60  1  0  0  0
 54 61  1  0  0  0
 55 56  1  0  0  0
 55 57  1  0  0  0
 55 62  1  0  0  0
 55 63  1  0  0  0
 56 59  1  0  0  0
 56 64  1  0  0  0
 56 65  1  0  0  0
 57 59  1  0  0  0
 57 66  1  0  0  0
 57 67  1  0  0  0
 58 59  1  0  0  0
 60 68  1  0  0  0
 60 69  1  0  0  0
M  CHG  2  52  -1  55   1
M  END
> <s_m_entry_id>
384

> <s_m_entry_name>
000000226.1

> <s_m_Source_Path>
/Users/zaksoul/Documents/3r_UNI/2nd_SEMESTER/BSC/FRAG_RECON/RESULTS/2

> <s_m_Source_File>
000000226.mol2

> <i_m_Source_File_Index>
1

$$$$
No_0_239
                    3D
 Schrodinger Suite 2022-4.
 69 75  0  0  1  0            999 V2000
   -5.0750    3.5000  -21.5270 C   0  0  0  0  0  0
   -5.3820    3.6980  -22.8520 C   0  0  0  0  0  0
   -3.8230    3.2630  -21.2250 C   0  0  0  0  0  0
   -2.9970    3.4270  -23.4130 C   0  0  0  0  0  0
   -2.7910    3.1700  -22.0010 C   0  0  0  0  0  0
   -4.3620    3.6730  -23.8930 C   0  0  0  0  0  0
   -3.6710    3.7310  -26.1110 C   0  0  0  0  0  0
    6.2150    3.0960  -21.1340 C   0  0  0  0  0  0
    6.0010    3.2640  -23.6770 C   0  0  0  0  0  0
   -4.6540    3.8110  -25.2190 C   0  0  0  0  0  0
    2.2100    3.7510  -23.5800 C   0  0  0  0  0  0
    1.3800    4.8430  -23.2450 C   0  0  0  0  0  0
    3.1780    6.0600  -22.6030 C   0  0  0  0  0  0
    3.6150    3.9610  -23.3050 C   0  0  0  0  0  0
    1.6620    2.6330  -24.2380 C   0  0  0  0  0  0
   -0.4740    3.4100  -24.0570 C   0  0  0  0  0  0
    0.0510    4.6320  -23.4600 C   0  0  0  0  0  0
   -1.9360    3.3970  -24.3700 C   0  0  0  0  0  0
    4.2680    1.4700  -23.0580 C   0  0  0  0  0  0
    5.2400    1.1170  -21.9430 C   0  0  2  0  0  0
    6.7920    2.6890  -22.5070 C   0  0  2  0  0  0
    5.2400    2.1050  -20.7650 C   0  0  0  0  0  0
   -2.3050    3.5670  -25.7860 C   0  0  0  0  0  0
   -1.4240    2.7710  -21.4450 C   0  0  0  0  0  0
   -0.3740    2.4350  -20.9730 C   0  0  0  0  0  0
   -0.7970    5.6600  -23.0800 F   0  0  0  0  0  0
   -3.5690    3.0090  -19.8520 F   0  0  0  0  0  0
    1.8540    6.0040  -22.7140 N   0  0  0  0  0  0
    4.0830    5.1140  -22.8600 N   0  0  0  0  0  0
    0.3490    2.5250  -24.5070 N   0  0  0  0  0  0
    4.5440    2.9300  -23.5200 N   0  0  0  0  0  0
    6.6310    1.2120  -22.4650 N   0  0  1  0  0  0
   -3.8840    3.7580  -27.4950 O   0  0  0  0  0  0
   -5.8563    3.5422  -20.7768 H   0  0  0  0  0  0
   -6.4084    3.8806  -23.1490 H   0  0  0  0  0  0
    5.7265    4.0780  -21.2188 H   0  0  0  0  0  0
    7.0229    3.1111  -20.3876 H   0  0  0  0  0  0
    6.3763    2.8362  -24.6183 H   0  0  0  0  0  0
    6.1261    4.3566  -23.7012 H   0  0  0  0  0  0
   -5.6767    3.9836  -25.5341 H   0  0  0  0  0  0
    2.3059    1.8175  -24.5469 H   0  0  0  0  0  0
    3.2365    1.3933  -22.6836 H   0  0  0  0  0  0
    4.4173    0.7838  -23.9047 H   0  0  0  0  0  0
    5.0422    0.0977  -21.5797 H   0  0  0  0  0  0
    7.8546    2.9635  -22.5817 H   0  0  0  0  0  0
    4.2505    2.5791  -20.6873 H   0  0  0  0  0  0
    5.5748    1.5867  -19.8544 H   0  0  0  0  0  0
   -1.5573    3.5680  -26.5708 H   0  0  0  0  0  0
    0.5509    2.1390  -20.5581 H   0  0  0  0  0  0
    7.3066    0.7171  -21.7830 H   0  0  0  0  0  0
   -3.0505    3.6877  -27.9454 H   0  0  0  0  0  0
    4.7060    9.7780  -23.7550 O   0  5  0  0  0  0
    5.5910   11.1110  -22.1270 O   0  0  0  0  0  0
    5.2130    7.4770  -22.3930 N   0  0  1  0  0  0
    7.4310    8.7190  -20.7240 N   0  3  0  0  0  0
    7.4250    8.6570  -22.1790 C   0  0  0  0  0  0
    6.0150    8.8810  -20.4280 C   0  0  0  0  0  0
    5.3550    9.9740  -22.6690 C   0  0  0  0  0  0
    5.8960    8.7500  -21.9680 C   0  0  0  0  0  0
    3.7300    7.4030  -22.1360 C   0  0  0  0  0  0
    5.3391    7.3379  -23.4566 H   0  0  0  0  0  0
    7.9277    9.5455  -20.4302 H   0  0  0  0  0  0
    7.7472    7.8355  -20.3558 H   0  0  0  0  0  0
    7.6339    7.6093  -22.4409 H   0  0  0  0  0  0
    7.7461    9.6492  -22.5291 H   0  0  0  0  0  0
    5.8710    9.9477  -20.2011 H   0  0  0  0  0  0
    5.6779    7.9197  -20.0129 H   0  0  0  0  0  0
    3.2228    8.2153  -22.6772 H   0  0  0  0  0  0
    3.5381    7.5229  -21.0595 H   0  0  0  0  0  0
  1  2  2  0  0  0
  1  3  1  0  0  0
  1 34  1  0  0  0
  2  6  1  0  0  0
  2 35  1  0  0  0
  3  5  2  0  0  0
  3 27  1  0  0  0
  4  5  1  0  0  0
  4  6  2  0  0  0
  4 18  1  0  0  0
  5 24  1  0  0  0
  6 10  1  0  0  0
  7 10  2  0  0  0
  7 23  1  0  0  0
  7 33  1  0  0  0
  8 21  1  0  0  0
  8 22  1  0  0  0
  8 36  1  0  0  0
  8 37  1  0  0  0
  9 21  1  0  0  0
  9 31  1  0  0  0
  9 38  1  0  0  0
  9 39  1  0  0  0
 10 40  1  0  0  0
 11 12  1  0  0  0
 11 14  2  0  0  0
 11 15  1  0  0  0
 12 17  1  0  0  0
 12 28  2  0  0  0
 13 28  1  0  0  0
 13 29  2  0  0  0
 13 60  1  0  0  0
 14 29  1  0  0  0
 14 31  1  0  0  0
 15 30  2  0  0  0
 15 41  1  0  0  0
 16 17  2  0  0  0
 16 18  1  0  0  0
 16 30  1  0  0  0
 17 26  1  0  0  0
 18 23  2  0  0  0
 19 20  1  0  0  0
 19 31  1  0  0  0
 19 42  1  0  0  0
 19 43  1  0  0  0
 20 22  1  0  0  0
 20 32  1  0  0  0
 20 44  1  0  0  0
 21 32  1  0  0  0
 21 45  1  0  0  0
 22 46  1  0  0  0
 22 47  1  0  0  0
 23 48  1  0  0  0
 24 25  3  0  0  0
 25 49  1  0  0  0
 32 50  1  0  0  0
 33 51  1  0  0  0
 52 58  1  0  0  0
 53 58  2  0  0  0
 54 59  1  0  0  0
 54 60  1  0  0  0
 54 61  1  0  0  0
 55 56  1  0  0  0
 55 57  1  0  0  0
 55 62  1  0  0  0
 55 63  1  0  0  0
 56 59  1  0  0  0
 56 64  1  0  0  0
 56 65  1  0  0  0
 57 59  1  0  0  0
 57 66  1  0  0  0
 57 67  1  0  0  0
 58 59  1  0  0  0
 60 68  1  0  0  0
 60 69  1  0  0  0
M  CHG  2  52  -1  55   1
M  END
> <s_m_entry_id>
385

> <s_m_entry_name>
000000227.1

> <s_m_Source_Path>
/Users/zaksoul/Documents/3r_UNI/2nd_SEMESTER/BSC/FRAG_RECON/RESULTS/2

> <s_m_Source_File>
000000227.mol2

> <i_m_Source_File_Index>
1

$$$$
No_0_240
                    3D
 Schrodinger Suite 2022-4.
 69 75  0  0  1  0            999 V2000
   -5.2740    3.3800  -21.9160 C   0  0  0  0  0  0
   -5.5620    3.5310  -23.2520 C   0  0  0  0  0  0
   -4.0300    3.1390  -21.5880 C   0  0  0  0  0  0
   -3.1730    3.2080  -23.7700 C   0  0  0  0  0  0
   -2.9900    3.0030  -22.3460 C   0  0  0  0  0  0
   -4.5290    3.4530  -24.2760 C   0  0  0  0  0  0
   -3.8090    3.4170  -26.4860 C   0  0  0  0  0  0
    6.0030    2.8510  -21.3550 C   0  0  0  0  0  0
    5.8250    2.9230  -23.9050 C   0  0  0  0  0  0
   -4.8020    3.5430  -25.6110 C   0  0  0  0  0  0
    2.0390    3.4610  -23.8780 C   0  0  0  0  0  0
    1.2190    4.5750  -23.5970 C   0  0  0  0  0  0
    3.0240    5.7930  -22.9780 C   0  0  0  0  0  0
    3.4430    3.6640  -23.5920 C   0  0  0  0  0  0
    1.4850    2.3250  -24.5000 C   0  0  0  0  0  0
   -0.6420    3.1360  -24.3780 C   0  0  0  0  0  0
   -0.1100    4.3730  -23.8210 C   0  0  0  0  0  0
   -2.1010    3.1280  -24.7100 C   0  0  0  0  0  0
    4.0600    1.1760  -23.2420 C   0  0  0  0  0  0
    5.0130    0.8540  -22.1010 C   0  0  2  0  0  0
    6.5930    2.3840  -22.7040 C   0  0  2  0  0  0
    5.0100    1.8870  -20.9610 C   0  0  0  0  0  0
   -2.4490    3.2480  -26.1370 C   0  0  0  0  0  0
   -1.6350    2.6100  -21.7570 C   0  0  0  0  0  0
   -0.5950    2.2790  -21.2580 C   0  0  0  0  0  0
   -0.9490    5.4250  -23.4920 F   0  0  0  0  0  0
   -3.7980    2.9350  -20.2030 F   0  0  0  0  0  0
    1.7010    5.7490  -23.1040 N   0  0  0  0  0  0
    3.9200    4.8270  -23.1860 N   0  0  0  0  0  0
    0.1750    2.2240  -24.7820 N   0  0  0  0  0  0
    4.3610    2.6130  -23.7550 N   0  0  0  0  0  0
    6.4120    0.9120  -22.6070 N   0  0  1  0  0  0
   -4.0030    3.3930  -27.8730 O   0  0  0  0  0  0
   -6.0645    3.4613  -21.1787 H   0  0  0  0  0  0
   -6.5821    3.7147  -23.5693 H   0  0  0  0  0  0
    5.5274    3.8344  -21.4842 H   0  0  0  0  0  0
    6.8014    2.8843  -20.5990 H   0  0  0  0  0  0
    6.2054    2.4538  -24.8243 H   0  0  0  0  0  0
    5.9643    4.0122  -23.9706 H   0  0  0  0  0  0
   -5.8181    3.7167  -25.9463 H   0  0  0  0  0  0
    2.1221    1.4902  -24.7689 H   0  0  0  0  0  0
    3.0230    1.1265  -22.8785 H   0  0  0  0  0  0
    4.2114    0.4561  -24.0598 H   0  0  0  0  0  0
    4.7971   -0.1479  -21.7015 H   0  0  0  0  0  0
    7.6599    2.6424  -22.7747 H   0  0  0  0  0  0
    4.0260    2.3765  -20.9156 H   0  0  0  0  0  0
    5.3260    1.3993  -20.0270 H   0  0  0  0  0  0
   -1.6911    3.2088  -26.9110 H   0  0  0  0  0  0
    0.3200    1.9870  -20.8190 H   0  0  0  0  0  0
    7.0716    0.4352  -21.8971 H   0  0  0  0  0  0
   -3.1645    3.2950  -28.3086 H   0  0  0  0  0  0
    5.7190    9.4540  -20.9580 O   0  0  0  0  0  0
    3.2620    7.4170  -21.1050 N   0  3  0  0  0  0
    3.9700    8.5500  -20.3970 C   0  0  0  0  0  0
    3.5870    7.1460  -22.5550 C   0  0  0  0  0  0
    4.3590    9.7980  -21.2290 C   0  0  0  0  0  0
    5.4770    8.2960  -20.1580 C   0  0  0  0  0  0
    3.2610    8.9330  -19.0860 C   0  0  0  0  0  0
    2.2661    7.5390  -21.0080 H   0  0  0  0  0  0
    3.3889    6.5687  -20.5755 H   0  0  0  0  0  0
    4.6783    7.1480  -22.6929 H   0  0  0  0  0  0
    3.1500    7.9371  -23.1821 H   0  0  0  0  0  0
    4.1680    9.5560  -22.2849 H   0  0  0  0  0  0
    4.1211   10.6815  -20.6184 H   0  0  0  0  0  0
    5.6910    8.5730  -19.1152 H   0  0  0  0  0  0
    5.7581    7.4208  -20.7621 H   0  0  0  0  0  0
    3.8044    9.7582  -18.6025 H   0  0  0  0  0  0
    2.2308    9.2511  -19.3040 H   0  0  0  0  0  0
    3.2410    8.0639  -18.4120 H   0  0  0  0  0  0
  1  2  2  0  0  0
  1  3  1  0  0  0
  1 34  1  0  0  0
  2  6  1  0  0  0
  2 35  1  0  0  0
  3  5  2  0  0  0
  3 27  1  0  0  0
  4  5  1  0  0  0
  4  6  2  0  0  0
  4 18  1  0  0  0
  5 24  1  0  0  0
  6 10  1  0  0  0
  7 10  2  0  0  0
  7 23  1  0  0  0
  7 33  1  0  0  0
  8 21  1  0  0  0
  8 22  1  0  0  0
  8 36  1  0  0  0
  8 37  1  0  0  0
  9 21  1  0  0  0
  9 31  1  0  0  0
  9 38  1  0  0  0
  9 39  1  0  0  0
 10 40  1  0  0  0
 11 12  1  0  0  0
 11 14  2  0  0  0
 11 15  1  0  0  0
 12 17  1  0  0  0
 12 28  2  0  0  0
 13 28  1  0  0  0
 13 29  2  0  0  0
 13 55  1  0  0  0
 14 29  1  0  0  0
 14 31  1  0  0  0
 15 30  2  0  0  0
 15 41  1  0  0  0
 16 17  2  0  0  0
 16 18  1  0  0  0
 16 30  1  0  0  0
 17 26  1  0  0  0
 18 23  2  0  0  0
 19 20  1  0  0  0
 19 31  1  0  0  0
 19 42  1  0  0  0
 19 43  1  0  0  0
 20 22  1  0  0  0
 20 32  1  0  0  0
 20 44  1  0  0  0
 21 32  1  0  0  0
 21 45  1  0  0  0
 22 46  1  0  0  0
 22 47  1  0  0  0
 23 48  1  0  0  0
 24 25  3  0  0  0
 25 49  1  0  0  0
 32 50  1  0  0  0
 33 51  1  0  0  0
 52 56  1  0  0  0
 52 57  1  0  0  0
 53 54  1  0  0  0
 53 55  1  0  0  0
 53 59  1  0  0  0
 53 60  1  0  0  0
 54 56  1  0  0  0
 54 57  1  0  0  0
 54 58  1  0  0  0
 55 61  1  0  0  0
 55 62  1  0  0  0
 56 63  1  0  0  0
 56 64  1  0  0  0
 57 65  1  0  0  0
 57 66  1  0  0  0
 58 67  1  0  0  0
 58 68  1  0  0  0
 58 69  1  0  0  0
M  CHG  1  53   1
M  END
> <s_m_entry_id>
386

> <s_m_entry_name>
000000228.1

> <s_m_Source_Path>
/Users/zaksoul/Documents/3r_UNI/2nd_SEMESTER/BSC/FRAG_RECON/RESULTS/2

> <s_m_Source_File>
000000228.mol2

> <i_m_Source_File_Index>
1

$$$$
No_0_241
                    3D
 Schrodinger Suite 2022-4.
 69 75  0  0  1  0            999 V2000
   -5.2910    3.5490  -21.9060 C   0  0  0  0  0  0
   -5.5620    3.7430  -23.2390 C   0  0  0  0  0  0
   -4.0520    3.2930  -21.5710 C   0  0  0  0  0  0
   -3.1690    3.4270  -23.7390 C   0  0  0  0  0  0
   -3.0030    3.1770  -22.3200 C   0  0  0  0  0  0
   -4.5180    3.6930  -24.2540 C   0  0  0  0  0  0
   -3.7720    3.7230  -26.4550 C   0  0  0  0  0  0
    5.9770    2.9590  -21.2310 C   0  0  0  0  0  0
    5.8290    3.1110  -23.7790 C   0  0  0  0  0  0
   -4.7750    3.8260  -25.5880 C   0  0  0  0  0  0
    2.0450    3.6630  -23.7800 C   0  0  0  0  0  0
    1.2260    4.7710  -23.4730 C   0  0  0  0  0  0
    3.0280    5.9620  -22.7950 C   0  0  0  0  0  0
    3.4460    3.8510  -23.4710 C   0  0  0  0  0  0
    1.4950    2.5490  -24.4430 C   0  0  0  0  0  0
   -0.6310    3.3640  -24.3210 C   0  0  0  0  0  0
   -0.1010    4.5810  -23.7190 C   0  0  0  0  0  0
   -2.0860    3.3730  -24.6690 C   0  0  0  0  0  0
    4.0510    1.3520  -23.1920 C   0  0  0  0  0  0
    4.9890    0.9900  -22.0500 C   0  0  2  0  0  0
    6.5810    2.5320  -22.5870 C   0  0  2  0  0  0
    4.9760    1.9870  -20.8790 C   0  0  0  0  0  0
   -2.4170    3.5380  -26.0950 C   0  0  0  0  0  0
   -1.6560    2.7600  -21.7290 C   0  0  0  0  0  0
   -0.6240    2.4090  -21.2290 C   0  0  0  0  0  0
   -0.9410    5.6260  -23.3670 F   0  0  0  0  0  0
   -3.8360    3.0450  -20.1900 F   0  0  0  0  0  0
    1.7060    5.9270  -22.9380 N   0  0  0  0  0  0
    3.9220    5.0000  -23.0230 N   0  0  0  0  0  0
    0.1870    2.4620  -24.7430 N   0  0  0  0  0  0
    4.3630    2.8030  -23.6560 N   0  0  0  0  0  0
    6.3940    1.0580  -22.5380 N   0  0  1  0  0  0
   -3.9500    3.7440  -27.8440 O   0  0  0  0  0  0
   -6.0897    3.6092  -21.1756 H   0  0  0  0  0  0
   -6.5776    3.9407  -23.5622 H   0  0  0  0  0  0
    5.5067    3.9480  -21.3349 H   0  0  0  0  0  0
    6.7668    2.9651  -20.4654 H   0  0  0  0  0  0
    6.2194    2.6702  -24.7081 H   0  0  0  0  0  0
    5.9722    4.2012  -23.8082 H   0  0  0  0  0  0
   -5.7866    4.0137  -25.9292 H   0  0  0  0  0  0
    2.1317    1.7204  -24.7312 H   0  0  0  0  0  0
    3.0098    1.2945  -22.8419 H   0  0  0  0  0  0
    4.2094    0.6567  -24.0296 H   0  0  0  0  0  0
    4.7649   -0.0234  -21.6856 H   0  0  0  0  0  0
    7.6496    2.7883  -22.6364 H   0  0  0  0  0  0
    3.9931    2.4784  -20.8296 H   0  0  0  0  0  0
    5.2799    1.4691  -19.9573 H   0  0  0  0  0  0
   -1.6506    3.5209  -26.8614 H   0  0  0  0  0  0
    0.2845    2.1002  -20.7882 H   0  0  0  0  0  0
    7.0435    0.5562  -21.8361 H   0  0  0  0  0  0
   -3.1071    3.6569  -28.2734 H   0  0  0  0  0  0
    5.7610   10.0720  -22.1760 O   0  0  0  0  0  0
    4.8510    7.0800  -21.5200 N   0  3  0  0  0  0
    5.7340    8.2680  -21.2080 C   0  0  0  0  0  0
    3.5900    7.2990  -22.3240 C   0  0  0  0  0  0
    5.0560    9.6470  -21.0090 C   0  0  0  0  0  0
    6.4560    8.8530  -22.4450 C   0  0  0  0  0  0
    6.7350    7.9540  -20.0830 C   0  0  0  0  0  0
    4.6151    6.6112  -20.6594 H   0  0  0  0  0  0
    5.4054    6.3655  -21.9653 H   0  0  0  0  0  0
    3.8171    7.9293  -23.1964 H   0  0  0  0  0  0
    2.8428    7.8121  -21.7008 H   0  0  0  0  0  0
    3.9995    9.5321  -21.2929 H   0  0  0  0  0  0
    5.5418   10.1248  -20.1454 H   0  0  0  0  0  0
    7.5072    9.0110  -22.1620 H   0  0  0  0  0  0
    5.9902    8.4042  -23.3347 H   0  0  0  0  0  0
    7.3569    8.8399  -19.8870 H   0  0  0  0  0  0
    6.1871    7.6810  -19.1691 H   0  0  0  0  0  0
    7.3786    7.1156  -20.3878 H   0  0  0  0  0  0
  1  2  2  0  0  0
  1  3  1  0  0  0
  1 34  1  0  0  0
  2  6  1  0  0  0
  2 35  1  0  0  0
  3  5  2  0  0  0
  3 27  1  0  0  0
  4  5  1  0  0  0
  4  6  2  0  0  0
  4 18  1  0  0  0
  5 24  1  0  0  0
  6 10  1  0  0  0
  7 10  2  0  0  0
  7 23  1  0  0  0
  7 33  1  0  0  0
  8 21  1  0  0  0
  8 22  1  0  0  0
  8 36  1  0  0  0
  8 37  1  0  0  0
  9 21  1  0  0  0
  9 31  1  0  0  0
  9 38  1  0  0  0
  9 39  1  0  0  0
 10 40  1  0  0  0
 11 12  1  0  0  0
 11 14  2  0  0  0
 11 15  1  0  0  0
 12 17  1  0  0  0
 12 28  2  0  0  0
 13 28  1  0  0  0
 13 29  2  0  0  0
 13 55  1  0  0  0
 14 29  1  0  0  0
 14 31  1  0  0  0
 15 30  2  0  0  0
 15 41  1  0  0  0
 16 17  2  0  0  0
 16 18  1  0  0  0
 16 30  1  0  0  0
 17 26  1  0  0  0
 18 23  2  0  0  0
 19 20  1  0  0  0
 19 31  1  0  0  0
 19 42  1  0  0  0
 19 43  1  0  0  0
 20 22  1  0  0  0
 20 32  1  0  0  0
 20 44  1  0  0  0
 21 32  1  0  0  0
 21 45  1  0  0  0
 22 46  1  0  0  0
 22 47  1  0  0  0
 23 48  1  0  0  0
 24 25  3  0  0  0
 25 49  1  0  0  0
 32 50  1  0  0  0
 33 51  1  0  0  0
 52 56  1  0  0  0
 52 57  1  0  0  0
 53 54  1  0  0  0
 53 55  1  0  0  0
 53 59  1  0  0  0
 53 60  1  0  0  0
 54 56  1  0  0  0
 54 57  1  0  0  0
 54 58  1  0  0  0
 55 61  1  0  0  0
 55 62  1  0  0  0
 56 63  1  0  0  0
 56 64  1  0  0  0
 57 65  1  0  0  0
 57 66  1  0  0  0
 58 67  1  0  0  0
 58 68  1  0  0  0
 58 69  1  0  0  0
M  CHG  1  53   1
M  END
> <s_m_entry_id>
387

> <s_m_entry_name>
000000229.1

> <s_m_Source_Path>
/Users/zaksoul/Documents/3r_UNI/2nd_SEMESTER/BSC/FRAG_RECON/RESULTS/2

> <s_m_Source_File>
000000229.mol2

> <i_m_Source_File_Index>
1

$$$$
No_0_242
                    3D
 Schrodinger Suite 2022-4.
 69 75  0  0  1  0            999 V2000
   -5.4140    3.3940  -22.0670 C   0  0  0  0  0  0
   -5.6560    3.6240  -23.4000 C   0  0  0  0  0  0
   -4.1790    3.1470  -21.7100 C   0  0  0  0  0  0
   -3.2470    3.3590  -23.8520 C   0  0  0  0  0  0
   -3.1110    3.0690  -22.4370 C   0  0  0  0  0  0
   -4.5880    3.6210  -24.3900 C   0  0  0  0  0  0
   -3.7910    3.7290  -26.5710 C   0  0  0  0  0  0
    5.8430    2.9500  -21.1400 C   0  0  0  0  0  0
    5.7530    3.1780  -23.6850 C   0  0  0  0  0  0
   -4.8150    3.7910  -25.7250 C   0  0  0  0  0  0
    1.9610    3.6730  -23.7590 C   0  0  0  0  0  0
    1.1190    4.7590  -23.4390 C   0  0  0  0  0  0
    2.8850    5.9560  -22.6830 C   0  0  0  0  0  0
    3.3520    3.8730  -23.4120 C   0  0  0  0  0  0
    1.4450    2.5720  -24.4690 C   0  0  0  0  0  0
   -0.6960    3.3510  -24.3740 C   0  0  0  0  0  0
   -0.1990    4.5580  -23.7230 C   0  0  0  0  0  0
   -2.1420    3.3490  -24.7570 C   0  0  0  0  0  0
    3.9890    1.3750  -23.1930 C   0  0  0  0  0  0
    4.9050    0.9930  -22.0410 C   0  0  2  0  0  0
    6.4850    2.5740  -22.4930 C   0  0  2  0  0  0
    4.8500    1.9540  -20.8410 C   0  0  0  0  0  0
   -2.4420    3.5530  -26.1840 C   0  0  0  0  0  0
   -1.7730    2.6540  -21.8260 C   0  0  0  0  0  0
   -0.7470    2.3040  -21.3120 C   0  0  0  0  0  0
   -1.0630    5.5780  -23.3600 F   0  0  0  0  0  0
   -3.9920    2.8600  -20.3330 F   0  0  0  0  0  0
    1.5680    5.9060  -22.8590 N   0  0  0  0  0  0
    3.8000    5.0140  -22.9180 N   0  0  0  0  0  0
    0.1460    2.4750  -24.8030 N   0  0  0  0  0  0
    4.2890    2.8450  -23.6060 N   0  0  0  0  0  0
    6.3200    1.0970  -22.4920 N   0  0  1  0  0  0
   -3.9360    3.7890  -27.9620 O   0  0  0  0  0  0
   -6.2307    3.4211  -21.3547 H   0  0  0  0  0  0
   -6.6667    3.8167  -23.7412 H   0  0  0  0  0  0
    5.3606    3.9349  -21.2248 H   0  0  0  0  0  0
    6.6137    2.9450  -20.3552 H   0  0  0  0  0  0
    6.1718    2.7714  -24.6174 H   0  0  0  0  0  0
    5.8801    4.2706  -23.6779 H   0  0  0  0  0  0
   -5.8210    3.9727  -26.0854 H   0  0  0  0  0  0
    2.1014    1.7621  -24.7661 H   0  0  0  0  0  0
    2.9404    1.2922  -22.8711 H   0  0  0  0  0  0
    4.1777    0.7089  -24.0478 H   0  0  0  0  0  0
    4.6879   -0.0339  -21.7118 H   0  0  0  0  0  0
    7.5504    2.8474  -22.5091 H   0  0  0  0  0  0
    3.8587    2.4290  -20.8007 H   0  0  0  0  0  0
    5.1396    1.4132  -19.9279 H   0  0  0  0  0  0
   -1.6578    3.5700  -26.9321 H   0  0  0  0  0  0
    0.1556    1.9951  -20.8592 H   0  0  0  0  0  0
    6.9607    0.5836  -21.7903 H   0  0  0  0  0  0
   -3.0821    3.7267  -28.3736 H   0  0  0  0  0  0
    5.1070   10.3780  -22.1830 O   0  0  0  0  0  0
    4.9070    7.2000  -21.9300 N   0  3  0  0  0  0
    5.6850    8.4760  -21.6990 C   0  0  0  0  0  0
    3.4160    7.2860  -22.1590 C   0  0  0  0  0  0
    4.9730    9.6410  -20.9670 C   0  0  0  0  0  0
    5.7870    9.3830  -22.9480 C   0  0  0  0  0  0
    7.0780    8.1930  -21.1080 C   0  0  0  0  0  0
    5.0869    6.5623  -21.1704 H   0  0  0  0  0  0
    5.3278    6.6912  -22.6917 H   0  0  0  0  0  0
    3.2030    8.0799  -22.8899 H   0  0  0  0  0  0
    2.9144    7.5328  -21.2117 H   0  0  0  0  0  0
    3.9130    9.3630  -20.8720 H   0  0  0  0  0  0
    5.6938   10.0629  -20.2512 H   0  0  0  0  0  0
    6.8366    9.7009  -23.0330 H   0  0  0  0  0  0
    5.0708    8.9969  -23.6882 H   0  0  0  0  0  0
    7.6109    9.1429  -20.9540 H   0  0  0  0  0  0
    6.9690    7.6749  -20.1438 H   0  0  0  0  0  0
    7.6501    7.5599  -21.8021 H   0  0  0  0  0  0
  1  2  2  0  0  0
  1  3  1  0  0  0
  1 34  1  0  0  0
  2  6  1  0  0  0
  2 35  1  0  0  0
  3  5  2  0  0  0
  3 27  1  0  0  0
  4  5  1  0  0  0
  4  6  2  0  0  0
  4 18  1  0  0  0
  5 24  1  0  0  0
  6 10  1  0  0  0
  7 10  2  0  0  0
  7 23  1  0  0  0
  7 33  1  0  0  0
  8 21  1  0  0  0
  8 22  1  0  0  0
  8 36  1  0  0  0
  8 37  1  0  0  0
  9 21  1  0  0  0
  9 31  1  0  0  0
  9 38  1  0  0  0
  9 39  1  0  0  0
 10 40  1  0  0  0
 11 12  1  0  0  0
 11 14  2  0  0  0
 11 15  1  0  0  0
 12 17  1  0  0  0
 12 28  2  0  0  0
 13 28  1  0  0  0
 13 29  2  0  0  0
 13 55  1  0  0  0
 14 29  1  0  0  0
 14 31  1  0  0  0
 15 30  2  0  0  0
 15 41  1  0  0  0
 16 17  2  0  0  0
 16 18  1  0  0  0
 16 30  1  0  0  0
 17 26  1  0  0  0
 18 23  2  0  0  0
 19 20  1  0  0  0
 19 31  1  0  0  0
 19 42  1  0  0  0
 19 43  1  0  0  0
 20 22  1  0  0  0
 20 32  1  0  0  0
 20 44  1  0  0  0
 21 32  1  0  0  0
 21 45  1  0  0  0
 22 46  1  0  0  0
 22 47  1  0  0  0
 23 48  1  0  0  0
 24 25  3  0  0  0
 25 49  1  0  0  0
 32 50  1  0  0  0
 33 51  1  0  0  0
 52 56  1  0  0  0
 52 57  1  0  0  0
 53 54  1  0  0  0
 53 55  1  0  0  0
 53 59  1  0  0  0
 53 60  1  0  0  0
 54 56  1  0  0  0
 54 57  1  0  0  0
 54 58  1  0  0  0
 55 61  1  0  0  0
 55 62  1  0  0  0
 56 63  1  0  0  0
 56 64  1  0  0  0
 57 65  1  0  0  0
 57 66  1  0  0  0
 58 67  1  0  0  0
 58 68  1  0  0  0
 58 69  1  0  0  0
M  CHG  1  53   1
M  END
> <s_m_entry_id>
388

> <s_m_entry_name>
000000230.1

> <s_m_Source_Path>
/Users/zaksoul/Documents/3r_UNI/2nd_SEMESTER/BSC/FRAG_RECON/RESULTS/2

> <s_m_Source_File>
000000230.mol2

> <i_m_Source_File_Index>
1

$$$$
No_0_243
                    3D
 Schrodinger Suite 2022-4.
 69 75  0  0  1  0            999 V2000
   -5.4590    3.6740  -21.9860 C   0  0  0  0  0  0
   -5.6680    3.8670  -23.3310 C   0  0  0  0  0  0
   -4.2380    3.4060  -21.5960 C   0  0  0  0  0  0
   -3.2580    3.5240  -23.7230 C   0  0  0  0  0  0
   -3.1580    3.2770  -22.2980 C   0  0  0  0  0  0
   -4.5800    3.8020  -24.2980 C   0  0  0  0  0  0
   -3.7360    3.8170  -26.4640 C   0  0  0  0  0  0
    5.7620    2.9680  -20.8090 C   0  0  0  0  0  0
    5.7280    3.1130  -23.3610 C   0  0  0  0  0  0
   -4.7760    3.9340  -25.6430 C   0  0  0  0  0  0
    1.9540    3.7050  -23.5320 C   0  0  0  0  0  0
    1.1340    4.8220  -23.2650 C   0  0  0  0  0  0
    2.9170    5.9970  -22.5110 C   0  0  0  0  0  0
    3.3430    3.8790  -23.1620 C   0  0  0  0  0  0
    1.4220    2.5940  -24.2160 C   0  0  0  0  0  0
   -0.6980    3.4320  -24.1910 C   0  0  0  0  0  0
   -0.1820    4.6460  -23.5700 C   0  0  0  0  0  0
   -2.1350    3.4550  -24.6040 C   0  0  0  0  0  0
    3.9070    1.3740  -22.8490 C   0  0  0  0  0  0
    4.7900    1.0070  -21.6650 C   0  0  2  0  0  0
    6.4210    2.5300  -22.1350 C   0  0  2  0  0  0
    4.7360    2.0080  -20.4990 C   0  0  0  0  0  0
   -2.4010    3.6190  -26.0440 C   0  0  0  0  0  0
   -1.8440    2.8480  -21.6460 C   0  0  0  0  0  0
   -0.8390    2.4880  -21.0990 C   0  0  0  0  0  0
   -1.0250    5.7000  -23.2580 F   0  0  0  0  0  0
   -4.0870    3.1600  -20.2070 F   0  0  0  0  0  0
    1.6030    5.9750  -22.7130 N   0  0  0  0  0  0
    3.8110    5.0240  -22.6960 N   0  0  0  0  0  0
    0.1290    2.5200  -24.5740 N   0  0  0  0  0  0
    4.2550    2.8210  -23.3030 N   0  0  0  0  0  0
    6.2150    1.0580  -22.0900 N   0  0  1  0  0  0
   -3.8520    3.8350  -27.8600 O   0  0  0  0  0  0
   -6.2886    3.7453  -21.2920 H   0  0  0  0  0  0
   -6.6659    4.0738  -23.7004 H   0  0  0  0  0  0
    5.3068    3.9613  -20.9362 H   0  0  0  0  0  0
    6.5157    2.9680  -20.0078 H   0  0  0  0  0  0
    6.1546    2.6652  -24.2707 H   0  0  0  0  0  0
    5.8854    4.2014  -23.3872 H   0  0  0  0  0  0
   -5.7694    4.1309  -26.0297 H   0  0  0  0  0  0
    2.0630    1.7584  -24.4728 H   0  0  0  0  0  0
    2.8507    1.3296  -22.5453 H   0  0  0  0  0  0
    4.0959    0.6751  -23.6772 H   0  0  0  0  0  0
    4.5386   -0.0025  -21.3076 H   0  0  0  0  0  0
    7.4933    2.7754  -22.1380 H   0  0  0  0  0  0
    3.7570    2.5096  -20.4950 H   0  0  0  0  0  0
    4.9921    1.4897  -19.5632 H   0  0  0  0  0  0
   -1.6009    3.5909  -26.7748 H   0  0  0  0  0  0
    0.0456    2.1711  -20.6172 H   0  0  0  0  0  0
    6.8278    0.5522  -21.3585 H   0  0  0  0  0  0
   -2.9918    3.7370  -28.2510 H   0  0  0  0  0  0
    5.0120   10.4950  -22.1750 O   0  0  0  0  0  0
    4.9830    7.3030  -22.0370 N   0  3  0  0  0  0
    5.7370    8.6050  -21.8760 C   0  0  0  0  0  0
    3.4720    7.3290  -22.0190 C   0  0  0  0  0  0
    5.1070    9.7070  -20.9870 C   0  0  0  0  0  0
    5.5990    9.5620  -23.0830 C   0  0  0  0  0  0
    7.2170    8.3650  -21.5300 C   0  0  0  0  0  0
    5.3089    6.6462  -21.3452 H   0  0  0  0  0  0
    5.2941    6.8449  -22.8793 H   0  0  0  0  0  0
    3.1119    8.1392  -22.6701 H   0  0  0  0  0  0
    3.1211    7.5159  -20.9934 H   0  0  0  0  0  0
    4.0884    9.3761  -20.7361 H   0  0  0  0  0  0
    5.9181   10.1341  -20.3789 H   0  0  0  0  0  0
    6.6072    9.9321  -23.3210 H   0  0  0  0  0  0
    4.7873    9.1721  -23.7148 H   0  0  0  0  0  0
    7.7300    9.3319  -21.4210 H   0  0  0  0  0  0
    7.2870    7.8061  -20.5852 H   0  0  0  0  0  0
    7.6938    7.7862  -22.3347 H   0  0  0  0  0  0
  1  2  2  0  0  0
  1  3  1  0  0  0
  1 34  1  0  0  0
  2  6  1  0  0  0
  2 35  1  0  0  0
  3  5  2  0  0  0
  3 27  1  0  0  0
  4  5  1  0  0  0
  4  6  2  0  0  0
  4 18  1  0  0  0
  5 24  1  0  0  0
  6 10  1  0  0  0
  7 10  2  0  0  0
  7 23  1  0  0  0
  7 33  1  0  0  0
  8 21  1  0  0  0
  8 22  1  0  0  0
  8 36  1  0  0  0
  8 37  1  0  0  0
  9 21  1  0  0  0
  9 31  1  0  0  0
  9 38  1  0  0  0
  9 39  1  0  0  0
 10 40  1  0  0  0
 11 12  1  0  0  0
 11 14  2  0  0  0
 11 15  1  0  0  0
 12 17  1  0  0  0
 12 28  2  0  0  0
 13 28  1  0  0  0
 13 29  2  0  0  0
 13 55  1  0  0  0
 14 29  1  0  0  0
 14 31  1  0  0  0
 15 30  2  0  0  0
 15 41  1  0  0  0
 16 17  2  0  0  0
 16 18  1  0  0  0
 16 30  1  0  0  0
 17 26  1  0  0  0
 18 23  2  0  0  0
 19 20  1  0  0  0
 19 31  1  0  0  0
 19 42  1  0  0  0
 19 43  1  0  0  0
 20 22  1  0  0  0
 20 32  1  0  0  0
 20 44  1  0  0  0
 21 32  1  0  0  0
 21 45  1  0  0  0
 22 46  1  0  0  0
 22 47  1  0  0  0
 23 48  1  0  0  0
 24 25  3  0  0  0
 25 49  1  0  0  0
 32 50  1  0  0  0
 33 51  1  0  0  0
 52 56  1  0  0  0
 52 57  1  0  0  0
 53 54  1  0  0  0
 53 55  1  0  0  0
 53 59  1  0  0  0
 53 60  1  0  0  0
 54 56  1  0  0  0
 54 57  1  0  0  0
 54 58  1  0  0  0
 55 61  1  0  0  0
 55 62  1  0  0  0
 56 63  1  0  0  0
 56 64  1  0  0  0
 57 65  1  0  0  0
 57 66  1  0  0  0
 58 67  1  0  0  0
 58 68  1  0  0  0
 58 69  1  0  0  0
M  CHG  1  53   1
M  END
> <s_m_entry_id>
389

> <s_m_entry_name>
000000231.1

> <s_m_Source_Path>
/Users/zaksoul/Documents/3r_UNI/2nd_SEMESTER/BSC/FRAG_RECON/RESULTS/2

> <s_m_Source_File>
000000231.mol2

> <i_m_Source_File_Index>
1

$$$$
No_0_244
                    3D
 Schrodinger Suite 2022-4.
 69 75  0  0  1  0            999 V2000
   -5.2810    3.3490  -22.0460 C   0  0  0  0  0  0
   -5.5240    3.5570  -23.3830 C   0  0  0  0  0  0
   -4.0440    3.1160  -21.6850 C   0  0  0  0  0  0
   -3.1120    3.3030  -23.8290 C   0  0  0  0  0  0
   -2.9750    3.0350  -22.4100 C   0  0  0  0  0  0
   -4.4540    3.5460  -24.3720 C   0  0  0  0  0  0
   -3.6560    3.6260  -26.5540 C   0  0  0  0  0  0
    5.9790    3.0010  -21.1030 C   0  0  0  0  0  0
    5.8890    3.1890  -23.6520 C   0  0  0  0  0  0
   -4.6810    3.6940  -25.7100 C   0  0  0  0  0  0
    2.0940    3.6560  -23.7370 C   0  0  0  0  0  0
    1.2430    4.7400  -23.4340 C   0  0  0  0  0  0
    3.0000    5.9610  -22.6950 C   0  0  0  0  0  0
    3.4830    3.8700  -23.3920 C   0  0  0  0  0  0
    1.5860    2.5400  -24.4300 C   0  0  0  0  0  0
   -0.5610    3.3050  -24.3480 C   0  0  0  0  0  0
   -0.0730    4.5250  -23.7160 C   0  0  0  0  0  0
   -2.0060    3.2870  -24.7330 C   0  0  0  0  0  0
    4.1370    1.3810  -23.1340 C   0  0  0  0  0  0
    5.0550    1.0230  -21.9750 C   0  0  2  0  0  0
    6.6240    2.6080  -22.4500 C   0  0  2  0  0  0
    4.9920    2.0020  -20.7900 C   0  0  0  0  0  0
   -2.3060    3.4660  -26.1640 C   0  0  0  0  0  0
   -1.6340    2.6390  -21.7920 C   0  0  0  0  0  0
   -0.6070    2.3040  -21.2710 C   0  0  0  0  0  0
   -0.9440    5.5440  -23.3690 F   0  0  0  0  0  0
   -3.8570    2.8510  -20.3030 F   0  0  0  0  0  0
    1.6840    5.8990  -22.8710 N   0  0  0  0  0  0
    3.9220    5.0220  -22.9150 N   0  0  0  0  0  0
    0.2880    2.4280  -24.7640 N   0  0  0  0  0  0
    4.4270    2.8460  -23.5690 N   0  0  0  0  0  0
    6.4690    1.1300  -22.4270 N   0  0  1  0  0  0
   -3.8010    3.6640  -27.9460 O   0  0  0  0  0  0
   -6.0985    3.3811  -21.3349 H   0  0  0  0  0  0
   -6.5357    3.7367  -23.7283 H   0  0  0  0  0  0
    5.4883    3.9803  -21.2040 H   0  0  0  0  0  0
    6.7492    3.0131  -20.3177 H   0  0  0  0  0  0
    6.3110    2.7710  -24.5778 H   0  0  0  0  0  0
    6.0081    4.2825  -23.6611 H   0  0  0  0  0  0
   -5.6882    3.8635  -26.0732 H   0  0  0  0  0  0
    2.2483    1.7302  -24.7140 H   0  0  0  0  0  0
    3.0890    1.2952  -22.8109 H   0  0  0  0  0  0
    4.3318    0.7027  -23.9778 H   0  0  0  0  0  0
    4.8460   -0.0006  -21.6308 H   0  0  0  0  0  0
    7.6874    2.8885  -22.4702 H   0  0  0  0  0  0
    3.9971    2.4702  -20.7577 H   0  0  0  0  0  0
    5.2845    1.4764  -19.8690 H   0  0  0  0  0  0
   -1.5207    3.4781  -26.9111 H   0  0  0  0  0  0
    0.2977    2.0091  -20.8131 H   0  0  0  0  0  0
    7.1136    0.6329  -21.7172 H   0  0  0  0  0  0
   -2.9461    3.6027  -28.3557 H   0  0  0  0  0  0
    4.6990   10.6220  -22.3270 O   0  0  0  0  0  0
    4.9910    7.4450  -22.5080 N   0  3  0  0  0  0
    5.6400    8.8040  -22.3690 C   0  0  0  0  0  0
    3.5210    7.3030  -22.1900 C   0  0  0  0  0  0
    5.1090    9.7560  -21.2670 C   0  0  0  0  0  0
    5.1680    9.8350  -23.4220 C   0  0  0  0  0  0
    7.1750    8.7020  -22.3470 C   0  0  0  0  0  0
    5.5119    6.7751  -21.9641 H   0  0  0  0  0  0
    5.1629    7.0922  -23.4365 H   0  0  0  0  0  0
    2.9613    8.1176  -22.6728 H   0  0  0  0  0  0
    3.3730    7.3670  -21.1019 H   0  0  0  0  0  0
    4.1985    9.2962  -20.8552 H   0  0  0  0  0  0
    5.9846   10.2203  -20.7897 H   0  0  0  0  0  0
    6.0675   10.3307  -23.8158 H   0  0  0  0  0  0
    4.2833    9.4091  -23.9179 H   0  0  0  0  0  0
    7.6080    9.7080  -22.2450 H   0  0  0  0  0  0
    7.4900    8.0801  -21.4961 H   0  0  0  0  0  0
    7.5261    8.2458  -23.2843 H   0  0  0  0  0  0
  1  2  2  0  0  0
  1  3  1  0  0  0
  1 34  1  0  0  0
  2  6  1  0  0  0
  2 35  1  0  0  0
  3  5  2  0  0  0
  3 27  1  0  0  0
  4  5  1  0  0  0
  4  6  2  0  0  0
  4 18  1  0  0  0
  5 24  1  0  0  0
  6 10  1  0  0  0
  7 10  2  0  0  0
  7 23  1  0  0  0
  7 33  1  0  0  0
  8 21  1  0  0  0
  8 22  1  0  0  0
  8 36  1  0  0  0
  8 37  1  0  0  0
  9 21  1  0  0  0
  9 31  1  0  0  0
  9 38  1  0  0  0
  9 39  1  0  0  0
 10 40  1  0  0  0
 11 12  1  0  0  0
 11 14  2  0  0  0
 11 15  1  0  0  0
 12 17  1  0  0  0
 12 28  2  0  0  0
 13 28  1  0  0  0
 13 29  2  0  0  0
 13 55  1  0  0  0
 14 29  1  0  0  0
 14 31  1  0  0  0
 15 30  2  0  0  0
 15 41  1  0  0  0
 16 17  2  0  0  0
 16 18  1  0  0  0
 16 30  1  0  0  0
 17 26  1  0  0  0
 18 23  2  0  0  0
 19 20  1  0  0  0
 19 31  1  0  0  0
 19 42  1  0  0  0
 19 43  1  0  0  0
 20 22  1  0  0  0
 20 32  1  0  0  0
 20 44  1  0  0  0
 21 32  1  0  0  0
 21 45  1  0  0  0
 22 46  1  0  0  0
 22 47  1  0  0  0
 23 48  1  0  0  0
 24 25  3  0  0  0
 25 49  1  0  0  0
 32 50  1  0  0  0
 33 51  1  0  0  0
 52 56  1  0  0  0
 52 57  1  0  0  0
 53 54  1  0  0  0
 53 55  1  0  0  0
 53 59  1  0  0  0
 53 60  1  0  0  0
 54 56  1  0  0  0
 54 57  1  0  0  0
 54 58  1  0  0  0
 55 61  1  0  0  0
 55 62  1  0  0  0
 56 63  1  0  0  0
 56 64  1  0  0  0
 57 65  1  0  0  0
 57 66  1  0  0  0
 58 67  1  0  0  0
 58 68  1  0  0  0
 58 69  1  0  0  0
M  CHG  1  53   1
M  END
> <s_m_entry_id>
390

> <s_m_entry_name>
000000232.1

> <s_m_Source_Path>
/Users/zaksoul/Documents/3r_UNI/2nd_SEMESTER/BSC/FRAG_RECON/RESULTS/2

> <s_m_Source_File>
000000232.mol2

> <i_m_Source_File_Index>
1

$$$$
No_0_245
                    3D
 Schrodinger Suite 2022-4.
 67 73  0  0  1  0            999 V2000
   -5.1090    3.6490  -22.0870 C   0  0  0  0  0  0
   -5.3840    3.8460  -23.4200 C   0  0  0  0  0  0
   -3.8680    3.3970  -21.7560 C   0  0  0  0  0  0
   -2.9910    3.5400  -23.9270 C   0  0  0  0  0  0
   -2.8200    3.2860  -22.5090 C   0  0  0  0  0  0
   -4.3420    3.8030  -24.4370 C   0  0  0  0  0  0
   -3.6020    3.8410  -26.6400 C   0  0  0  0  0  0
    6.1640    3.0970  -21.4430 C   0  0  0  0  0  0
    6.0080    3.2570  -23.9900 C   0  0  0  0  0  0
   -4.6030    3.9380  -25.7700 C   0  0  0  0  0  0
    2.2220    3.7950  -23.9790 C   0  0  0  0  0  0
    1.4000    4.8990  -23.6670 C   0  0  0  0  0  0
    3.1990    6.0950  -22.9910 C   0  0  0  0  0  0
    3.6240    3.9870  -23.6740 C   0  0  0  0  0  0
    1.6740    2.6810  -24.6440 C   0  0  0  0  0  0
   -0.4550    3.4870  -24.5150 C   0  0  0  0  0  0
    0.0730    4.7050  -23.9110 C   0  0  0  0  0  0
   -1.9100    3.4920  -24.8600 C   0  0  0  0  0  0
    4.2380    1.4890  -23.4030 C   0  0  0  0  0  0
    5.1800    1.1280  -22.2650 C   0  0  2  0  0  0
    6.7650    2.6760  -22.8010 C   0  0  2  0  0  0
    5.1670    2.1210  -21.0910 C   0  0  0  0  0  0
   -2.2450    3.6600  -26.2840 C   0  0  0  0  0  0
   -1.4710    2.8730  -21.9220 C   0  0  0  0  0  0
   -0.4360    2.5240  -21.4250 C   0  0  0  0  0  0
   -0.7690    5.7450  -23.5540 F   0  0  0  0  0  0
   -3.6480    3.1450  -20.3770 F   0  0  0  0  0  0
    1.8770    6.0560  -23.1310 N   0  0  0  0  0  0
    4.0970    5.1360  -23.2230 N   0  0  0  0  0  0
    0.3660    2.5900  -24.9420 N   0  0  0  0  0  0
    4.5430    2.9430  -23.8640 N   0  0  0  0  0  0
    6.5830    1.2020  -22.7560 N   0  0  1  0  0  0
   -3.7830    3.8650  -28.0280 O   0  0  0  0  0  0
   -5.9064    3.7052  -21.3549 H   0  0  0  0  0  0
   -6.4011    4.0408  -23.7403 H   0  0  0  0  0  0
    5.6899    4.0845  -21.5429 H   0  0  0  0  0  0
    6.9543    3.1051  -20.6779 H   0  0  0  0  0  0
    6.3975    2.8201  -24.9213 H   0  0  0  0  0  0
    6.1482    4.3477  -24.0162 H   0  0  0  0  0  0
   -5.6161    4.1228  -26.1084 H   0  0  0  0  0  0
    2.3130    1.8554  -24.9359 H   0  0  0  0  0  0
    3.1977    1.4275  -23.0509 H   0  0  0  0  0  0
    4.3964    0.7970  -24.2433 H   0  0  0  0  0  0
    4.9611    0.1130  -21.9018 H   0  0  0  0  0  0
    7.8325    2.9363  -22.8535 H   0  0  0  0  0  0
    4.1827    2.6091  -21.0375 H   0  0  0  0  0  0
    5.4747    1.6025  -20.1710 H   0  0  0  0  0  0
   -1.4806    3.6480  -27.0525 H   0  0  0  0  0  0
    0.4752    2.2179  -20.9879 H   0  0  0  0  0  0
    7.2364    0.7016  -22.0567 H   0  0  0  0  0  0
   -2.9412    3.7819  -28.4603 H   0  0  0  0  0  0
    4.5680    9.5570  -19.9790 O   0  0  0  0  0  0
    7.7580    7.7130  -19.9200 O   0  5  0  0  0  0
    7.9000    8.6040  -22.0150 O   0  0  0  0  0  0
    5.1840    7.2660  -22.0460 N   0  0  1  0  0  0
    5.2450    9.7350  -21.2240 C   0  0  0  0  0  0
    5.0270    8.2360  -19.6930 C   0  0  0  0  0  0
    7.2470    8.1920  -20.9930 C   0  0  0  0  0  0
    3.7580    7.4320  -22.5170 C   0  0  0  0  0  0
    5.7380    8.2750  -21.0680 C   0  0  0  0  0  0
    5.2899    6.3128  -21.5494 H   0  0  0  0  0  0
    6.1074   10.3906  -21.0331 H   0  0  0  0  0  0
    4.4788    9.7370  -22.0132 H   0  0  0  0  0  0
    4.1625    7.5634  -19.7939 H   0  0  0  0  0  0
    5.8064    8.3230  -18.9216 H   0  0  0  0  0  0
    3.7280    8.1558  -23.3448 H   0  0  0  0  0  0
    3.1409    7.8151  -21.6909 H   0  0  0  0  0  0
  1  2  2  0  0  0
  1  3  1  0  0  0
  1 34  1  0  0  0
  2  6  1  0  0  0
  2 35  1  0  0  0
  3  5  2  0  0  0
  3 27  1  0  0  0
  4  5  1  0  0  0
  4  6  2  0  0  0
  4 18  1  0  0  0
  5 24  1  0  0  0
  6 10  1  0  0  0
  7 10  2  0  0  0
  7 23  1  0  0  0
  7 33  1  0  0  0
  8 21  1  0  0  0
  8 22  1  0  0  0
  8 36  1  0  0  0
  8 37  1  0  0  0
  9 21  1  0  0  0
  9 31  1  0  0  0
  9 38  1  0  0  0
  9 39  1  0  0  0
 10 40  1  0  0  0
 11 12  1  0  0  0
 11 14  2  0  0  0
 11 15  1  0  0  0
 12 17  1  0  0  0
 12 28  2  0  0  0
 13 28  1  0  0  0
 13 29  2  0  0  0
 13 59  1  0  0  0
 14 29  1  0  0  0
 14 31  1  0  0  0
 15 30  2  0  0  0
 15 41  1  0  0  0
 16 17  2  0  0  0
 16 18  1  0  0  0
 16 30  1  0  0  0
 17 26  1  0  0  0
 18 23  2  0  0  0
 19 20  1  0  0  0
 19 31  1  0  0  0
 19 42  1  0  0  0
 19 43  1  0  0  0
 20 22  1  0  0  0
 20 32  1  0  0  0
 20 44  1  0  0  0
 21 32  1  0  0  0
 21 45  1  0  0  0
 22 46  1  0  0  0
 22 47  1  0  0  0
 23 48  1  0  0  0
 24 25  3  0  0  0
 25 49  1  0  0  0
 32 50  1  0  0  0
 33 51  1  0  0  0
 52 56  1  0  0  0
 52 57  1  0  0  0
 53 58  1  0  0  0
 54 58  2  0  0  0
 55 59  1  0  0  0
 55 60  1  0  0  0
 55 61  1  0  0  0
 56 60  1  0  0  0
 56 62  1  0  0  0
 56 63  1  0  0  0
 57 60  1  0  0  0
 57 64  1  0  0  0
 57 65  1  0  0  0
 58 60  1  0  0  0
 59 66  1  0  0  0
 59 67  1  0  0  0
M  CHG  1  53  -1
M  END
> <s_m_entry_id>
391

> <s_m_entry_name>
000000233.1

> <s_m_Source_Path>
/Users/zaksoul/Documents/3r_UNI/2nd_SEMESTER/BSC/FRAG_RECON/RESULTS/2

> <s_m_Source_File>
000000233.mol2

> <i_m_Source_File_Index>
1

$$$$
No_0_246
                    3D
 Schrodinger Suite 2022-4.
 67 73  0  0  1  0            999 V2000
   -5.2750    3.5510  -22.0620 C   0  0  0  0  0  0
   -5.5280    3.7430  -23.4000 C   0  0  0  0  0  0
   -4.0410    3.2980  -21.7090 C   0  0  0  0  0  0
   -3.1270    3.4300  -23.8650 C   0  0  0  0  0  0
   -2.9810    3.1830  -22.4440 C   0  0  0  0  0  0
   -4.4690    3.6930  -24.4000 C   0  0  0  0  0  0
   -3.6910    3.7200  -26.5900 C   0  0  0  0  0  0
    5.9830    2.9820  -21.2240 C   0  0  0  0  0  0
    5.8710    3.1300  -23.7750 C   0  0  0  0  0  0
   -4.7060    3.8230  -25.7370 C   0  0  0  0  0  0
    2.0860    3.6750  -23.8310 C   0  0  0  0  0  0
    1.2610    4.7820  -23.5380 C   0  0  0  0  0  0
    3.0510    5.9780  -22.8360 C   0  0  0  0  0  0
    3.4830    3.8660  -23.5020 C   0  0  0  0  0  0
    1.5480    2.5590  -24.5000 C   0  0  0  0  0  0
   -0.5810    3.3700  -24.4100 C   0  0  0  0  0  0
   -0.0620    4.5890  -23.8030 C   0  0  0  0  0  0
   -2.0300    3.3760  -24.7790 C   0  0  0  0  0  0
    4.0880    1.3680  -23.2100 C   0  0  0  0  0  0
    5.0100    1.0100  -22.0540 C   0  0  2  0  0  0
    6.6070    2.5530  -22.5710 C   0  0  2  0  0  0
    4.9790    2.0090  -20.8850 C   0  0  0  0  0  0
   -2.3410    3.5380  -26.2100 C   0  0  0  0  0  0
   -1.6420    2.7690  -21.8320 C   0  0  0  0  0  0
   -0.6170    2.4210  -21.3160 C   0  0  0  0  0  0
   -0.9080    5.6330  -23.4650 F   0  0  0  0  0  0
   -3.8440    3.0530  -20.3260 F   0  0  0  0  0  0
    1.7320    5.9400  -22.9980 N   0  0  0  0  0  0
    3.9510    5.0160  -23.0490 N   0  0  0  0  0  0
    0.2450    2.4690  -24.8190 N   0  0  0  0  0  0
    4.4040    2.8190  -23.6720 N   0  0  0  0  0  0
    6.4210    1.0800  -22.5220 N   0  0  1  0  0  0
   -3.8490    3.7380  -27.9810 O   0  0  0  0  0  0
   -6.0851    3.6122  -21.3443 H   0  0  0  0  0  0
   -6.5392    3.9378  -23.7384 H   0  0  0  0  0  0
    5.5127    3.9700  -21.3370 H   0  0  0  0  0  0
    6.7613    2.9911  -20.4467 H   0  0  0  0  0  0
    6.2757    2.6880  -24.6974 H   0  0  0  0  0  0
    6.0134    4.2204  -23.8043 H   0  0  0  0  0  0
   -5.7131    4.0076  -26.0931 H   0  0  0  0  0  0
    2.1904    1.7309  -24.7770 H   0  0  0  0  0  0
    3.0419    1.3095  -22.8751 H   0  0  0  0  0  0
    4.2595    0.6719  -24.0443 H   0  0  0  0  0  0
    4.7829   -0.0032  -21.6907 H   0  0  0  0  0  0
    7.6757    2.8113  -22.6053 H   0  0  0  0  0  0
    3.9944    2.4983  -20.8507 H   0  0  0  0  0  0
    5.2696    1.4934  -19.9578 H   0  0  0  0  0  0
   -1.5636    3.5209  -26.9653 H   0  0  0  0  0  0
    0.2860    2.1150  -20.8620 H   0  0  0  0  0  0
    7.0614    0.5807  -21.8100 H   0  0  0  0  0  0
   -2.9997    3.6509  -28.3977 H   0  0  0  0  0  0
    4.7900    9.2900  -19.8470 O   0  0  0  0  0  0
    8.0390    7.7370  -20.6310 O   0  5  0  0  0  0
    7.6660    8.8050  -22.6130 O   0  0  0  0  0  0
    5.1060    7.2380  -22.2120 N   0  0  1  0  0  0
    5.1710    9.6280  -21.1810 C   0  0  0  0  0  0
    5.3900    7.9960  -19.7930 C   0  0  0  0  0  0
    7.2780    8.2550  -21.5230 C   0  0  0  0  0  0
    3.6050    7.3160  -22.3590 C   0  0  0  0  0  0
    5.7860    8.2100  -21.2760 C   0  0  0  0  0  0
    5.3821    6.2606  -21.8448 H   0  0  0  0  0  0
    6.0066   10.3397  -21.1090 H   0  0  0  0  0  0
    4.2550    9.6260  -21.7900 H   0  0  0  0  0  0
    4.5723    7.2603  -19.7790 H   0  0  0  0  0  0
    6.3092    8.0880  -19.1959 H   0  0  0  0  0  0
    3.3481    8.0988  -23.0878 H   0  0  0  0  0  0
    3.1542    7.5739  -21.3893 H   0  0  0  0  0  0
  1  2  2  0  0  0
  1  3  1  0  0  0
  1 34  1  0  0  0
  2  6  1  0  0  0
  2 35  1  0  0  0
  3  5  2  0  0  0
  3 27  1  0  0  0
  4  5  1  0  0  0
  4  6  2  0  0  0
  4 18  1  0  0  0
  5 24  1  0  0  0
  6 10  1  0  0  0
  7 10  2  0  0  0
  7 23  1  0  0  0
  7 33  1  0  0  0
  8 21  1  0  0  0
  8 22  1  0  0  0
  8 36  1  0  0  0
  8 37  1  0  0  0
  9 21  1  0  0  0
  9 31  1  0  0  0
  9 38  1  0  0  0
  9 39  1  0  0  0
 10 40  1  0  0  0
 11 12  1  0  0  0
 11 14  2  0  0  0
 11 15  1  0  0  0
 12 17  1  0  0  0
 12 28  2  0  0  0
 13 28  1  0  0  0
 13 29  2  0  0  0
 13 59  1  0  0  0
 14 29  1  0  0  0
 14 31  1  0  0  0
 15 30  2  0  0  0
 15 41  1  0  0  0
 16 17  2  0  0  0
 16 18  1  0  0  0
 16 30  1  0  0  0
 17 26  1  0  0  0
 18 23  2  0  0  0
 19 20  1  0  0  0
 19 31  1  0  0  0
 19 42  1  0  0  0
 19 43  1  0  0  0
 20 22  1  0  0  0
 20 32  1  0  0  0
 20 44  1  0  0  0
 21 32  1  0  0  0
 21 45  1  0  0  0
 22 46  1  0  0  0
 22 47  1  0  0  0
 23 48  1  0  0  0
 24 25  3  0  0  0
 25 49  1  0  0  0
 32 50  1  0  0  0
 33 51  1  0  0  0
 52 56  1  0  0  0
 52 57  1  0  0  0
 53 58  1  0  0  0
 54 58  2  0  0  0
 55 59  1  0  0  0
 55 60  1  0  0  0
 55 61  1  0  0  0
 56 60  1  0  0  0
 56 62  1  0  0  0
 56 63  1  0  0  0
 57 60  1  0  0  0
 57 64  1  0  0  0
 57 65  1  0  0  0
 58 60  1  0  0  0
 59 66  1  0  0  0
 59 67  1  0  0  0
M  CHG  1  53  -1
M  END
> <s_m_entry_id>
392

> <s_m_entry_name>
000000234.1

> <s_m_Source_Path>
/Users/zaksoul/Documents/3r_UNI/2nd_SEMESTER/BSC/FRAG_RECON/RESULTS/2

> <s_m_Source_File>
000000234.mol2

> <i_m_Source_File_Index>
1

$$$$
No_0_247
                    3D
 Schrodinger Suite 2022-4.
 67 73  0  0  1  0            999 V2000
   -5.1810    3.6090  -21.8530 C   0  0  0  0  0  0
   -5.4520    3.8050  -23.1860 C   0  0  0  0  0  0
   -3.9420    3.3510  -21.5190 C   0  0  0  0  0  0
   -3.0590    3.4860  -23.6870 C   0  0  0  0  0  0
   -2.8930    3.2340  -22.2690 C   0  0  0  0  0  0
   -4.4090    3.7540  -24.2010 C   0  0  0  0  0  0
   -3.6630    3.7850  -26.4030 C   0  0  0  0  0  0
    6.0870    3.0010  -21.1820 C   0  0  0  0  0  0
    5.9380    3.1560  -23.7310 C   0  0  0  0  0  0
   -4.6650    3.8890  -25.5350 C   0  0  0  0  0  0
    2.1540    3.7130  -23.7290 C   0  0  0  0  0  0
    1.3370    4.8230  -23.4210 C   0  0  0  0  0  0
    3.1410    6.0110  -22.7430 C   0  0  0  0  0  0
    3.5570    3.8990  -23.4210 C   0  0  0  0  0  0
    1.6030    2.6010  -24.3930 C   0  0  0  0  0  0
   -0.5220    3.4190  -24.2700 C   0  0  0  0  0  0
    0.0100    4.6350  -23.6670 C   0  0  0  0  0  0
   -1.9770    3.4300  -24.6180 C   0  0  0  0  0  0
    4.1570    1.3990  -23.1440 C   0  0  0  0  0  0
    5.0950    1.0350  -22.0030 C   0  0  2  0  0  0
    6.6890    2.5740  -22.5390 C   0  0  2  0  0  0
    5.0840    2.0310  -20.8310 C   0  0  0  0  0  0
   -2.3080    3.5970  -26.0440 C   0  0  0  0  0  0
   -1.5470    2.8150  -21.6780 C   0  0  0  0  0  0
   -0.5150    2.4620  -21.1780 C   0  0  0  0  0  0
   -0.8280    5.6800  -23.3140 F   0  0  0  0  0  0
   -3.7260    3.1020  -20.1390 F   0  0  0  0  0  0
    1.8200    5.9780  -22.8860 N   0  0  0  0  0  0
    4.0350    5.0470  -22.9720 N   0  0  0  0  0  0
    0.2950    2.5160  -24.6930 N   0  0  0  0  0  0
    4.4710    2.8500  -23.6070 N   0  0  0  0  0  0
    6.5000    1.1010  -22.4910 N   0  0  1  0  0  0
   -3.8410    3.8060  -27.7920 O   0  0  0  0  0  0
   -5.9796    3.6712  -21.1226 H   0  0  0  0  0  0
   -6.4675    4.0037  -23.5091 H   0  0  0  0  0  0
    5.6179    3.9906  -21.2849 H   0  0  0  0  0  0
    6.8763    3.0060  -20.4159 H   0  0  0  0  0  0
    6.3275    2.7150  -24.6604 H   0  0  0  0  0  0
    6.0833    4.2460  -23.7593 H   0  0  0  0  0  0
   -5.6765    4.0776  -25.8762 H   0  0  0  0  0  0
    2.2385    1.7718  -24.6821 H   0  0  0  0  0  0
    3.1157    1.3435  -22.7939 H   0  0  0  0  0  0
    4.3144    0.7047  -23.9826 H   0  0  0  0  0  0
    4.8700    0.0218  -21.6387 H   0  0  0  0  0  0
    7.7578    2.8293  -22.5885 H   0  0  0  0  0  0
    4.1018    2.5236  -20.7805 H   0  0  0  0  0  0
    5.3877    1.5123  -19.9097 H   0  0  0  0  0  0
   -1.5411    3.5789  -26.8099 H   0  0  0  0  0  0
    0.3934    2.1519  -20.7378 H   0  0  0  0  0  0
    7.1492    0.5983  -21.7894 H   0  0  0  0  0  0
   -2.9984    3.7179  -28.2217 H   0  0  0  0  0  0
    5.6380    9.1300  -20.1030 O   0  0  0  0  0  0
    8.3870    8.2930  -22.4100 O   0  5  0  0  0  0
    7.1040    9.5430  -23.8230 O   0  0  0  0  0  0
    5.1280    7.5130  -22.7540 N   0  0  1  0  0  0
    5.3810    9.7110  -21.3820 C   0  0  0  0  0  0
    6.3310    7.9660  -20.5520 C   0  0  0  0  0  0
    7.2720    8.7880  -22.8020 C   0  0  0  0  0  0
    3.7060    7.3460  -22.2710 C   0  0  0  0  0  0
    6.0380    8.4490  -21.9940 C   0  0  0  0  0  0
    5.6307    6.5575  -22.7290 H   0  0  0  0  0  0
    6.0918   10.5407  -21.5100 H   0  0  0  0  0  0
    4.2986    9.6330  -21.5621 H   0  0  0  0  0  0
    5.6763    7.1034  -20.3591 H   0  0  0  0  0  0
    7.4019    8.1340  -20.3650 H   0  0  0  0  0  0
    3.0872    8.1657  -22.6649 H   0  0  0  0  0  0
    3.6860    7.3850  -21.1719 H   0  0  0  0  0  0
  1  2  2  0  0  0
  1  3  1  0  0  0
  1 34  1  0  0  0
  2  6  1  0  0  0
  2 35  1  0  0  0
  3  5  2  0  0  0
  3 27  1  0  0  0
  4  5  1  0  0  0
  4  6  2  0  0  0
  4 18  1  0  0  0
  5 24  1  0  0  0
  6 10  1  0  0  0
  7 10  2  0  0  0
  7 23  1  0  0  0
  7 33  1  0  0  0
  8 21  1  0  0  0
  8 22  1  0  0  0
  8 36  1  0  0  0
  8 37  1  0  0  0
  9 21  1  0  0  0
  9 31  1  0  0  0
  9 38  1  0  0  0
  9 39  1  0  0  0
 10 40  1  0  0  0
 11 12  1  0  0  0
 11 14  2  0  0  0
 11 15  1  0  0  0
 12 17  1  0  0  0
 12 28  2  0  0  0
 13 28  1  0  0  0
 13 29  2  0  0  0
 13 59  1  0  0  0
 14 29  1  0  0  0
 14 31  1  0  0  0
 15 30  2  0  0  0
 15 41  1  0  0  0
 16 17  2  0  0  0
 16 18  1  0  0  0
 16 30  1  0  0  0
 17 26  1  0  0  0
 18 23  2  0  0  0
 19 20  1  0  0  0
 19 31  1  0  0  0
 19 42  1  0  0  0
 19 43  1  0  0  0
 20 22  1  0  0  0
 20 32  1  0  0  0
 20 44  1  0  0  0
 21 32  1  0  0  0
 21 45  1  0  0  0
 22 46  1  0  0  0
 22 47  1  0  0  0
 23 48  1  0  0  0
 24 25  3  0  0  0
 25 49  1  0  0  0
 32 50  1  0  0  0
 33 51  1  0  0  0
 52 56  1  0  0  0
 52 57  1  0  0  0
 53 58  1  0  0  0
 54 58  2  0  0  0
 55 59  1  0  0  0
 55 60  1  0  0  0
 55 61  1  0  0  0
 56 60  1  0  0  0
 56 62  1  0  0  0
 56 63  1  0  0  0
 57 60  1  0  0  0
 57 64  1  0  0  0
 57 65  1  0  0  0
 58 60  1  0  0  0
 59 66  1  0  0  0
 59 67  1  0  0  0
M  CHG  1  53  -1
M  END
> <s_m_entry_id>
393

> <s_m_entry_name>
000000235.1

> <s_m_Source_Path>
/Users/zaksoul/Documents/3r_UNI/2nd_SEMESTER/BSC/FRAG_RECON/RESULTS/2

> <s_m_Source_File>
000000235.mol2

> <i_m_Source_File_Index>
1

$$$$
No_0_248
                    3D
 Schrodinger Suite 2022-4.
 67 73  0  0  1  0            999 V2000
   -5.3530    3.6820  -21.7180 C   0  0  0  0  0  0
   -5.6190    3.8920  -23.0510 C   0  0  0  0  0  0
   -4.1170    3.4110  -21.3820 C   0  0  0  0  0  0
   -3.2270    3.5590  -23.5470 C   0  0  0  0  0  0
   -3.0670    3.2930  -22.1300 C   0  0  0  0  0  0
   -4.5720    3.8430  -24.0630 C   0  0  0  0  0  0
   -3.8190    3.8880  -26.2610 C   0  0  0  0  0  0
    5.9070    2.9820  -21.0160 C   0  0  0  0  0  0
    5.7680    3.1610  -23.5630 C   0  0  0  0  0  0
   -4.8230    3.9910  -25.3960 C   0  0  0  0  0  0
    1.9890    3.7470  -23.5690 C   0  0  0  0  0  0
    1.1790    4.8600  -23.2540 C   0  0  0  0  0  0
    2.9900    6.0280  -22.5590 C   0  0  0  0  0  0
    3.3910    3.9200  -23.2550 C   0  0  0  0  0  0
    1.4310    2.6450  -24.2450 C   0  0  0  0  0  0
   -0.6880    3.4780  -24.1210 C   0  0  0  0  0  0
   -0.1490    4.6850  -23.5060 C   0  0  0  0  0  0
   -2.1410    3.5040  -24.4740 C   0  0  0  0  0  0
    3.9720    1.4120  -22.9990 C   0  0  0  0  0  0
    4.9030    1.0310  -21.8580 C   0  0  2  0  0  0
    6.5110    2.5630  -22.3750 C   0  0  2  0  0  0
    4.8960    2.0160  -20.6770 C   0  0  0  0  0  0
   -2.4660    3.6870  -25.8990 C   0  0  0  0  0  0
   -1.7260    2.8580  -21.5390 C   0  0  0  0  0  0
   -0.6990    2.4930  -21.0390 C   0  0  0  0  0  0
   -0.9790    5.7330  -23.1460 F   0  0  0  0  0  0
   -3.9080    3.1470  -20.0040 F   0  0  0  0  0  0
    1.6690    6.0060  -22.7060 N   0  0  0  0  0  0
    3.8770    5.0590  -22.7930 N   0  0  0  0  0  0
    0.1230    2.5730  -24.5510 N   0  0  0  0  0  0
    4.2990    2.8650  -23.4480 N   0  0  0  0  0  0
    6.3100    1.0900  -22.3410 N   0  0  1  0  0  0
   -3.9920    3.9240  -27.6500 O   0  0  0  0  0  0
   -6.1540    3.7432  -20.9902 H   0  0  0  0  0  0
   -6.6319    4.1018  -23.3752 H   0  0  0  0  0  0
    5.4466    3.9764  -21.1119 H   0  0  0  0  0  0
    6.6943    2.9729  -20.2479 H   0  0  0  0  0  0
    6.1566    2.7260  -24.4956 H   0  0  0  0  0  0
    5.9214    4.2501  -23.5812 H   0  0  0  0  0  0
   -5.8318    4.1917  -25.7383 H   0  0  0  0  0  0
    2.0613    1.8139  -24.5401 H   0  0  0  0  0  0
    2.9291    1.3615  -22.6527 H   0  0  0  0  0  0
    4.1264    0.7235  -23.8429 H   0  0  0  0  0  0
    4.6690    0.0162  -21.5039 H   0  0  0  0  0  0
    7.5822    2.8093  -22.4184 H   0  0  0  0  0  0
    3.9175    2.5159  -20.6255 H   0  0  0  0  0  0
    5.1927    1.4862  -19.7598 H   0  0  0  0  0  0
   -1.6976    3.6699  -26.6634 H   0  0  0  0  0  0
    0.2055    2.1712  -20.5992 H   0  0  0  0  0  0
    6.9537    0.5757  -21.6428 H   0  0  0  0  0  0
   -3.1486    3.8329  -28.0776 H   0  0  0  0  0  0
    5.8220    9.0780  -20.1900 O   0  0  0  0  0  0
    8.0230    8.7080  -23.1230 O   0  5  0  0  0  0
    6.3790    9.9750  -24.0690 O   0  0  0  0  0  0
    4.8260    7.6880  -22.8320 N   0  0  1  0  0  0
    5.2470    9.7560  -21.3080 C   0  0  0  0  0  0
    6.4670    8.0260  -20.9100 C   0  0  0  0  0  0
    6.8200    9.1410  -23.2020 C   0  0  0  0  0  0
    3.5640    7.3540  -22.0720 C   0  0  0  0  0  0
    5.8250    8.6210  -22.1880 C   0  0  0  0  0  0
    5.3801    6.7818  -23.0271 H   0  0  0  0  0  0
    5.8569   10.6528  -21.4920 H   0  0  0  0  0  0
    4.1589    9.6040  -21.2540 H   0  0  0  0  0  0
    5.9267    7.0964  -20.6779 H   0  0  0  0  0  0
    7.5397    8.2672  -20.9440 H   0  0  0  0  0  0
    2.8223    8.1516  -22.2259 H   0  0  0  0  0  0
    3.7901    7.2840  -20.9978 H   0  0  0  0  0  0
  1  2  2  0  0  0
  1  3  1  0  0  0
  1 34  1  0  0  0
  2  6  1  0  0  0
  2 35  1  0  0  0
  3  5  2  0  0  0
  3 27  1  0  0  0
  4  5  1  0  0  0
  4  6  2  0  0  0
  4 18  1  0  0  0
  5 24  1  0  0  0
  6 10  1  0  0  0
  7 10  2  0  0  0
  7 23  1  0  0  0
  7 33  1  0  0  0
  8 21  1  0  0  0
  8 22  1  0  0  0
  8 36  1  0  0  0
  8 37  1  0  0  0
  9 21  1  0  0  0
  9 31  1  0  0  0
  9 38  1  0  0  0
  9 39  1  0  0  0
 10 40  1  0  0  0
 11 12  1  0  0  0
 11 14  2  0  0  0
 11 15  1  0  0  0
 12 17  1  0  0  0
 12 28  2  0  0  0
 13 28  1  0  0  0
 13 29  2  0  0  0
 13 59  1  0  0  0
 14 29  1  0  0  0
 14 31  1  0  0  0
 15 30  2  0  0  0
 15 41  1  0  0  0
 16 17  2  0  0  0
 16 18  1  0  0  0
 16 30  1  0  0  0
 17 26  1  0  0  0
 18 23  2  0  0  0
 19 20  1  0  0  0
 19 31  1  0  0  0
 19 42  1  0  0  0
 19 43  1  0  0  0
 20 22  1  0  0  0
 20 32  1  0  0  0
 20 44  1  0  0  0
 21 32  1  0  0  0
 21 45  1  0  0  0
 22 46  1  0  0  0
 22 47  1  0  0  0
 23 48  1  0  0  0
 24 25  3  0  0  0
 25 49  1  0  0  0
 32 50  1  0  0  0
 33 51  1  0  0  0
 52 56  1  0  0  0
 52 57  1  0  0  0
 53 58  1  0  0  0
 54 58  2  0  0  0
 55 59  1  0  0  0
 55 60  1  0  0  0
 55 61  1  0  0  0
 56 60  1  0  0  0
 56 62  1  0  0  0
 56 63  1  0  0  0
 57 60  1  0  0  0
 57 64  1  0  0  0
 57 65  1  0  0  0
 58 60  1  0  0  0
 59 66  1  0  0  0
 59 67  1  0  0  0
M  CHG  1  53  -1
M  END
> <s_m_entry_id>
394

> <s_m_entry_name>
000000236.1

> <s_m_Source_Path>
/Users/zaksoul/Documents/3r_UNI/2nd_SEMESTER/BSC/FRAG_RECON/RESULTS/2

> <s_m_Source_File>
000000236.mol2

> <i_m_Source_File_Index>
1

$$$$
No_0_249
                    3D
 Schrodinger Suite 2022-4.
 72 78  0  0  1  0            999 V2000
   -5.1790    3.7300  -21.7480 C   0  0  0  0  0  0
   -5.4850    3.8920  -23.0790 C   0  0  0  0  0  0
   -3.9300    3.4900  -21.4390 C   0  0  0  0  0  0
   -3.1030    3.5790  -23.6320 C   0  0  0  0  0  0
   -2.9000    3.3630  -22.2120 C   0  0  0  0  0  0
   -4.4670    3.8240  -24.1180 C   0  0  0  0  0  0
   -3.7760    3.8070  -26.3370 C   0  0  0  0  0  0
    6.1060    3.2250  -21.3450 C   0  0  0  0  0  0
    5.8930    3.3170  -23.8910 C   0  0  0  0  0  0
   -4.7570    3.9250  -25.4480 C   0  0  0  0  0  0
    2.1060    3.8450  -23.8090 C   0  0  0  0  0  0
    1.2880    4.9550  -23.5070 C   0  0  0  0  0  0
    3.0980    6.1730  -22.9030 C   0  0  0  0  0  0
    3.5140    4.0490  -23.5400 C   0  0  0  0  0  0
    1.5470    2.7130  -24.4320 C   0  0  0  0  0  0
   -0.5810    3.5170  -24.2750 C   0  0  0  0  0  0
   -0.0440    4.7510  -23.7160 C   0  0  0  0  0  0
   -2.0430    3.5090  -24.5870 C   0  0  0  0  0  0
    4.1420    1.5600  -23.2180 C   0  0  0  0  0  0
    5.1100    1.2320  -22.0920 C   0  0  2  0  0  0
    6.6780    2.7700  -22.7050 C   0  0  2  0  0  0
    5.1210    2.2550  -20.9450 C   0  0  0  0  0  0
   -2.4110    3.6390  -26.0080 C   0  0  0  0  0  0
   -1.5360    2.9680  -21.6450 C   0  0  0  0  0  0
   -0.4900    2.6350  -21.1630 C   0  0  0  0  0  0
   -0.8810    5.7990  -23.3670 F   0  0  0  0  0  0
   -3.6790    3.2760  -20.0590 F   0  0  0  0  0  0
    1.7740    6.1270  -23.0120 N   0  0  0  0  0  0
    3.9930    5.2110  -23.1310 N   0  0  0  0  0  0
    0.2330    2.6100  -24.6970 N   0  0  0  0  0  0
    4.4320    3.0020  -23.7240 N   0  0  0  0  0  0
    6.5020    1.2960  -22.6170 N   0  0  1  0  0  0
   -3.9890    3.7940  -27.7220 O   0  0  0  0  0  0
   -5.9601    3.8033  -21.0000 H   0  0  0  0  0  0
   -6.5097    4.0757  -23.3811 H   0  0  0  0  0  0
    5.6265    4.2083  -21.4601 H   0  0  0  0  0  0
    6.9142    3.2543  -20.5994 H   0  0  0  0  0  0
    6.2622    2.8560  -24.8190 H   0  0  0  0  0  0
    6.0283    4.4071  -23.9495 H   0  0  0  0  0  0
   -5.7782    4.0975  -25.7680 H   0  0  0  0  0  0
    2.1824    1.8819  -24.7161 H   0  0  0  0  0  0
    3.1098    1.5055  -22.8417 H   0  0  0  0  0  0
    4.2833    0.8472  -24.0438 H   0  0  0  0  0  0
    4.9021    0.2260  -21.6985 H   0  0  0  0  0  0
    7.7433    3.0313  -22.7877 H   0  0  0  0  0  0
    4.1363    2.7413  -20.8824 H   0  0  0  0  0  0
    5.4512    1.7613  -20.0191 H   0  0  0  0  0  0
   -1.6641    3.6079  -26.7930 H   0  0  0  0  0  0
    0.4317    2.3431  -20.7382 H   0  0  0  0  0  0
    7.1725    0.8158  -21.9197 H   0  0  0  0  0  0
   -3.1566    3.7019  -28.1704 H   0  0  0  0  0  0
    4.3050    7.4380  -21.1170 N   0  3  0  0  0  0
    6.3620    8.8360  -20.8760 C   0  0  0  0  0  0
    8.4930    9.0710  -22.0360 C   0  0  0  0  0  0
    4.8800    8.7310  -20.6040 C   0  0  0  0  0  0
    3.6640    7.5240  -22.4780 C   0  0  0  0  0  0
    8.7340    9.0600  -20.5150 C   0  0  0  0  0  0
    6.9770    8.8610  -22.2550 C   0  0  0  0  0  0
    7.3300    8.9420  -19.9940 C   0  0  0  0  0  0
    3.6329    7.0849  -20.4539 H   0  0  0  0  0  0
    5.0261    6.7339  -21.1330 H   0  0  0  0  0  0
    9.0480    8.2429  -22.5010 H   0  0  0  0  0  0
    8.7898   10.0473  -22.4467 H   0  0  0  0  0  0
    4.6999    8.8070  -19.5215 H   0  0  0  0  0  0
    4.3600    9.5760  -21.0790 H   0  0  0  0  0  0
    4.4103    7.8571  -23.2143 H   0  0  0  0  0  0
    2.8541    8.2679  -22.4550 H   0  0  0  0  0  0
    9.1508   10.0306  -20.2081 H   0  0  0  0  0  0
    9.2961    8.1538  -20.2450 H   0  0  0  0  0  0
    6.5680    9.7110  -22.8210 H   0  0  0  0  0  0
    6.8089    7.8917  -22.7472 H   0  0  0  0  0  0
    7.0990    8.9420  -18.9298 H   0  0  0  0  0  0
  1  2  2  0  0  0
  1  3  1  0  0  0
  1 34  1  0  0  0
  2  6  1  0  0  0
  2 35  1  0  0  0
  3  5  2  0  0  0
  3 27  1  0  0  0
  4  5  1  0  0  0
  4  6  2  0  0  0
  4 18  1  0  0  0
  5 24  1  0  0  0
  6 10  1  0  0  0
  7 10  2  0  0  0
  7 23  1  0  0  0
  7 33  1  0  0  0
  8 21  1  0  0  0
  8 22  1  0  0  0
  8 36  1  0  0  0
  8 37  1  0  0  0
  9 21  1  0  0  0
  9 31  1  0  0  0
  9 38  1  0  0  0
  9 39  1  0  0  0
 10 40  1  0  0  0
 11 12  1  0  0  0
 11 14  2  0  0  0
 11 15  1  0  0  0
 12 17  1  0  0  0
 12 28  2  0  0  0
 13 28  1  0  0  0
 13 29  2  0  0  0
 13 56  1  0  0  0
 14 29  1  0  0  0
 14 31  1  0  0  0
 15 30  2  0  0  0
 15 41  1  0  0  0
 16 17  2  0  0  0
 16 18  1  0  0  0
 16 30  1  0  0  0
 17 26  1  0  0  0
 18 23  2  0  0  0
 19 20  1  0  0  0
 19 31  1  0  0  0
 19 42  1  0  0  0
 19 43  1  0  0  0
 20 22  1  0  0  0
 20 32  1  0  0  0
 20 44  1  0  0  0
 21 32  1  0  0  0
 21 45  1  0  0  0
 22 46  1  0  0  0
 22 47  1  0  0  0
 23 48  1  0  0  0
 24 25  3  0  0  0
 25 49  1  0  0  0
 32 50  1  0  0  0
 33 51  1  0  0  0
 52 55  1  0  0  0
 52 56  1  0  0  0
 52 60  1  0  0  0
 52 61  1  0  0  0
 53 55  1  0  0  0
 53 58  1  0  0  0
 53 59  2  0  0  0
 54 57  1  0  0  0
 54 58  1  0  0  0
 54 62  1  0  0  0
 54 63  1  0  0  0
 55 64  1  0  0  0
 55 65  1  0  0  0
 56 66  1  0  0  0
 56 67  1  0  0  0
 57 59  1  0  0  0
 57 68  1  0  0  0
 57 69  1  0  0  0
 58 70  1  0  0  0
 58 71  1  0  0  0
 59 72  1  0  0  0
M  CHG  1  52   1
M  END
> <s_m_entry_id>
395

> <s_m_entry_name>
000000237.1

> <s_m_Source_Path>
/Users/zaksoul/Documents/3r_UNI/2nd_SEMESTER/BSC/FRAG_RECON/RESULTS/2

> <s_m_Source_File>
000000237.mol2

> <i_m_Source_File_Index>
1

$$$$
No_0_250
                    3D
 Schrodinger Suite 2022-4.
 72 78  0  0  1  0            999 V2000
   -4.9930    3.6070  -22.2900 C   0  0  0  0  0  0
   -5.2270    3.8500  -23.6220 C   0  0  0  0  0  0
   -3.7710    3.2990  -21.9360 C   0  0  0  0  0  0
   -2.8350    3.4670  -24.0800 C   0  0  0  0  0  0
   -2.7100    3.1690  -22.6660 C   0  0  0  0  0  0
   -4.1630    3.7940  -24.6150 C   0  0  0  0  0  0
   -3.3660    3.8640  -26.7980 C   0  0  0  0  0  0
    6.2310    2.6110  -21.3900 C   0  0  0  0  0  0
    6.1460    2.8450  -23.9350 C   0  0  0  0  0  0
   -4.3840    3.9760  -25.9500 C   0  0  0  0  0  0
    2.3830    3.5250  -24.0000 C   0  0  0  0  0  0
    1.5950    4.6510  -23.6770 C   0  0  0  0  0  0
    3.4200    5.7590  -22.9250 C   0  0  0  0  0  0
    3.7830    3.6560  -23.6560 C   0  0  0  0  0  0
    1.8110    2.4510  -24.7090 C   0  0  0  0  0  0
   -0.2890    3.3340  -24.6080 C   0  0  0  0  0  0
    0.2680    4.5140  -23.9580 C   0  0  0  0  0  0
   -1.7340    3.4030  -24.9880 C   0  0  0  0  0  0
    4.2970    1.1300  -23.4400 C   0  0  0  0  0  0
    5.1960    0.7030  -22.2890 C   0  0  2  0  0  0
    6.8500    2.2040  -22.7440 C   0  0  2  0  0  0
    5.1900    1.6640  -21.0890 C   0  0  0  0  0  0
   -2.0260    3.6220  -26.4150 C   0  0  0  0  0  0
   -1.3920    2.6890  -22.0580 C   0  0  0  0  0  0
   -0.3840    2.2890  -21.5470 C   0  0  0  0  0  0
   -0.5430    5.5760  -23.5930 F   0  0  0  0  0  0
   -3.5950    3.0030  -20.5600 F   0  0  0  0  0  0
    2.1020    5.7740  -23.0980 N   0  0  0  0  0  0
    4.2870    4.7740  -23.1620 N   0  0  0  0  0  0
    0.5080    2.4180  -25.0400 N   0  0  0  0  0  0
    4.6680    2.5830  -23.8530 N   0  0  0  0  0  0
    6.6130    0.7370  -22.7440 N   0  0  1  0  0  0
   -3.5120    3.9320  -28.1890 O   0  0  0  0  0  0
   -5.8057    3.6732  -21.5757 H   0  0  0  0  0  0
   -6.2279    4.0909  -23.9613 H   0  0  0  0  0  0
    5.7970    3.6183  -21.4738 H   0  0  0  0  0  0
    7.0021    2.5676  -20.6068 H   0  0  0  0  0  0
    6.5416    2.4181  -24.8684 H   0  0  0  0  0  0
    6.3267    3.9300  -23.9279 H   0  0  0  0  0  0
   -5.3808    4.2079  -26.3074 H   0  0  0  0  0  0
    2.4262    1.6100  -25.0081 H   0  0  0  0  0  0
    3.2468    1.0987  -23.1142 H   0  0  0  0  0  0
    4.4505    0.4555  -24.2953 H   0  0  0  0  0  0
    4.9296   -0.3123  -21.9600 H   0  0  0  0  0  0
    7.9274    2.4249  -22.7632 H   0  0  0  0  0  0
    4.2236    2.1876  -21.0456 H   0  0  0  0  0  0
    5.4553    1.1091  -20.1770 H   0  0  0  0  0  0
   -1.2437    3.6009  -27.1651 H   0  0  0  0  0  0
    0.5034    1.9362  -21.0963 H   0  0  0  0  0  0
    7.2294    0.1923  -22.0441 H   0  0  0  0  0  0
   -2.6630    3.8291  -28.6026 H   0  0  0  0  0  0
    4.7770    6.8320  -21.1210 N   0  3  0  0  0  0
    6.8430    8.2230  -20.9060 C   0  0  0  0  0  0
    8.8610    8.6150  -22.2160 C   0  0  0  0  0  0
    5.3910    8.0670  -20.5180 C   0  0  0  0  0  0
    4.0170    7.0610  -22.4010 C   0  0  0  0  0  0
    9.2360    8.4370  -20.7330 C   0  0  0  0  0  0
    7.3320    8.4100  -22.3220 C   0  0  0  0  0  0
    7.8850    8.2420  -20.1070 C   0  0  0  0  0  0
    4.1680    6.3980  -20.4450 H   0  0  0  0  0  0
    5.4971    6.1449  -21.2800 H   0  0  0  0  0  0
    9.3749    7.8511  -22.8179 H   0  0  0  0  0  0
    9.1158    9.6352  -22.5388 H   0  0  0  0  0  0
    5.3079    8.0200  -19.4221 H   0  0  0  0  0  0
    4.8279    8.9532  -20.8461 H   0  0  0  0  0  0
    4.6931    7.4850  -23.1581 H   0  0  0  0  0  0
    3.2105    7.7876  -22.2231 H   0  0  0  0  0  0
    9.6758    9.3726  -20.3572 H   0  0  0  0  0  0
    9.8238    7.5143  -20.6180 H   0  0  0  0  0  0
    6.8710    9.3119  -22.7510 H   0  0  0  0  0  0
    7.1240    7.5000  -22.9040 H   0  0  0  0  0  0
    7.7499    8.1189  -19.0334 H   0  0  0  0  0  0
  1  2  2  0  0  0
  1  3  1  0  0  0
  1 34  1  0  0  0
  2  6  1  0  0  0
  2 35  1  0  0  0
  3  5  2  0  0  0
  3 27  1  0  0  0
  4  5  1  0  0  0
  4  6  2  0  0  0
  4 18  1  0  0  0
  5 24  1  0  0  0
  6 10  1  0  0  0
  7 10  2  0  0  0
  7 23  1  0  0  0
  7 33  1  0  0  0
  8 21  1  0  0  0
  8 22  1  0  0  0
  8 36  1  0  0  0
  8 37  1  0  0  0
  9 21  1  0  0  0
  9 31  1  0  0  0
  9 38  1  0  0  0
  9 39  1  0  0  0
 10 40  1  0  0  0
 11 12  1  0  0  0
 11 14  2  0  0  0
 11 15  1  0  0  0
 12 17  1  0  0  0
 12 28  2  0  0  0
 13 28  1  0  0  0
 13 29  2  0  0  0
 13 56  1  0  0  0
 14 29  1  0  0  0
 14 31  1  0  0  0
 15 30  2  0  0  0
 15 41  1  0  0  0
 16 17  2  0  0  0
 16 18  1  0  0  0
 16 30  1  0  0  0
 17 26  1  0  0  0
 18 23  2  0  0  0
 19 20  1  0  0  0
 19 31  1  0  0  0
 19 42  1  0  0  0
 19 43  1  0  0  0
 20 22  1  0  0  0
 20 32  1  0  0  0
 20 44  1  0  0  0
 21 32  1  0  0  0
 21 45  1  0  0  0
 22 46  1  0  0  0
 22 47  1  0  0  0
 23 48  1  0  0  0
 24 25  3  0  0  0
 25 49  1  0  0  0
 32 50  1  0  0  0
 33 51  1  0  0  0
 52 55  1  0  0  0
 52 56  1  0  0  0
 52 60  1  0  0  0
 52 61  1  0  0  0
 53 55  1  0  0  0
 53 58  1  0  0  0
 53 59  2  0  0  0
 54 57  1  0  0  0
 54 58  1  0  0  0
 54 62  1  0  0  0
 54 63  1  0  0  0
 55 64  1  0  0  0
 55 65  1  0  0  0
 56 66  1  0  0  0
 56 67  1  0  0  0
 57 59  1  0  0  0
 57 68  1  0  0  0
 57 69  1  0  0  0
 58 70  1  0  0  0
 58 71  1  0  0  0
 59 72  1  0  0  0
M  CHG  1  52   1
M  END
> <s_m_entry_id>
396

> <s_m_entry_name>
000000238.1

> <s_m_Source_Path>
/Users/zaksoul/Documents/3r_UNI/2nd_SEMESTER/BSC/FRAG_RECON/RESULTS/2

> <s_m_Source_File>
000000238.mol2

> <i_m_Source_File_Index>
1

$$$$
No_0_251
                    3D
 Schrodinger Suite 2022-4.
 72 78  0  0  1  0            999 V2000
   -5.4920    3.3190  -21.8310 C   0  0  0  0  0  0
   -5.7730    3.5150  -23.1620 C   0  0  0  0  0  0
   -4.2480    3.0730  -21.5040 C   0  0  0  0  0  0
   -3.3800    3.2190  -23.6780 C   0  0  0  0  0  0
   -3.2030    2.9660  -22.2610 C   0  0  0  0  0  0
   -4.7350    3.4760  -24.1840 C   0  0  0  0  0  0
   -4.0030    3.5170  -26.3890 C   0  0  0  0  0  0
    5.7850    2.8140  -21.2290 C   0  0  0  0  0  0
    5.6190    2.9720  -23.7760 C   0  0  0  0  0  0
   -5.0010    3.6100  -25.5160 C   0  0  0  0  0  0
    1.8310    3.4950  -23.7510 C   0  0  0  0  0  0
    1.0060    4.5960  -23.4360 C   0  0  0  0  0  0
    2.8030    5.7990  -22.7670 C   0  0  0  0  0  0
    3.2330    3.6930  -23.4510 C   0  0  0  0  0  0
    1.2850    2.3780  -24.4130 C   0  0  0  0  0  0
   -0.8460    3.1760  -24.2760 C   0  0  0  0  0  0
   -0.3210    4.3960  -23.6740 C   0  0  0  0  0  0
   -2.3030    3.1750  -24.6150 C   0  0  0  0  0  0
    3.8580    1.1970  -23.1810 C   0  0  0  0  0  0
    4.8060    0.8410  -22.0460 C   0  0  2  0  0  0
    6.3830    2.3950  -22.5890 C   0  0  2  0  0  0
    4.7940    1.8340  -20.8730 C   0  0  0  0  0  0
   -2.6440    3.3410  -26.0390 C   0  0  0  0  0  0
   -1.8500    2.5580  -21.6790 C   0  0  0  0  0  0
   -0.8120    2.2140  -21.1860 C   0  0  0  0  0  0
   -1.1670    5.4330  -23.3140 F   0  0  0  0  0  0
   -4.0220    2.8230  -20.1260 F   0  0  0  0  0  0
    1.4800    5.7540  -22.9020 N   0  0  0  0  0  0
    3.7030    4.8440  -23.0020 N   0  0  0  0  0  0
   -0.0240    2.2820  -24.7060 N   0  0  0  0  0  0
    4.1560    2.6520  -23.6440 N   0  0  0  0  0  0
    6.2070    0.9200  -22.5430 N   0  0  1  0  0  0
   -4.1900    3.5390  -27.7770 O   0  0  0  0  0  0
   -6.2871    3.3722  -21.0961 H   0  0  0  0  0  0
   -6.7920    3.7047  -23.4793 H   0  0  0  0  0  0
    5.3068    3.7998  -21.3269 H   0  0  0  0  0  0
    6.5787    2.8251  -20.4675 H   0  0  0  0  0  0
    6.0066    2.5360  -24.7086 H   0  0  0  0  0  0
    5.7542    4.0633  -23.8032 H   0  0  0  0  0  0
   -6.0162    3.7907  -25.8504 H   0  0  0  0  0  0
    1.9270    1.5555  -24.7069 H   0  0  0  0  0  0
    2.8194    1.1314  -22.8247 H   0  0  0  0  0  0
    4.0165    0.5056  -24.0218 H   0  0  0  0  0  0
    4.5931   -0.1752  -21.6827 H   0  0  0  0  0  0
    7.4490    2.6603  -22.6455 H   0  0  0  0  0  0
    3.8079    2.3180  -20.8155 H   0  0  0  0  0  0
    5.1067    1.3165  -19.9541 H   0  0  0  0  0  0
   -1.8821    3.3320  -26.8100 H   0  0  0  0  0  0
    0.1021    1.9120  -20.7520 H   0  0  0  0  0  0
    6.8655    0.4229  -21.8460 H   0  0  0  0  0  0
   -3.3489    3.4598  -28.2114 H   0  0  0  0  0  0
    4.3900    6.9480  -21.2160 N   0  3  0  0  0  0
    6.3000    8.5550  -21.3420 C   0  0  0  0  0  0
    7.9450    9.2280  -23.0100 C   0  0  0  0  0  0
    4.9860    8.2200  -20.6750 C   0  0  0  0  0  0
    3.3580    7.1390  -22.2960 C   0  0  0  0  0  0
    8.6410    9.0350  -21.6500 C   0  0  0  0  0  0
    6.4570    8.8540  -22.8130 C   0  0  0  0  0  0
    7.4790    8.6620  -20.7740 C   0  0  0  0  0  0
    3.9861    6.4201  -20.4582 H   0  0  0  0  0  0
    5.1278    6.3541  -21.5609 H   0  0  0  0  0  0
    8.3967    8.5525  -23.7514 H   0  0  0  0  0  0
    8.0200   10.2825  -23.3141 H   0  0  0  0  0  0
    5.1410    8.1190  -19.5907 H   0  0  0  0  0  0
    4.2778    9.0482  -20.8250 H   0  0  0  0  0  0
    3.8122    7.6672  -23.1473 H   0  0  0  0  0  0
    2.5363    7.7608  -21.9111 H   0  0  0  0  0  0
    9.0510    9.9989  -21.3140 H   0  0  0  0  0  0
    9.3317    8.1814  -21.7150 H   0  0  0  0  0  0
    5.8259    9.7141  -23.0810 H   0  0  0  0  0  0
    6.2280    7.9498  -23.3961 H   0  0  0  0  0  0
    7.5870    8.4821  -19.7054 H   0  0  0  0  0  0
  1  2  2  0  0  0
  1  3  1  0  0  0
  1 34  1  0  0  0
  2  6  1  0  0  0
  2 35  1  0  0  0
  3  5  2  0  0  0
  3 27  1  0  0  0
  4  5  1  0  0  0
  4  6  2  0  0  0
  4 18  1  0  0  0
  5 24  1  0  0  0
  6 10  1  0  0  0
  7 10  2  0  0  0
  7 23  1  0  0  0
  7 33  1  0  0  0
  8 21  1  0  0  0
  8 22  1  0  0  0
  8 36  1  0  0  0
  8 37  1  0  0  0
  9 21  1  0  0  0
  9 31  1  0  0  0
  9 38  1  0  0  0
  9 39  1  0  0  0
 10 40  1  0  0  0
 11 12  1  0  0  0
 11 14  2  0  0  0
 11 15  1  0  0  0
 12 17  1  0  0  0
 12 28  2  0  0  0
 13 28  1  0  0  0
 13 29  2  0  0  0
 13 56  1  0  0  0
 14 29  1  0  0  0
 14 31  1  0  0  0
 15 30  2  0  0  0
 15 41  1  0  0  0
 16 17  2  0  0  0
 16 18  1  0  0  0
 16 30  1  0  0  0
 17 26  1  0  0  0
 18 23  2  0  0  0
 19 20  1  0  0  0
 19 31  1  0  0  0
 19 42  1  0  0  0
 19 43  1  0  0  0
 20 22  1  0  0  0
 20 32  1  0  0  0
 20 44  1  0  0  0
 21 32  1  0  0  0
 21 45  1  0  0  0
 22 46  1  0  0  0
 22 47  1  0  0  0
 23 48  1  0  0  0
 24 25  3  0  0  0
 25 49  1  0  0  0
 32 50  1  0  0  0
 33 51  1  0  0  0
 52 55  1  0  0  0
 52 56  1  0  0  0
 52 60  1  0  0  0
 52 61  1  0  0  0
 53 55  1  0  0  0
 53 58  1  0  0  0
 53 59  2  0  0  0
 54 57  1  0  0  0
 54 58  1  0  0  0
 54 62  1  0  0  0
 54 63  1  0  0  0
 55 64  1  0  0  0
 55 65  1  0  0  0
 56 66  1  0  0  0
 56 67  1  0  0  0
 57 59  1  0  0  0
 57 68  1  0  0  0
 57 69  1  0  0  0
 58 70  1  0  0  0
 58 71  1  0  0  0
 59 72  1  0  0  0
M  CHG  1  52   1
M  END
> <s_m_entry_id>
397

> <s_m_entry_name>
000000239.1

> <s_m_Source_Path>
/Users/zaksoul/Documents/3r_UNI/2nd_SEMESTER/BSC/FRAG_RECON/RESULTS/2

> <s_m_Source_File>
000000239.mol2

> <i_m_Source_File_Index>
1

$$$$
No_0_252
                    3D
 Schrodinger Suite 2022-4.
 72 78  0  0  1  0            999 V2000
   -5.1810    3.6090  -21.8530 C   0  0  0  0  0  0
   -5.4520    3.8050  -23.1860 C   0  0  0  0  0  0
   -3.9420    3.3510  -21.5190 C   0  0  0  0  0  0
   -3.0590    3.4860  -23.6870 C   0  0  0  0  0  0
   -2.8930    3.2340  -22.2690 C   0  0  0  0  0  0
   -4.4090    3.7540  -24.2010 C   0  0  0  0  0  0
   -3.6630    3.7850  -26.4030 C   0  0  0  0  0  0
    6.0870    3.0010  -21.1820 C   0  0  0  0  0  0
    5.9380    3.1560  -23.7310 C   0  0  0  0  0  0
   -4.6650    3.8890  -25.5350 C   0  0  0  0  0  0
    2.1540    3.7130  -23.7290 C   0  0  0  0  0  0
    1.3370    4.8230  -23.4210 C   0  0  0  0  0  0
    3.1410    6.0110  -22.7430 C   0  0  0  0  0  0
    3.5570    3.8990  -23.4210 C   0  0  0  0  0  0
    1.6030    2.6010  -24.3930 C   0  0  0  0  0  0
   -0.5220    3.4190  -24.2700 C   0  0  0  0  0  0
    0.0100    4.6350  -23.6670 C   0  0  0  0  0  0
   -1.9770    3.4300  -24.6180 C   0  0  0  0  0  0
    4.1570    1.3990  -23.1440 C   0  0  0  0  0  0
    5.0950    1.0350  -22.0030 C   0  0  2  0  0  0
    6.6890    2.5740  -22.5390 C   0  0  2  0  0  0
    5.0840    2.0310  -20.8310 C   0  0  0  0  0  0
   -2.3080    3.5970  -26.0440 C   0  0  0  0  0  0
   -1.5470    2.8150  -21.6780 C   0  0  0  0  0  0
   -0.5150    2.4620  -21.1780 C   0  0  0  0  0  0
   -0.8280    5.6800  -23.3140 F   0  0  0  0  0  0
   -3.7260    3.1020  -20.1390 F   0  0  0  0  0  0
    1.8200    5.9780  -22.8860 N   0  0  0  0  0  0
    4.0350    5.0470  -22.9720 N   0  0  0  0  0  0
    0.2950    2.5160  -24.6930 N   0  0  0  0  0  0
    4.4710    2.8500  -23.6070 N   0  0  0  0  0  0
    6.5000    1.1010  -22.4910 N   0  0  1  0  0  0
   -3.8410    3.8060  -27.7920 O   0  0  0  0  0  0
   -5.9796    3.6712  -21.1226 H   0  0  0  0  0  0
   -6.4675    4.0037  -23.5091 H   0  0  0  0  0  0
    5.6179    3.9906  -21.2849 H   0  0  0  0  0  0
    6.8763    3.0060  -20.4159 H   0  0  0  0  0  0
    6.3275    2.7150  -24.6604 H   0  0  0  0  0  0
    6.0833    4.2460  -23.7593 H   0  0  0  0  0  0
   -5.6765    4.0776  -25.8762 H   0  0  0  0  0  0
    2.2385    1.7718  -24.6821 H   0  0  0  0  0  0
    3.1157    1.3435  -22.7939 H   0  0  0  0  0  0
    4.3144    0.7047  -23.9826 H   0  0  0  0  0  0
    4.8700    0.0218  -21.6387 H   0  0  0  0  0  0
    7.7578    2.8293  -22.5885 H   0  0  0  0  0  0
    4.1018    2.5236  -20.7805 H   0  0  0  0  0  0
    5.3877    1.5123  -19.9097 H   0  0  0  0  0  0
   -1.5411    3.5789  -26.8099 H   0  0  0  0  0  0
    0.3934    2.1519  -20.7378 H   0  0  0  0  0  0
    7.1492    0.5983  -21.7894 H   0  0  0  0  0  0
   -2.9984    3.7179  -28.2217 H   0  0  0  0  0  0
    4.9640    7.1480  -21.4670 N   0  3  0  0  0  0
    6.6960    8.9110  -21.8430 C   0  0  0  0  0  0
    7.8800    9.8550  -23.7530 C   0  0  0  0  0  0
    5.5890    8.4140  -20.9440 C   0  0  0  0  0  0
    3.7060    7.3460  -22.2710 C   0  0  0  0  0  0
    8.8750    9.6040  -22.6030 C   0  0  0  0  0  0
    6.5010    9.3460  -23.2750 C   0  0  0  0  0  0
    7.9640    9.0640  -21.5380 C   0  0  0  0  0  0
    4.7729    6.5267  -20.6966 H   0  0  0  0  0  0
    5.6400    6.6480  -22.0230 H   0  0  0  0  0  0
    8.1942    9.2846  -24.6396 H   0  0  0  0  0  0
    7.8210   10.9343  -23.9569 H   0  0  0  0  0  0
    5.9889    8.2340  -19.9352 H   0  0  0  0  0  0
    4.8160    9.1910  -20.8500 H   0  0  0  0  0  0
    3.9250    7.9799  -23.1429 H   0  0  0  0  0  0
    2.9561    7.8639  -21.6551 H   0  0  0  0  0  0
    9.2901   10.5663  -22.2689 H   0  0  0  0  0  0
    9.5836    8.8184  -22.9042 H   0  0  0  0  0  0
    5.7741   10.1708  -23.3110 H   0  0  0  0  0  0
    6.2012    8.4795  -23.8827 H   0  0  0  0  0  0
    8.3199    8.8031  -20.5424 H   0  0  0  0  0  0
  1  2  2  0  0  0
  1  3  1  0  0  0
  1 34  1  0  0  0
  2  6  1  0  0  0
  2 35  1  0  0  0
  3  5  2  0  0  0
  3 27  1  0  0  0
  4  5  1  0  0  0
  4  6  2  0  0  0
  4 18  1  0  0  0
  5 24  1  0  0  0
  6 10  1  0  0  0
  7 10  2  0  0  0
  7 23  1  0  0  0
  7 33  1  0  0  0
  8 21  1  0  0  0
  8 22  1  0  0  0
  8 36  1  0  0  0
  8 37  1  0  0  0
  9 21  1  0  0  0
  9 31  1  0  0  0
  9 38  1  0  0  0
  9 39  1  0  0  0
 10 40  1  0  0  0
 11 12  1  0  0  0
 11 14  2  0  0  0
 11 15  1  0  0  0
 12 17  1  0  0  0
 12 28  2  0  0  0
 13 28  1  0  0  0
 13 29  2  0  0  0
 13 56  1  0  0  0
 14 29  1  0  0  0
 14 31  1  0  0  0
 15 30  2  0  0  0
 15 41  1  0  0  0
 16 17  2  0  0  0
 16 18  1  0  0  0
 16 30  1  0  0  0
 17 26  1  0  0  0
 18 23  2  0  0  0
 19 20  1  0  0  0
 19 31  1  0  0  0
 19 42  1  0  0  0
 19 43  1  0  0  0
 20 22  1  0  0  0
 20 32  1  0  0  0
 20 44  1  0  0  0
 21 32  1  0  0  0
 21 45  1  0  0  0
 22 46  1  0  0  0
 22 47  1  0  0  0
 23 48  1  0  0  0
 24 25  3  0  0  0
 25 49  1  0  0  0
 32 50  1  0  0  0
 33 51  1  0  0  0
 52 55  1  0  0  0
 52 56  1  0  0  0
 52 60  1  0  0  0
 52 61  1  0  0  0
 53 55  1  0  0  0
 53 58  1  0  0  0
 53 59  2  0  0  0
 54 57  1  0  0  0
 54 58  1  0  0  0
 54 62  1  0  0  0
 54 63  1  0  0  0
 55 64  1  0  0  0
 55 65  1  0  0  0
 56 66  1  0  0  0
 56 67  1  0  0  0
 57 59  1  0  0  0
 57 68  1  0  0  0
 57 69  1  0  0  0
 58 70  1  0  0  0
 58 71  1  0  0  0
 59 72  1  0  0  0
M  CHG  1  52   1
M  END
> <s_m_entry_id>
398

> <s_m_entry_name>
000000240.1

> <s_m_Source_Path>
/Users/zaksoul/Documents/3r_UNI/2nd_SEMESTER/BSC/FRAG_RECON/RESULTS/2

> <s_m_Source_File>
000000240.mol2

> <i_m_Source_File_Index>
1

$$$$
No_0_253
                    3D
 Schrodinger Suite 2022-4.
 75 81  0  0  1  0            999 V2000
   -5.1760    3.5170  -21.5810 C   0  0  0  0  0  0
   -5.4910    3.6600  -22.9120 C   0  0  0  0  0  0
   -3.9230    3.2950  -21.2760 C   0  0  0  0  0  0
   -3.1080    3.3670  -23.4740 C   0  0  0  0  0  0
   -2.8950    3.1700  -22.0530 C   0  0  0  0  0  0
   -4.4770    3.5920  -23.9560 C   0  0  0  0  0  0
   -3.7980    3.5570  -26.1780 C   0  0  0  0  0  0
    6.1170    3.1430  -21.2350 C   0  0  0  0  0  0
    5.8880    3.2030  -23.7810 C   0  0  0  0  0  0
   -4.7760    3.6730  -25.2850 C   0  0  0  0  0  0
    2.0960    3.6900  -23.6830 C   0  0  0  0  0  0
    1.2670    4.7940  -23.3900 C   0  0  0  0  0  0
    3.0670    6.0390  -22.8100 C   0  0  0  0  0  0
    3.5030    3.9130  -23.4250 C   0  0  0  0  0  0
    1.5470    2.5440  -24.2900 C   0  0  0  0  0  0
   -0.5890    3.3260  -24.1310 C   0  0  0  0  0  0
   -0.0630    4.5730  -23.5890 C   0  0  0  0  0  0
   -2.0530    3.2980  -24.4350 C   0  0  0  0  0  0
    4.1610    1.4350  -23.0780 C   0  0  0  0  0  0
    5.1390    1.1310  -21.9540 C   0  0  2  0  0  0
    6.6860    2.6790  -22.5930 C   0  0  2  0  0  0
    5.1440    2.1680  -20.8180 C   0  0  0  0  0  0
   -2.4300    3.4070  -25.8550 C   0  0  0  0  0  0
   -1.5240    2.7970  -21.4890 C   0  0  0  0  0  0
   -0.4710    2.4820  -21.0090 C   0  0  0  0  0  0
   -0.9100    5.6150  -23.2470 F   0  0  0  0  0  0
   -3.6610    3.0990  -19.8950 F   0  0  0  0  0  0
    1.7430    5.9770  -22.9110 N   0  0  0  0  0  0
    3.9720    5.0840  -23.0320 N   0  0  0  0  0  0
    0.2330    2.4240  -24.5470 N   0  0  0  0  0  0
    4.4330    2.8750  -23.6020 N   0  0  0  0  0  0
    6.5270    1.2050  -22.4870 N   0  0  1  0  0  0
   -4.0190    3.5250  -27.5610 O   0  0  0  0  0  0
   -5.9537    3.5903  -20.8294 H   0  0  0  0  0  0
   -6.5194    3.8287  -23.2103 H   0  0  0  0  0  0
    5.6257    4.1195  -21.3581 H   0  0  0  0  0  0
    6.9286    3.1904  -20.4940 H   0  0  0  0  0  0
    6.2584    2.7358  -24.7054 H   0  0  0  0  0  0
    6.0111    4.2937  -23.8526 H   0  0  0  0  0  0
   -5.8007    3.8316  -25.6011 H   0  0  0  0  0  0
    2.1902    1.7172  -24.5689 H   0  0  0  0  0  0
    3.1318    1.3735  -22.6946 H   0  0  0  0  0  0
    4.3064    0.7140  -23.8959 H   0  0  0  0  0  0
    4.9454    0.1277  -21.5466 H   0  0  0  0  0  0
    7.7478    2.9513  -22.6848 H   0  0  0  0  0  0
    4.1546    2.6445  -20.7554 H   0  0  0  0  0  0
    5.4851    1.6886  -19.8886 H   0  0  0  0  0  0
   -1.6862    3.3759  -26.6430 H   0  0  0  0  0  0
    0.4561    2.2050  -20.5860 H   0  0  0  0  0  0
    7.2066    0.7402  -21.7881 H   0  0  0  0  0  0
   -3.1881    3.4370  -28.0131 H   0  0  0  0  0  0
    3.6590    7.5370  -20.9040 N   0  3  0  0  0  0
    4.1610    8.8470  -20.3520 C   0  0  0  0  0  0
    5.4060   10.1920  -22.1740 C   0  0  0  0  0  0
    7.8990    9.8490  -22.3700 C   0  0  0  0  0  0
    6.6260    8.9430  -20.4170 C   0  0  0  0  0  0
    5.4740    9.2670  -20.9740 C   0  0  0  0  0  0
    3.6200    7.4010  -22.4040 C   0  0  0  0  0  0
    6.7600   10.8780  -22.4380 C   0  0  0  0  0  0
    8.0020    9.2810  -20.9430 C   0  0  0  0  0  0
    2.7424    7.3479  -20.5297 H   0  0  0  0  0  0
    4.2056    6.7835  -20.5173 H   0  0  0  0  0  0
    4.2831    8.7629  -19.2620 H   0  0  0  0  0  0
    3.4076    9.6294  -20.5259 H   0  0  0  0  0  0
    4.6351   10.9579  -22.0030 H   0  0  0  0  0  0
    5.1070    9.6171  -23.0629 H   0  0  0  0  0  0
    8.8484   10.3347  -22.6398 H   0  0  0  0  0  0
    7.6970    9.0309  -23.0771 H   0  0  0  0  0  0
    6.6410    8.3757  -19.4875 H   0  0  0  0  0  0
    4.6356    7.5211  -22.8092 H   0  0  0  0  0  0
    2.9863    8.1946  -22.8268 H   0  0  0  0  0  0
    6.9280   11.6611  -21.6839 H   0  0  0  0  0  0
    6.7460   11.3437  -23.4344 H   0  0  0  0  0  0
    8.4722   10.0263  -20.2847 H   0  0  0  0  0  0
    8.6234    8.3734  -20.9540 H   0  0  0  0  0  0
  1  2  2  0  0  0
  1  3  1  0  0  0
  1 34  1  0  0  0
  2  6  1  0  0  0
  2 35  1  0  0  0
  3  5  2  0  0  0
  3 27  1  0  0  0
  4  5  1  0  0  0
  4  6  2  0  0  0
  4 18  1  0  0  0
  5 24  1  0  0  0
  6 10  1  0  0  0
  7 10  2  0  0  0
  7 23  1  0  0  0
  7 33  1  0  0  0
  8 21  1  0  0  0
  8 22  1  0  0  0
  8 36  1  0  0  0
  8 37  1  0  0  0
  9 21  1  0  0  0
  9 31  1  0  0  0
  9 38  1  0  0  0
  9 39  1  0  0  0
 10 40  1  0  0  0
 11 12  1  0  0  0
 11 14  2  0  0  0
 11 15  1  0  0  0
 12 17  1  0  0  0
 12 28  2  0  0  0
 13 28  1  0  0  0
 13 29  2  0  0  0
 13 58  1  0  0  0
 14 29  1  0  0  0
 14 31  1  0  0  0
 15 30  2  0  0  0
 15 41  1  0  0  0
 16 17  2  0  0  0
 16 18  1  0  0  0
 16 30  1  0  0  0
 17 26  1  0  0  0
 18 23  2  0  0  0
 19 20  1  0  0  0
 19 31  1  0  0  0
 19 42  1  0  0  0
 19 43  1  0  0  0
 20 22  1  0  0  0
 20 32  1  0  0  0
 20 44  1  0  0  0
 21 32  1  0  0  0
 21 45  1  0  0  0
 22 46  1  0  0  0
 22 47  1  0  0  0
 23 48  1  0  0  0
 24 25  3  0  0  0
 25 49  1  0  0  0
 32 50  1  0  0  0
 33 51  1  0  0  0
 52 53  1  0  0  0
 52 58  1  0  0  0
 52 61  1  0  0  0
 52 62  1  0  0  0
 53 57  1  0  0  0
 53 63  1  0  0  0
 53 64  1  0  0  0
 54 57  1  0  0  0
 54 59  1  0  0  0
 54 65  1  0  0  0
 54 66  1  0  0  0
 55 59  1  0  0  0
 55 60  1  0  0  0
 55 67  1  0  0  0
 55 68  1  0  0  0
 56 57  2  0  0  0
 56 60  1  0  0  0
 56 69  1  0  0  0
 58 70  1  0  0  0
 58 71  1  0  0  0
 59 72  1  0  0  0
 59 73  1  0  0  0
 60 74  1  0  0  0
 60 75  1  0  0  0
M  CHG  1  52   1
M  END
> <s_m_entry_id>
399

> <s_m_entry_name>
000000241.1

> <s_m_Source_Path>
/Users/zaksoul/Documents/3r_UNI/2nd_SEMESTER/BSC/FRAG_RECON/RESULTS/2

> <s_m_Source_File>
000000241.mol2

> <i_m_Source_File_Index>
1

$$$$
No_0_254
                    3D
 Schrodinger Suite 2022-4.
 75 81  0  0  1  0            999 V2000
   -5.0960    3.7060  -22.0320 C   0  0  0  0  0  0
   -5.3480    3.8840  -23.3720 C   0  0  0  0  0  0
   -3.8600    3.4660  -21.6760 C   0  0  0  0  0  0
   -2.9440    3.5880  -23.8310 C   0  0  0  0  0  0
   -2.7980    3.3530  -22.4080 C   0  0  0  0  0  0
   -4.2880    3.8350  -24.3700 C   0  0  0  0  0  0
   -3.5070    3.8500  -26.5590 C   0  0  0  0  0  0
    6.1660    3.2380  -21.1760 C   0  0  0  0  0  0
    6.0560    3.3630  -23.7280 C   0  0  0  0  0  0
   -4.5250    3.9520  -25.7090 C   0  0  0  0  0  0
    2.2670    3.8760  -23.7930 C   0  0  0  0  0  0
    1.4320    4.9790  -23.5100 C   0  0  0  0  0  0
    3.2110    6.1950  -22.8160 C   0  0  0  0  0  0
    3.6620    4.0820  -23.4640 C   0  0  0  0  0  0
    1.7390    2.7500  -24.4530 C   0  0  0  0  0  0
   -0.3970    3.5440  -24.3720 C   0  0  0  0  0  0
    0.1110    4.7730  -23.7750 C   0  0  0  0  0  0
   -1.8460    3.5350  -24.7440 C   0  0  0  0  0  0
    4.2870    1.5920  -23.1500 C   0  0  0  0  0  0
    5.2100    1.2510  -21.9900 C   0  0  2  0  0  0
    6.7950    2.8030  -22.5170 C   0  0  2  0  0  0
    5.1690    2.2600  -20.8290 C   0  0  0  0  0  0
   -2.1560    3.6820  -26.1760 C   0  0  0  0  0  0
   -1.4570    2.9560  -21.7910 C   0  0  0  0  0  0
   -0.4290    2.6210  -21.2710 C   0  0  0  0  0  0
   -0.7440    5.8120  -23.4470 F   0  0  0  0  0  0
   -3.6630    3.2340  -20.2900 F   0  0  0  0  0  0
    1.8920    6.1450  -22.9800 N   0  0  0  0  0  0
    4.1190    5.2400  -23.0200 N   0  0  0  0  0  0
    0.4370    2.6470  -24.7730 N   0  0  0  0  0  0
    4.5910    3.0410  -23.6240 N   0  0  0  0  0  0
    6.6220    1.3290  -22.4560 N   0  0  1  0  0  0
   -3.6640    3.8550  -27.9510 O   0  0  0  0  0  0
   -5.9070    3.7662  -21.3153 H   0  0  0  0  0  0
   -6.3604    4.0676  -23.7131 H   0  0  0  0  0  0
    5.6876    4.2211  -21.2971 H   0  0  0  0  0  0
    6.9432    3.2602  -20.3978 H   0  0  0  0  0  0
    6.4651    2.9165  -24.6463 H   0  0  0  0  0  0
    6.1891    4.4543  -23.7653 H   0  0  0  0  0  0
   -5.5330    4.1247  -26.0684 H   0  0  0  0  0  0
    2.3885    1.9249  -24.7220 H   0  0  0  0  0  0
    3.2409    1.5274  -22.8161 H   0  0  0  0  0  0
    4.4646    0.8895  -23.9776 H   0  0  0  0  0  0
    4.9909    0.2394  -21.6175 H   0  0  0  0  0  0
    7.8614    3.0704  -22.5533 H   0  0  0  0  0  0
    4.1805    2.7416  -20.8007 H   0  0  0  0  0  0
    5.4637    1.7544  -19.8976 H   0  0  0  0  0  0
   -1.3776    3.6649  -26.9303 H   0  0  0  0  0  0
    0.4757    2.3261  -20.8131 H   0  0  0  0  0  0
    7.2660    0.8412  -21.7393 H   0  0  0  0  0  0
   -2.8132    3.7719  -28.3655 H   0  0  0  0  0  0
    4.0670    7.5130  -20.8780 N   0  3  0  0  0  0
    4.5890    8.7890  -20.2670 C   0  0  0  0  0  0
    5.3900   10.4220  -22.1020 C   0  0  0  0  0  0
    7.8170   10.2990  -22.7870 C   0  0  0  0  0  0
    6.9890    9.0840  -20.7640 C   0  0  0  0  0  0
    5.7350    9.3770  -21.0590 C   0  0  0  0  0  0
    3.7530    7.5420  -22.3500 C   0  0  0  0  0  0
    6.6290   11.2370  -22.5200 C   0  0  0  0  0  0
    8.2190    9.5850  -21.4840 C   0  0  0  0  0  0
    3.2500    7.2120  -20.3700 H   0  0  0  0  0  0
    4.7186    6.7665  -20.6931 H   0  0  0  0  0  0
    4.9190    8.5930  -19.2361 H   0  0  0  0  0  0
    3.7731    9.5239  -20.2030 H   0  0  0  0  0  0
    4.6230   11.1010  -21.7010 H   0  0  0  0  0  0
    4.9621    9.9281  -22.9868 H   0  0  0  0  0  0
    8.6690   10.8850  -23.1620 H   0  0  0  0  0  0
    7.5308    9.5515  -23.5415 H   0  0  0  0  0  0
    7.2110    8.4189  -19.9308 H   0  0  0  0  0  0
    4.6648    7.7859  -22.9149 H   0  0  0  0  0  0
    3.0074    8.3256  -22.5499 H   0  0  0  0  0  0
    6.8920   11.9411  -21.7169 H   0  0  0  0  0  0
    6.4020   11.8089  -23.4318 H   0  0  0  0  0  0
    8.7627   10.2866  -20.8343 H   0  0  0  0  0  0
    8.8773    8.7356  -21.7191 H   0  0  0  0  0  0
  1  2  2  0  0  0
  1  3  1  0  0  0
  1 34  1  0  0  0
  2  6  1  0  0  0
  2 35  1  0  0  0
  3  5  2  0  0  0
  3 27  1  0  0  0
  4  5  1  0  0  0
  4  6  2  0  0  0
  4 18  1  0  0  0
  5 24  1  0  0  0
  6 10  1  0  0  0
  7 10  2  0  0  0
  7 23  1  0  0  0
  7 33  1  0  0  0
  8 21  1  0  0  0
  8 22  1  0  0  0
  8 36  1  0  0  0
  8 37  1  0  0  0
  9 21  1  0  0  0
  9 31  1  0  0  0
  9 38  1  0  0  0
  9 39  1  0  0  0
 10 40  1  0  0  0
 11 12  1  0  0  0
 11 14  2  0  0  0
 11 15  1  0  0  0
 12 17  1  0  0  0
 12 28  2  0  0  0
 13 28  1  0  0  0
 13 29  2  0  0  0
 13 58  1  0  0  0
 14 29  1  0  0  0
 14 31  1  0  0  0
 15 30  2  0  0  0
 15 41  1  0  0  0
 16 17  2  0  0  0
 16 18  1  0  0  0
 16 30  1  0  0  0
 17 26  1  0  0  0
 18 23  2  0  0  0
 19 20  1  0  0  0
 19 31  1  0  0  0
 19 42  1  0  0  0
 19 43  1  0  0  0
 20 22  1  0  0  0
 20 32  1  0  0  0
 20 44  1  0  0  0
 21 32  1  0  0  0
 21 45  1  0  0  0
 22 46  1  0  0  0
 22 47  1  0  0  0
 23 48  1  0  0  0
 24 25  3  0  0  0
 25 49  1  0  0  0
 32 50  1  0  0  0
 33 51  1  0  0  0
 52 53  1  0  0  0
 52 58  1  0  0  0
 52 61  1  0  0  0
 52 62  1  0  0  0
 53 57  1  0  0  0
 53 63  1  0  0  0
 53 64  1  0  0  0
 54 57  1  0  0  0
 54 59  1  0  0  0
 54 65  1  0  0  0
 54 66  1  0  0  0
 55 59  1  0  0  0
 55 60  1  0  0  0
 55 67  1  0  0  0
 55 68  1  0  0  0
 56 57  2  0  0  0
 56 60  1  0  0  0
 56 69  1  0  0  0
 58 70  1  0  0  0
 58 71  1  0  0  0
 59 72  1  0  0  0
 59 73  1  0  0  0
 60 74  1  0  0  0
 60 75  1  0  0  0
M  CHG  1  52   1
M  END
> <s_m_entry_id>
400

> <s_m_entry_name>
000000242.1

> <s_m_Source_Path>
/Users/zaksoul/Documents/3r_UNI/2nd_SEMESTER/BSC/FRAG_RECON/RESULTS/2

> <s_m_Source_File>
000000242.mol2

> <i_m_Source_File_Index>
1

$$$$
No_0_255
                    3D
 Schrodinger Suite 2022-4.
 73 79  0  0  1  0            999 V2000
   -5.2890    3.6690  -21.9120 C   0  0  0  0  0  0
   -5.5560    3.8500  -23.2490 C   0  0  0  0  0  0
   -4.0510    3.4160  -21.5710 C   0  0  0  0  0  0
   -3.1610    3.5280  -23.7380 C   0  0  0  0  0  0
   -3.0000    3.2920  -22.3160 C   0  0  0  0  0  0
   -4.5090    3.7900  -24.2590 C   0  0  0  0  0  0
   -3.7550    3.7970  -26.4580 C   0  0  0  0  0  0
    5.9770    3.0800  -21.1960 C   0  0  0  0  0  0
    5.8360    3.2070  -23.7460 C   0  0  0  0  0  0
   -4.7610    3.9090  -25.5950 C   0  0  0  0  0  0
    2.0520    3.7610  -23.7640 C   0  0  0  0  0  0
    1.2330    4.8720  -23.4710 C   0  0  0  0  0  0
    3.0340    6.0690  -22.7990 C   0  0  0  0  0  0
    3.4530    3.9510  -23.4530 C   0  0  0  0  0  0
    1.5040    2.6400  -24.4180 C   0  0  0  0  0  0
   -0.6220    3.4580  -24.3110 C   0  0  0  0  0  0
   -0.0930    4.6810  -23.7190 C   0  0  0  0  0  0
   -2.0750    3.4640  -24.6640 C   0  0  0  0  0  0
    4.0550    1.4540  -23.1470 C   0  0  0  0  0  0
    4.9900    1.1040  -21.9990 C   0  0  2  0  0  0
    6.5840    2.6390  -22.5460 C   0  0  2  0  0  0
    4.9740    2.1120  -20.8370 C   0  0  0  0  0  0
   -2.4020    3.6150  -26.0920 C   0  0  0  0  0  0
   -1.6560    2.8800  -21.7160 C   0  0  0  0  0  0
   -0.6250    2.5340  -21.2090 C   0  0  0  0  0  0
   -0.9330    5.7290  -23.3800 F   0  0  0  0  0  0
   -3.8400    3.1820  -20.1870 F   0  0  0  0  0  0
    1.7130    6.0340  -22.9460 N   0  0  0  0  0  0
    3.9290    5.1040  -23.0150 N   0  0  0  0  0  0
    0.1970    2.5510  -24.7220 N   0  0  0  0  0  0
    4.3700    2.9010  -23.6250 N   0  0  0  0  0  0
    6.3960    1.1660  -22.4830 N   0  0  1  0  0  0
   -3.9290    3.8040  -27.8480 O   0  0  0  0  0  0
   -6.0902    3.7383  -21.1851 H   0  0  0  0  0  0
   -6.5706    4.0447  -23.5772 H   0  0  0  0  0  0
    5.5076    4.0682  -21.3111 H   0  0  0  0  0  0
    6.7638    3.0941  -20.4274 H   0  0  0  0  0  0
    6.2296    2.7569  -24.6693 H   0  0  0  0  0  0
    5.9813    4.2966  -23.7864 H   0  0  0  0  0  0
   -5.7715    4.0936  -25.9412 H   0  0  0  0  0  0
    2.1417    1.8084  -24.6952 H   0  0  0  0  0  0
    3.0125    1.4015  -22.7998 H   0  0  0  0  0  0
    4.2154    0.7507  -23.9774 H   0  0  0  0  0  0
    4.7639    0.0947  -21.6246 H   0  0  0  0  0  0
    7.6529    2.8944  -22.5944 H   0  0  0  0  0  0
    3.9912    2.6044  -20.7956 H   0  0  0  0  0  0
    5.2748    1.6032  -19.9093 H   0  0  0  0  0  0
   -1.6327    3.5899  -26.8553 H   0  0  0  0  0  0
    0.2822    2.2289  -20.7629 H   0  0  0  0  0  0
    7.0430    0.6709  -21.7740 H   0  0  0  0  0  0
   -3.0847    3.7119  -28.2736 H   0  0  0  0  0  0
    3.9330    7.3920  -20.8720 N   0  0  1  0  0  0
    6.9710   10.2880  -22.3750 N   0  0  0  0  0  0
    7.7580    9.4760  -21.5330 N   0  0  0  0  0  0
    5.6490    9.1480  -21.0600 C   0  0  0  0  0  0
    4.4150    8.7020  -20.3130 C   0  0  0  0  0  0
    3.5960    7.4100  -22.3400 C   0  0  0  0  0  0
    4.6510   10.8830  -22.8440 C   0  0  0  0  0  0
    7.5660    7.8530  -19.7150 C   0  0  0  0  0  0
    6.9810    8.8010  -20.7330 C   0  0  0  0  0  0
    5.7100   10.1120  -22.0950 C   0  0  0  0  0  0
    4.6979    6.6411  -20.7400 H   0  0  0  0  0  0
    7.4229   10.8938  -23.0748 H   0  0  0  0  0  0
    4.6560    8.5790  -19.2468 H   0  0  0  0  0  0
    3.6258    9.4602  -20.4240 H   0  0  0  0  0  0
    4.5001    7.6470  -22.9201 H   0  0  0  0  0  0
    2.8586    8.2024  -22.5358 H   0  0  0  0  0  0
    3.6563   10.6001  -22.4691 H   0  0  0  0  0  0
    4.8061   11.9616  -22.6939 H   0  0  0  0  0  0
    4.7170   10.6490  -23.9168 H   0  0  0  0  0  0
    6.7531    7.3830  -19.1420 H   0  0  0  0  0  0
    8.1478    7.0743  -20.2298 H   0  0  0  0  0  0
    8.2233    8.4083  -19.0297 H   0  0  0  0  0  0
  1  2  2  0  0  0
  1  3  1  0  0  0
  1 34  1  0  0  0
  2  6  1  0  0  0
  2 35  1  0  0  0
  3  5  2  0  0  0
  3 27  1  0  0  0
  4  5  1  0  0  0
  4  6  2  0  0  0
  4 18  1  0  0  0
  5 24  1  0  0  0
  6 10  1  0  0  0
  7 10  2  0  0  0
  7 23  1  0  0  0
  7 33  1  0  0  0
  8 21  1  0  0  0
  8 22  1  0  0  0
  8 36  1  0  0  0
  8 37  1  0  0  0
  9 21  1  0  0  0
  9 31  1  0  0  0
  9 38  1  0  0  0
  9 39  1  0  0  0
 10 40  1  0  0  0
 11 12  1  0  0  0
 11 14  2  0  0  0
 11 15  1  0  0  0
 12 17  1  0  0  0
 12 28  2  0  0  0
 13 28  1  0  0  0
 13 29  2  0  0  0
 13 57  1  0  0  0
 14 29  1  0  0  0
 14 31  1  0  0  0
 15 30  2  0  0  0
 15 41  1  0  0  0
 16 17  2  0  0  0
 16 18  1  0  0  0
 16 30  1  0  0  0
 17 26  1  0  0  0
 18 23  2  0  0  0
 19 20  1  0  0  0
 19 31  1  0  0  0
 19 42  1  0  0  0
 19 43  1  0  0  0
 20 22  1  0  0  0
 20 32  1  0  0  0
 20 44  1  0  0  0
 21 32  1  0  0  0
 21 45  1  0  0  0
 22 46  1  0  0  0
 22 47  1  0  0  0
 23 48  1  0  0  0
 24 25  3  0  0  0
 25 49  1  0  0  0
 32 50  1  0  0  0
 33 51  1  0  0  0
 52 56  1  0  0  0
 52 57  1  0  0  0
 52 62  1  0  0  0
 53 54  1  0  0  0
 53 61  1  0  0  0
 53 63  1  0  0  0
 54 60  2  0  0  0
 55 56  1  0  0  0
 55 60  1  0  0  0
 55 61  2  0  0  0
 56 64  1  0  0  0
 56 65  1  0  0  0
 57 66  1  0  0  0
 57 67  1  0  0  0
 58 61  1  0  0  0
 58 68  1  0  0  0
 58 69  1  0  0  0
 58 70  1  0  0  0
 59 60  1  0  0  0
 59 71  1  0  0  0
 59 72  1  0  0  0
 59 73  1  0  0  0
M  END
> <s_m_entry_id>
401

> <s_m_entry_name>
000000243.1

> <s_m_Source_Path>
/Users/zaksoul/Documents/3r_UNI/2nd_SEMESTER/BSC/FRAG_RECON/RESULTS/2

> <s_m_Source_File>
000000243.mol2

> <i_m_Source_File_Index>
1

$$$$
No_0_256
                    3D
 Schrodinger Suite 2022-4.
 69 74  0  0  1  0            999 V2000
   -5.1290    3.5470  -21.8970 C   0  0  0  0  0  0
   -5.4240    3.7150  -23.2300 C   0  0  0  0  0  0
   -3.8810    3.3210  -21.5770 C   0  0  0  0  0  0
   -3.0320    3.4380  -23.7600 C   0  0  0  0  0  0
   -2.8410    3.2130  -22.3400 C   0  0  0  0  0  0
   -4.3940    3.6690  -24.2590 C   0  0  0  0  0  0
   -3.6800    3.6790  -26.4710 C   0  0  0  0  0  0
    6.1570    3.1870  -21.3810 C   0  0  0  0  0  0
    5.9680    3.2960  -23.9290 C   0  0  0  0  0  0
   -4.6720    3.7760  -25.5910 C   0  0  0  0  0  0
    2.1750    3.7740  -23.8810 C   0  0  0  0  0  0
    1.3390    4.8710  -23.5800 C   0  0  0  0  0  0
    3.1270    6.1080  -22.9480 C   0  0  0  0  0  0
    3.5770    3.9950  -23.5970 C   0  0  0  0  0  0
    1.6370    2.6390  -24.5190 C   0  0  0  0  0  0
   -0.5030    3.4150  -24.3780 C   0  0  0  0  0  0
    0.0120    4.6510  -23.8030 C   0  0  0  0  0  0
   -1.9620    3.3900  -24.7050 C   0  0  0  0  0  0
    4.2340    1.5120  -23.2870 C   0  0  0  0  0  0
    5.1950    1.1870  -22.1540 C   0  0  2  0  0  0
    6.7490    2.7500  -22.7390 C   0  0  2  0  0  0
    5.1800    2.2020  -20.9990 C   0  0  0  0  0  0
   -2.3170    3.5260  -26.1290 C   0  0  0  0  0  0
   -1.4780    2.8320  -21.7620 C   0  0  0  0  0  0
   -0.4320    2.5100  -21.2720 C   0  0  0  0  0  0
   -0.8420    5.6850  -23.4550 F   0  0  0  0  0  0
   -3.6400    3.0990  -20.1960 F   0  0  0  0  0  0
    1.8040    6.0450  -23.0710 N   0  0  0  0  0  0
    4.0370    5.1590  -23.1730 N   0  0  0  0  0  0
    0.3270    2.5220  -24.7990 N   0  0  0  0  0  0
    4.5110    2.9620  -23.7790 N   0  0  0  0  0  0
    6.5910    1.2740  -22.6640 N   0  0  1  0  0  0
   -3.8790    3.6740  -27.8570 O   0  0  0  0  0  0
   -5.9186    3.6042  -21.1565 H   0  0  0  0  0  0
   -6.4479    3.8877  -23.5412 H   0  0  0  0  0  0
    5.6656    4.1647  -21.4930 H   0  0  0  0  0  0
    6.9573    3.2213  -20.6271 H   0  0  0  0  0  0
    6.3536    2.8478  -24.8566 H   0  0  0  0  0  0
    6.0900    4.3881  -23.9774 H   0  0  0  0  0  0
   -5.6919    3.9386  -25.9203 H   0  0  0  0  0  0
    2.2863    1.8191  -24.8040 H   0  0  0  0  0  0
    3.1990    1.4403  -22.9215 H   0  0  0  0  0  0
    4.3935    0.8075  -24.1166 H   0  0  0  0  0  0
    4.9971    0.1753  -21.7703 H   0  0  0  0  0  0
    7.8114    3.0265  -22.8086 H   0  0  0  0  0  0
    4.1883    2.6746  -20.9424 H   0  0  0  0  0  0
    5.5069    1.7046  -20.0739 H   0  0  0  0  0  0
   -1.5612    3.5119  -26.9059 H   0  0  0  0  0  0
    0.4888    2.2260  -20.8401 H   0  0  0  0  0  0
    7.2611    0.7973  -21.9639 H   0  0  0  0  0  0
   -3.0408    3.5968  -28.2974 H   0  0  0  0  0  0
    7.7230   10.9940  -21.5210 O   0  5  0  0  0  0
    9.1100    9.2380  -21.0680 O   0  0  0  0  0  0
    4.0330    7.4590  -21.0450 N   0  3  0  0  0  0
    4.2550    8.8150  -20.4250 C   0  0  0  0  0  0
    3.6700    7.4620  -22.5050 C   0  0  0  0  0  0
    5.4510    9.5990  -21.0030 C   0  0  0  0  0  0
    6.8010    9.0220  -20.5380 C   0  0  0  0  0  0
    7.9670    9.8140  -21.0830 C   0  0  0  0  0  0
    3.3220    6.9680  -20.5260 H   0  0  0  0  0  0
    4.8549    6.8920  -20.9070 H   0  0  0  0  0  0
    4.3851    8.7020  -19.3386 H   0  0  0  0  0  0
    3.3402    9.4169  -20.5290 H   0  0  0  0  0  0
    4.5581    7.7140  -23.1031 H   0  0  0  0  0  0
    2.9137    8.2383  -22.6928 H   0  0  0  0  0  0
    5.3790   10.6536  -20.6988 H   0  0  0  0  0  0
    5.4040    9.5790  -22.1018 H   0  0  0  0  0  0
    6.8850    7.9754  -20.8659 H   0  0  0  0  0  0
    6.8400    9.0220  -19.4387 H   0  0  0  0  0  0
  1  2  2  0  0  0
  1  3  1  0  0  0
  1 34  1  0  0  0
  2  6  1  0  0  0
  2 35  1  0  0  0
  3  5  2  0  0  0
  3 27  1  0  0  0
  4  5  1  0  0  0
  4  6  2  0  0  0
  4 18  1  0  0  0
  5 24  1  0  0  0
  6 10  1  0  0  0
  7 10  2  0  0  0
  7 23  1  0  0  0
  7 33  1  0  0  0
  8 21  1  0  0  0
  8 22  1  0  0  0
  8 36  1  0  0  0
  8 37  1  0  0  0
  9 21  1  0  0  0
  9 31  1  0  0  0
  9 38  1  0  0  0
  9 39  1  0  0  0
 10 40  1  0  0  0
 11 12  1  0  0  0
 11 14  2  0  0  0
 11 15  1  0  0  0
 12 17  1  0  0  0
 12 28  2  0  0  0
 13 28  1  0  0  0
 13 29  2  0  0  0
 13 56  1  0  0  0
 14 29  1  0  0  0
 14 31  1  0  0  0
 15 30  2  0  0  0
 15 41  1  0  0  0
 16 17  2  0  0  0
 16 18  1  0  0  0
 16 30  1  0  0  0
 17 26  1  0  0  0
 18 23  2  0  0  0
 19 20  1  0  0  0
 19 31  1  0  0  0
 19 42  1  0  0  0
 19 43  1  0  0  0
 20 22  1  0  0  0
 20 32  1  0  0  0
 20 44  1  0  0  0
 21 32  1  0  0  0
 21 45  1  0  0  0
 22 46  1  0  0  0
 22 47  1  0  0  0
 23 48  1  0  0  0
 24 25  3  0  0  0
 25 49  1  0  0  0
 32 50  1  0  0  0
 33 51  1  0  0  0
 52 59  1  0  0  0
 53 59  2  0  0  0
 54 55  1  0  0  0
 54 56  1  0  0  0
 54 60  1  0  0  0
 54 61  1  0  0  0
 55 57  1  0  0  0
 55 62  1  0  0  0
 55 63  1  0  0  0
 56 64  1  0  0  0
 56 65  1  0  0  0
 57 58  1  0  0  0
 57 66  1  0  0  0
 57 67  1  0  0  0
 58 59  1  0  0  0
 58 68  1  0  0  0
 58 69  1  0  0  0
M  CHG  2  52  -1  54   1
M  END
> <s_m_entry_id>
402

> <s_m_entry_name>
000000244.1

> <s_m_Source_Path>
/Users/zaksoul/Documents/3r_UNI/2nd_SEMESTER/BSC/FRAG_RECON/RESULTS/2

> <s_m_Source_File>
000000244.mol2

> <i_m_Source_File_Index>
1

$$$$
No_0_257
                    3D
 Schrodinger Suite 2022-4.
 69 74  0  0  1  0            999 V2000
   -4.9710    3.6080  -21.9680 C   0  0  0  0  0  0
   -5.2380    3.7940  -23.3040 C   0  0  0  0  0  0
   -3.7340    3.3460  -21.6290 C   0  0  0  0  0  0
   -2.8460    3.4560  -23.7960 C   0  0  0  0  0  0
   -2.6840    3.2160  -22.3750 C   0  0  0  0  0  0
   -4.1920    3.7270  -24.3160 C   0  0  0  0  0  0
   -3.4400    3.7330  -26.5160 C   0  0  0  0  0  0
    6.2920    2.9390  -21.2640 C   0  0  0  0  0  0
    6.1500    3.0720  -23.8140 C   0  0  0  0  0  0
   -4.4440    3.8510  -25.6520 C   0  0  0  0  0  0
    2.3700    3.6520  -23.8270 C   0  0  0  0  0  0
    1.5590    4.7680  -23.5310 C   0  0  0  0  0  0
    3.3680    5.9520  -22.8590 C   0  0  0  0  0  0
    3.7720    3.8320  -23.5170 C   0  0  0  0  0  0
    1.8130    2.5360  -24.4820 C   0  0  0  0  0  0
   -0.3070    3.3680  -24.3720 C   0  0  0  0  0  0
    0.2310    4.5870  -23.7790 C   0  0  0  0  0  0
   -1.7610    3.3850  -24.7230 C   0  0  0  0  0  0
    4.3570    1.3300  -23.2150 C   0  0  0  0  0  0
    5.2900    0.9710  -22.0690 C   0  0  2  0  0  0
    6.8950    2.4960  -22.6150 C   0  0  2  0  0  0
    5.2820    1.9780  -20.9060 C   0  0  0  0  0  0
   -2.0880    3.5410  -26.1510 C   0  0  0  0  0  0
   -1.3430    2.7940  -21.7770 C   0  0  0  0  0  0
   -0.3140    2.4400  -21.2710 C   0  0  0  0  0  0
   -0.6020    5.6400  -23.4370 F   0  0  0  0  0  0
   -3.5230    3.1080  -20.2460 F   0  0  0  0  0  0
    2.0460    5.9260  -23.0050 N   0  0  0  0  0  0
    4.2560    4.9810  -23.0770 N   0  0  0  0  0  0
    0.5050    2.4570  -24.7850 N   0  0  0  0  0  0
    4.6810    2.7750  -23.6910 N   0  0  0  0  0  0
    6.6960    1.0250  -22.5540 N   0  0  1  0  0  0
   -3.6150    3.7440  -27.9050 O   0  0  0  0  0  0
   -5.7710    3.6813  -21.2402 H   0  0  0  0  0  0
   -6.2515    3.9959  -23.6314 H   0  0  0  0  0  0
    5.8291    3.9304  -21.3770 H   0  0  0  0  0  0
    7.0793    2.9461  -20.4958 H   0  0  0  0  0  0
    6.5386    2.6199  -24.7384 H   0  0  0  0  0  0
    6.3014    4.1609  -23.8513 H   0  0  0  0  0  0
   -5.4534    4.0436  -25.9972 H   0  0  0  0  0  0
    2.4445    1.7007  -24.7621 H   0  0  0  0  0  0
    3.3142    1.2846  -22.8678 H   0  0  0  0  0  0
    4.5114    0.6277  -24.0474 H   0  0  0  0  0  0
    5.0579   -0.0373  -21.6956 H   0  0  0  0  0  0
    7.9655    2.7442  -22.6644 H   0  0  0  0  0  0
    4.3030    2.4776  -20.8626 H   0  0  0  0  0  0
    5.5797    1.4653  -19.9795 H   0  0  0  0  0  0
   -1.3198    3.5119  -26.9152 H   0  0  0  0  0  0
    0.5916    2.1281  -20.8262 H   0  0  0  0  0  0
    7.3405    0.5248  -21.8464 H   0  0  0  0  0  0
   -2.7718    3.6460  -28.3315 H   0  0  0  0  0  0
    7.9690   10.9490  -21.9100 O   0  5  0  0  0  0
    9.4880    9.2450  -21.9500 O   0  0  0  0  0  0
    4.6080    7.1660  -21.0550 N   0  3  0  0  0  0
    4.9040    8.4670  -20.3530 C   0  0  0  0  0  0
    3.9400    7.2880  -22.3980 C   0  0  0  0  0  0
    5.9160    9.3740  -21.0820 C   0  0  0  0  0  0
    7.3570    8.8390  -20.9740 C   0  0  0  0  0  0
    8.3470    9.7500  -21.6620 C   0  0  0  0  0  0
    4.0442    6.5852  -20.4542 H   0  0  0  0  0  0
    5.4617    6.6392  -21.1540 H   0  0  0  0  0  0
    5.2691    8.2579  -19.3366 H   0  0  0  0  0  0
    3.9654    9.0193  -20.1979 H   0  0  0  0  0  0
    4.6690    7.6500  -23.1380 H   0  0  0  0  0  0
    3.1310    8.0310  -22.3380 H   0  0  0  0  0  0
    5.8700   10.3876  -20.6572 H   0  0  0  0  0  0
    5.6359    9.4580  -22.1424 H   0  0  0  0  0  0
    7.4090    7.8361  -21.4229 H   0  0  0  0  0  0
    7.6308    8.7351  -19.9137 H   0  0  0  0  0  0
  1  2  2  0  0  0
  1  3  1  0  0  0
  1 34  1  0  0  0
  2  6  1  0  0  0
  2 35  1  0  0  0
  3  5  2  0  0  0
  3 27  1  0  0  0
  4  5  1  0  0  0
  4  6  2  0  0  0
  4 18  1  0  0  0
  5 24  1  0  0  0
  6 10  1  0  0  0
  7 10  2  0  0  0
  7 23  1  0  0  0
  7 33  1  0  0  0
  8 21  1  0  0  0
  8 22  1  0  0  0
  8 36  1  0  0  0
  8 37  1  0  0  0
  9 21  1  0  0  0
  9 31  1  0  0  0
  9 38  1  0  0  0
  9 39  1  0  0  0
 10 40  1  0  0  0
 11 12  1  0  0  0
 11 14  2  0  0  0
 11 15  1  0  0  0
 12 17  1  0  0  0
 12 28  2  0  0  0
 13 28  1  0  0  0
 13 29  2  0  0  0
 13 56  1  0  0  0
 14 29  1  0  0  0
 14 31  1  0  0  0
 15 30  2  0  0  0
 15 41  1  0  0  0
 16 17  2  0  0  0
 16 18  1  0  0  0
 16 30  1  0  0  0
 17 26  1  0  0  0
 18 23  2  0  0  0
 19 20  1  0  0  0
 19 31  1  0  0  0
 19 42  1  0  0  0
 19 43  1  0  0  0
 20 22  1  0  0  0
 20 32  1  0  0  0
 20 44  1  0  0  0
 21 32  1  0  0  0
 21 45  1  0  0  0
 22 46  1  0  0  0
 22 47  1  0  0  0
 23 48  1  0  0  0
 24 25  3  0  0  0
 25 49  1  0  0  0
 32 50  1  0  0  0
 33 51  1  0  0  0
 52 59  1  0  0  0
 53 59  2  0  0  0
 54 55  1  0  0  0
 54 56  1  0  0  0
 54 60  1  0  0  0
 54 61  1  0  0  0
 55 57  1  0  0  0
 55 62  1  0  0  0
 55 63  1  0  0  0
 56 64  1  0  0  0
 56 65  1  0  0  0
 57 58  1  0  0  0
 57 66  1  0  0  0
 57 67  1  0  0  0
 58 59  1  0  0  0
 58 68  1  0  0  0
 58 69  1  0  0  0
M  CHG  2  52  -1  54   1
M  END
> <s_m_entry_id>
403

> <s_m_entry_name>
000000245.1

> <s_m_Source_Path>
/Users/zaksoul/Documents/3r_UNI/2nd_SEMESTER/BSC/FRAG_RECON/RESULTS/2

> <s_m_Source_File>
000000245.mol2

> <i_m_Source_File_Index>
1

$$$$
No_0_258
                    3D
 Schrodinger Suite 2022-4.
 69 74  0  0  1  0            999 V2000
   -5.4030    3.5050  -21.7910 C   0  0  0  0  0  0
   -5.6840    3.6870  -23.1250 C   0  0  0  0  0  0
   -4.1600    3.2580  -21.4630 C   0  0  0  0  0  0
   -3.2930    3.3790  -23.6390 C   0  0  0  0  0  0
   -3.1150    3.1410  -22.2200 C   0  0  0  0  0  0
   -4.6470    3.6340  -24.1460 C   0  0  0  0  0  0
   -3.9170    3.6490  -26.3530 C   0  0  0  0  0  0
    5.8730    2.9750  -21.1930 C   0  0  0  0  0  0
    5.7060    3.1060  -23.7410 C   0  0  0  0  0  0
   -4.9140    3.7540  -25.4790 C   0  0  0  0  0  0
    1.9190    3.6390  -23.7190 C   0  0  0  0  0  0
    1.0970    4.7460  -23.4150 C   0  0  0  0  0  0
    2.8980    5.9520  -22.7610 C   0  0  0  0  0  0
    3.3220    3.8370  -23.4220 C   0  0  0  0  0  0
    1.3700    2.5170  -24.3690 C   0  0  0  0  0  0
   -0.7590    3.3230  -24.2380 C   0  0  0  0  0  0
   -0.2310    4.5480  -23.6500 C   0  0  0  0  0  0
   -2.2160    3.3210  -24.5770 C   0  0  0  0  0  0
    3.9410    1.3430  -23.1260 C   0  0  0  0  0  0
    4.8880    0.9950  -21.9890 C   0  0  2  0  0  0
    6.4690    2.5400  -22.5500 C   0  0  2  0  0  0
    4.8790    2.0020  -20.8260 C   0  0  0  0  0  0
   -2.5580    3.4740  -26.0010 C   0  0  0  0  0  0
   -1.7630    2.7350  -21.6340 C   0  0  0  0  0  0
   -0.7250    2.3940  -21.1390 C   0  0  0  0  0  0
   -1.0730    5.5910  -23.3010 F   0  0  0  0  0  0
   -3.9330    3.0220  -20.0830 F   0  0  0  0  0  0
    1.5750    5.9090  -22.8940 N   0  0  0  0  0  0
    3.7950    4.9910  -22.9870 N   0  0  0  0  0  0
    0.0600    2.4210  -24.6590 N   0  0  0  0  0  0
    4.2420    2.7920  -23.6050 N   0  0  0  0  0  0
    6.2890    1.0660  -22.4870 N   0  0  1  0  0  0
   -4.1050    3.6570  -27.7410 O   0  0  0  0  0  0
   -6.1972    3.5683  -21.0560 H   0  0  0  0  0  0
   -6.7030    3.8767  -23.4423 H   0  0  0  0  0  0
    5.3977    3.9610  -21.3020 H   0  0  0  0  0  0
    6.6682    2.9922  -20.4331 H   0  0  0  0  0  0
    6.0914    2.6590  -24.6693 H   0  0  0  0  0  0
    5.8442    4.1966  -23.7803 H   0  0  0  0  0  0
   -5.9288    3.9337  -25.8152 H   0  0  0  0  0  0
    2.0088    1.6893  -24.6553 H   0  0  0  0  0  0
    2.9022    1.2835  -22.7690 H   0  0  0  0  0  0
    4.0964    0.6419  -23.9593 H   0  0  0  0  0  0
    4.6720   -0.0162  -21.6136 H   0  0  0  0  0  0
    7.5358    2.8014  -22.6095 H   0  0  0  0  0  0
    3.8940    2.4889  -20.7735 H   0  0  0  0  0  0
    5.1917    1.4936  -19.9020 H   0  0  0  0  0  0
   -1.7972    3.4539  -26.7729 H   0  0  0  0  0  0
    0.1880    2.0930  -20.7020 H   0  0  0  0  0  0
    6.9466    0.5741  -21.7856 H   0  0  0  0  0  0
   -3.2646    3.5709  -28.1755 H   0  0  0  0  0  0
    7.1850   11.2910  -22.3770 O   0  5  0  0  0  0
    8.7790    9.7600  -22.9490 O   0  0  0  0  0  0
    4.4370    7.1270  -21.1740 N   0  3  0  0  0  0
    4.7900    8.3870  -20.4250 C   0  0  0  0  0  0
    3.4570    7.2950  -22.3040 C   0  0  0  0  0  0
    5.5230    9.4510  -21.2670 C   0  0  0  0  0  0
    6.9840    9.0570  -21.5550 C   0  0  0  0  0  0
    7.7040   10.1200  -22.3530 C   0  0  0  0  0  0
    4.0821    6.4431  -20.5241 H   0  0  0  0  0  0
    5.2806    6.7007  -21.5242 H   0  0  0  0  0  0
    5.4039    8.1300  -19.5492 H   0  0  0  0  0  0
    3.8758    8.8261  -19.9989 H   0  0  0  0  0  0
    3.9561    7.7901  -23.1501 H   0  0  0  0  0  0
    2.6307    7.9442  -21.9789 H   0  0  0  0  0  0
    5.5010   10.4152  -20.7379 H   0  0  0  0  0  0
    4.9891    9.5960  -22.2178 H   0  0  0  0  0  0
    7.0050    8.1065  -22.1083 H   0  0  0  0  0  0
    7.5128    8.8931  -20.6044 H   0  0  0  0  0  0
  1  2  2  0  0  0
  1  3  1  0  0  0
  1 34  1  0  0  0
  2  6  1  0  0  0
  2 35  1  0  0  0
  3  5  2  0  0  0
  3 27  1  0  0  0
  4  5  1  0  0  0
  4  6  2  0  0  0
  4 18  1  0  0  0
  5 24  1  0  0  0
  6 10  1  0  0  0
  7 10  2  0  0  0
  7 23  1  0  0  0
  7 33  1  0  0  0
  8 21  1  0  0  0
  8 22  1  0  0  0
  8 36  1  0  0  0
  8 37  1  0  0  0
  9 21  1  0  0  0
  9 31  1  0  0  0
  9 38  1  0  0  0
  9 39  1  0  0  0
 10 40  1  0  0  0
 11 12  1  0  0  0
 11 14  2  0  0  0
 11 15  1  0  0  0
 12 17  1  0  0  0
 12 28  2  0  0  0
 13 28  1  0  0  0
 13 29  2  0  0  0
 13 56  1  0  0  0
 14 29  1  0  0  0
 14 31  1  0  0  0
 15 30  2  0  0  0
 15 41  1  0  0  0
 16 17  2  0  0  0
 16 18  1  0  0  0
 16 30  1  0  0  0
 17 26  1  0  0  0
 18 23  2  0  0  0
 19 20  1  0  0  0
 19 31  1  0  0  0
 19 42  1  0  0  0
 19 43  1  0  0  0
 20 22  1  0  0  0
 20 32  1  0  0  0
 20 44  1  0  0  0
 21 32  1  0  0  0
 21 45  1  0  0  0
 22 46  1  0  0  0
 22 47  1  0  0  0
 23 48  1  0  0  0
 24 25  3  0  0  0
 25 49  1  0  0  0
 32 50  1  0  0  0
 33 51  1  0  0  0
 52 59  1  0  0  0
 53 59  2  0  0  0
 54 55  1  0  0  0
 54 56  1  0  0  0
 54 60  1  0  0  0
 54 61  1  0  0  0
 55 57  1  0  0  0
 55 62  1  0  0  0
 55 63  1  0  0  0
 56 64  1  0  0  0
 56 65  1  0  0  0
 57 58  1  0  0  0
 57 66  1  0  0  0
 57 67  1  0  0  0
 58 59  1  0  0  0
 58 68  1  0  0  0
 58 69  1  0  0  0
M  CHG  2  52  -1  54   1
M  END
> <s_m_entry_id>
404

> <s_m_entry_name>
000000246.1

> <s_m_Source_Path>
/Users/zaksoul/Documents/3r_UNI/2nd_SEMESTER/BSC/FRAG_RECON/RESULTS/2

> <s_m_Source_File>
000000246.mol2

> <i_m_Source_File_Index>
1

$$$$
No_0_259
                    3D
 Schrodinger Suite 2022-4.
 69 74  0  0  1  0            999 V2000
   -5.4660    3.7240  -22.1030 C   0  0  0  0  0  0
   -5.6980    3.9100  -23.4450 C   0  0  0  0  0  0
   -4.2400    3.4560  -21.7310 C   0  0  0  0  0  0
   -3.2950    3.5610  -23.8750 C   0  0  0  0  0  0
   -3.1720    3.3210  -22.4500 C   0  0  0  0  0  0
   -4.6260    3.8390  -24.4290 C   0  0  0  0  0  0
   -3.8180    3.8410  -26.6090 C   0  0  0  0  0  0
    5.7710    3.0040  -21.1070 C   0  0  0  0  0  0
    5.6950    3.1360  -23.6600 C   0  0  0  0  0  0
   -4.8440    3.9630  -25.7710 C   0  0  0  0  0  0
    1.9200    3.7330  -23.7710 C   0  0  0  0  0  0
    1.1060    4.8540  -23.4960 C   0  0  0  0  0  0
    2.9030    6.0290  -22.7780 C   0  0  0  0  0  0
    3.3150    3.9070  -23.4250 C   0  0  0  0  0  0
    1.3750    2.6210  -24.4400 C   0  0  0  0  0  0
   -0.7440    3.4620  -24.3840 C   0  0  0  0  0  0
   -0.2150    4.6780  -23.7780 C   0  0  0  0  0  0
   -2.1880    3.4850  -24.7740 C   0  0  0  0  0  0
    3.8800    1.4030  -23.1070 C   0  0  0  0  0  0
    4.7810    1.0410  -21.9370 C   0  0  2  0  0  0
    6.4070    2.5580  -22.4420 C   0  0  2  0  0  0
    4.7480    2.0470  -20.7750 C   0  0  0  0  0  0
   -2.4760    3.6420  -26.2100 C   0  0  0  0  0  0
   -1.8480    2.8930  -21.8170 C   0  0  0  0  0  0
   -0.8350    2.5340  -21.2850 C   0  0  0  0  0  0
   -1.0520    5.7360  -23.4580 F   0  0  0  0  0  0
   -4.0660    3.2180  -20.3430 F   0  0  0  0  0  0
    1.5860    6.0090  -22.9580 N   0  0  0  0  0  0
    3.7920    5.0540  -22.9730 N   0  0  0  0  0  0
    0.0750    2.5470  -24.7760 N   0  0  0  0  0  0
    4.2230    2.8470  -23.5750 N   0  0  0  0  0  0
    6.2000    1.0870  -22.3860 N   0  0  1  0  0  0
   -3.9580    3.8510  -28.0020 O   0  0  0  0  0  0
   -6.2842    3.8012  -21.3961 H   0  0  0  0  0  0
   -6.7017    4.1168  -23.7983 H   0  0  0  0  0  0
    5.3160    3.9977  -21.2321 H   0  0  0  0  0  0
    6.5381    3.0080  -20.3187 H   0  0  0  0  0  0
    6.1061    2.6825  -24.5740 H   0  0  0  0  0  0
    5.8533    4.2240  -23.6933 H   0  0  0  0  0  0
   -5.8431    4.1598  -26.1425 H   0  0  0  0  0  0
    2.0092    1.7821  -24.7029 H   0  0  0  0  0  0
    2.8284    1.3616  -22.7871 H   0  0  0  0  0  0
    4.0536    0.6995  -23.9346 H   0  0  0  0  0  0
    4.5350    0.0337  -21.5700 H   0  0  0  0  0  0
    7.4795    2.8014  -22.4642 H   0  0  0  0  0  0
    3.7706    2.5513  -20.7568 H   0  0  0  0  0  0
    5.0195    1.5343  -19.8404 H   0  0  0  0  0  0
   -1.6886    3.6089  -26.9542 H   0  0  0  0  0  0
    0.0578    2.2191  -20.8171 H   0  0  0  0  0  0
    6.8237    0.5842  -21.6617 H   0  0  0  0  0  0
   -3.1044    3.7501  -28.4066 H   0  0  0  0  0  0
    5.7320   12.2670  -23.1440 O   0  5  0  0  0  0
    6.7050   11.4640  -25.0470 O   0  0  0  0  0  0
    4.9620    7.2960  -22.1260 N   0  3  0  0  0  0
    5.5780    8.4300  -21.3460 C   0  0  0  0  0  0
    3.4690    7.3630  -22.3020 C   0  0  0  0  0  0
    5.4430    9.8150  -22.0110 C   0  0  0  0  0  0
    6.3790    9.9690  -23.2250 C   0  0  0  0  0  0
    6.2640   11.3390  -23.8510 C   0  0  0  0  0  0
    5.2060    6.4210  -21.6890 H   0  0  0  0  0  0
    5.4024    7.2360  -23.0307 H   0  0  0  0  0  0
    6.6416    8.2131  -21.1681 H   0  0  0  0  0  0
    5.1349    8.4630  -20.3397 H   0  0  0  0  0  0
    3.2220    8.1470  -23.0330 H   0  0  0  0  0  0
    2.9989    7.6400  -21.3469 H   0  0  0  0  0  0
    5.6691   10.5984  -21.2726 H   0  0  0  0  0  0
    4.4013    9.9670  -22.3299 H   0  0  0  0  0  0
    6.1350    9.2021  -23.9749 H   0  0  0  0  0  0
    7.4184    9.7961  -22.9092 H   0  0  0  0  0  0
  1  2  2  0  0  0
  1  3  1  0  0  0
  1 34  1  0  0  0
  2  6  1  0  0  0
  2 35  1  0  0  0
  3  5  2  0  0  0
  3 27  1  0  0  0
  4  5  1  0  0  0
  4  6  2  0  0  0
  4 18  1  0  0  0
  5 24  1  0  0  0
  6 10  1  0  0  0
  7 10  2  0  0  0
  7 23  1  0  0  0
  7 33  1  0  0  0
  8 21  1  0  0  0
  8 22  1  0  0  0
  8 36  1  0  0  0
  8 37  1  0  0  0
  9 21  1  0  0  0
  9 31  1  0  0  0
  9 38  1  0  0  0
  9 39  1  0  0  0
 10 40  1  0  0  0
 11 12  1  0  0  0
 11 14  2  0  0  0
 11 15  1  0  0  0
 12 17  1  0  0  0
 12 28  2  0  0  0
 13 28  1  0  0  0
 13 29  2  0  0  0
 13 56  1  0  0  0
 14 29  1  0  0  0
 14 31  1  0  0  0
 15 30  2  0  0  0
 15 41  1  0  0  0
 16 17  2  0  0  0
 16 18  1  0  0  0
 16 30  1  0  0  0
 17 26  1  0  0  0
 18 23  2  0  0  0
 19 20  1  0  0  0
 19 31  1  0  0  0
 19 42  1  0  0  0
 19 43  1  0  0  0
 20 22  1  0  0  0
 20 32  1  0  0  0
 20 44  1  0  0  0
 21 32  1  0  0  0
 21 45  1  0  0  0
 22 46  1  0  0  0
 22 47  1  0  0  0
 23 48  1  0  0  0
 24 25  3  0  0  0
 25 49  1  0  0  0
 32 50  1  0  0  0
 33 51  1  0  0  0
 52 59  1  0  0  0
 53 59  2  0  0  0
 54 55  1  0  0  0
 54 56  1  0  0  0
 54 60  1  0  0  0
 54 61  1  0  0  0
 55 57  1  0  0  0
 55 62  1  0  0  0
 55 63  1  0  0  0
 56 64  1  0  0  0
 56 65  1  0  0  0
 57 58  1  0  0  0
 57 66  1  0  0  0
 57 67  1  0  0  0
 58 59  1  0  0  0
 58 68  1  0  0  0
 58 69  1  0  0  0
M  CHG  2  52  -1  54   1
M  END
> <s_m_entry_id>
405

> <s_m_entry_name>
000000247.1

> <s_m_Source_Path>
/Users/zaksoul/Documents/3r_UNI/2nd_SEMESTER/BSC/FRAG_RECON/RESULTS/2

> <s_m_Source_File>
000000247.mol2

> <i_m_Source_File_Index>
1

$$$$
No_0_260
                    3D
 Schrodinger Suite 2022-4.
 71 76  0  0  1  0            999 V2000
   -5.2440    3.6180  -21.6250 C   0  0  0  0  0  0
   -5.5500    3.7570  -22.9580 C   0  0  0  0  0  0
   -3.9950    3.3840  -21.3130 C   0  0  0  0  0  0
   -3.1680    3.4380  -23.5070 C   0  0  0  0  0  0
   -2.9640    3.2450  -22.0840 C   0  0  0  0  0  0
   -4.5320    3.6740  -23.9970 C   0  0  0  0  0  0
   -3.8410    3.6220  -26.2160 C   0  0  0  0  0  0
    6.0420    3.1290  -21.2160 C   0  0  0  0  0  0
    5.8280    3.1800  -23.7640 C   0  0  0  0  0  0
   -4.8230    3.7530  -25.3280 C   0  0  0  0  0  0
    2.0410    3.7060  -23.6890 C   0  0  0  0  0  0
    1.2220    4.8200  -23.4050 C   0  0  0  0  0  0
    3.0320    6.0490  -22.8210 C   0  0  0  0  0  0
    3.4490    3.9150  -23.4240 C   0  0  0  0  0  0
    1.4830    2.5630  -24.2940 C   0  0  0  0  0  0
   -0.6450    3.3680  -24.1500 C   0  0  0  0  0  0
   -0.1090    4.6120  -23.6100 C   0  0  0  0  0  0
   -2.1080    3.3540  -24.4610 C   0  0  0  0  0  0
    4.0790    1.4330  -23.0620 C   0  0  0  0  0  0
    5.0480    1.1230  -21.9320 C   0  0  2  0  0  0
    6.6150    2.6520  -22.5690 C   0  0  2  0  0  0
    5.0580    2.1650  -20.8010 C   0  0  0  0  0  0
   -2.4760    3.4610  -25.8840 C   0  0  0  0  0  0
   -1.6000    2.8600  -21.5110 C   0  0  0  0  0  0
   -0.5530    2.5360  -21.0240 C   0  0  0  0  0  0
   -0.9480    5.6640  -23.2780 F   0  0  0  0  0  0
   -3.7420    3.1910  -19.9300 F   0  0  0  0  0  0
    1.7070    6.0000  -22.9290 N   0  0  0  0  0  0
    3.9270    5.0840  -23.0340 N   0  0  0  0  0  0
    0.1690    2.4560  -24.5570 N   0  0  0  0  0  0
    4.3680    2.8670  -23.5910 N   0  0  0  0  0  0
    6.4400    1.1810  -22.4580 N   0  0  1  0  0  0
   -4.0550    3.5870  -27.5990 O   0  0  0  0  0  0
   -6.0251    3.7023  -20.8781 H   0  0  0  0  0  0
   -6.5749    3.9347  -23.2632 H   0  0  0  0  0  0
    5.5617    4.1099  -21.3472 H   0  0  0  0  0  0
    6.8504    3.1704  -20.4712 H   0  0  0  0  0  0
    6.1983    2.7047  -24.6843 H   0  0  0  0  0  0
    5.9632    4.2690  -23.8397 H   0  0  0  0  0  0
   -5.8443    3.9207  -25.6504 H   0  0  0  0  0  0
    2.1192    1.7282  -24.5649 H   0  0  0  0  0  0
    3.0470    1.3826  -22.6847 H   0  0  0  0  0  0
    4.2212    0.7068  -23.8759 H   0  0  0  0  0  0
    4.8410    0.1234  -21.5221 H   0  0  0  0  0  0
    7.6799    2.9134  -22.6568 H   0  0  0  0  0  0
    4.0730    2.6515  -20.7455 H   0  0  0  0  0  0
    5.3880    1.6857  -19.8675 H   0  0  0  0  0  0
   -1.7289    3.4178  -26.6682 H   0  0  0  0  0  0
    0.3689    2.2510  -20.5950 H   0  0  0  0  0  0
    7.1104    0.7116  -21.7533 H   0  0  0  0  0  0
   -3.2228    3.4880  -28.0463 H   0  0  0  0  0  0
    8.5640    9.1450  -20.9740 O   0  0  0  0  0  0
    4.3050    7.3410  -21.0870 N   0  3  0  0  0  0
    6.1400    9.0920  -21.2120 C   0  0  0  0  0  0
    3.5960    7.4070  -22.4170 C   0  0  0  0  0  0
    4.8100    8.6580  -20.5580 C   0  0  0  0  0  0
    7.3490    8.7220  -20.3340 C   0  0  0  0  0  0
    9.7180    8.8940  -20.1550 C   0  0  0  0  0  0
    5.0733    6.6917  -21.1520 H   0  0  0  0  0  0
    3.6948    6.9188  -20.4047 H   0  0  0  0  0  0
    6.1280   10.1794  -21.3779 H   0  0  0  0  0  0
    6.2400    8.6089  -22.1952 H   0  0  0  0  0  0
    4.2972    7.7561  -23.1893 H   0  0  0  0  0  0
    2.7779    8.1401  -22.3600 H   0  0  0  0  0  0
    4.9439    8.5860  -19.4686 H   0  0  0  0  0  0
    4.0492    9.4348  -20.7249 H   0  0  0  0  0  0
    7.2579    9.2174  -19.3561 H   0  0  0  0  0  0
    7.3730    7.6323  -20.1860 H   0  0  0  0  0  0
   10.6227    9.2323  -20.6814 H   0  0  0  0  0  0
    9.6200    9.4419  -19.2062 H   0  0  0  0  0  0
    9.7951    7.8162  -19.9489 H   0  0  0  0  0  0
  1  2  2  0  0  0
  1  3  1  0  0  0
  1 34  1  0  0  0
  2  6  1  0  0  0
  2 35  1  0  0  0
  3  5  2  0  0  0
  3 27  1  0  0  0
  4  5  1  0  0  0
  4  6  2  0  0  0
  4 18  1  0  0  0
  5 24  1  0  0  0
  6 10  1  0  0  0
  7 10  2  0  0  0
  7 23  1  0  0  0
  7 33  1  0  0  0
  8 21  1  0  0  0
  8 22  1  0  0  0
  8 36  1  0  0  0
  8 37  1  0  0  0
  9 21  1  0  0  0
  9 31  1  0  0  0
  9 38  1  0  0  0
  9 39  1  0  0  0
 10 40  1  0  0  0
 11 12  1  0  0  0
 11 14  2  0  0  0
 11 15  1  0  0  0
 12 17  1  0  0  0
 12 28  2  0  0  0
 13 28  1  0  0  0
 13 29  2  0  0  0
 13 55  1  0  0  0
 14 29  1  0  0  0
 14 31  1  0  0  0
 15 30  2  0  0  0
 15 41  1  0  0  0
 16 17  2  0  0  0
 16 18  1  0  0  0
 16 30  1  0  0  0
 17 26  1  0  0  0
 18 23  2  0  0  0
 19 20  1  0  0  0
 19 31  1  0  0  0
 19 42  1  0  0  0
 19 43  1  0  0  0
 20 22  1  0  0  0
 20 32  1  0  0  0
 20 44  1  0  0  0
 21 32  1  0  0  0
 21 45  1  0  0  0
 22 46  1  0  0  0
 22 47  1  0  0  0
 23 48  1  0  0  0
 24 25  3  0  0  0
 25 49  1  0  0  0
 32 50  1  0  0  0
 33 51  1  0  0  0
 52 57  1  0  0  0
 52 58  1  0  0  0
 53 55  1  0  0  0
 53 56  1  0  0  0
 53 59  1  0  0  0
 53 60  1  0  0  0
 54 56  1  0  0  0
 54 57  1  0  0  0
 54 61  1  0  0  0
 54 62  1  0  0  0
 55 63  1  0  0  0
 55 64  1  0  0  0
 56 65  1  0  0  0
 56 66  1  0  0  0
 57 67  1  0  0  0
 57 68  1  0  0  0
 58 69  1  0  0  0
 58 70  1  0  0  0
 58 71  1  0  0  0
M  CHG  1  53   1
M  END
> <s_m_entry_id>
406

> <s_m_entry_name>
000000248.1

> <s_m_Source_Path>
/Users/zaksoul/Documents/3r_UNI/2nd_SEMESTER/BSC/FRAG_RECON/RESULTS/2

> <s_m_Source_File>
000000248.mol2

> <i_m_Source_File_Index>
1

$$$$
No_0_261
                    3D
 Schrodinger Suite 2022-4.
 71 76  0  0  1  0            999 V2000
   -5.1810    3.6090  -21.8530 C   0  0  0  0  0  0
   -5.4520    3.8050  -23.1860 C   0  0  0  0  0  0
   -3.9420    3.3510  -21.5190 C   0  0  0  0  0  0
   -3.0590    3.4860  -23.6870 C   0  0  0  0  0  0
   -2.8930    3.2340  -22.2690 C   0  0  0  0  0  0
   -4.4090    3.7540  -24.2010 C   0  0  0  0  0  0
   -3.6630    3.7850  -26.4030 C   0  0  0  0  0  0
    6.0870    3.0010  -21.1820 C   0  0  0  0  0  0
    5.9380    3.1560  -23.7310 C   0  0  0  0  0  0
   -4.6650    3.8890  -25.5350 C   0  0  0  0  0  0
    2.1540    3.7130  -23.7290 C   0  0  0  0  0  0
    1.3370    4.8230  -23.4210 C   0  0  0  0  0  0
    3.1410    6.0110  -22.7430 C   0  0  0  0  0  0
    3.5570    3.8990  -23.4210 C   0  0  0  0  0  0
    1.6030    2.6010  -24.3930 C   0  0  0  0  0  0
   -0.5220    3.4190  -24.2700 C   0  0  0  0  0  0
    0.0100    4.6350  -23.6670 C   0  0  0  0  0  0
   -1.9770    3.4300  -24.6180 C   0  0  0  0  0  0
    4.1570    1.3990  -23.1440 C   0  0  0  0  0  0
    5.0950    1.0350  -22.0030 C   0  0  2  0  0  0
    6.6890    2.5740  -22.5390 C   0  0  2  0  0  0
    5.0840    2.0310  -20.8310 C   0  0  0  0  0  0
   -2.3080    3.5970  -26.0440 C   0  0  0  0  0  0
   -1.5470    2.8150  -21.6780 C   0  0  0  0  0  0
   -0.5150    2.4620  -21.1780 C   0  0  0  0  0  0
   -0.8280    5.6800  -23.3140 F   0  0  0  0  0  0
   -3.7260    3.1020  -20.1390 F   0  0  0  0  0  0
    1.8200    5.9780  -22.8860 N   0  0  0  0  0  0
    4.0350    5.0470  -22.9720 N   0  0  0  0  0  0
    0.2950    2.5160  -24.6930 N   0  0  0  0  0  0
    4.4710    2.8500  -23.6070 N   0  0  0  0  0  0
    6.5000    1.1010  -22.4910 N   0  0  1  0  0  0
   -3.8410    3.8060  -27.7920 O   0  0  0  0  0  0
   -5.9796    3.6712  -21.1226 H   0  0  0  0  0  0
   -6.4675    4.0037  -23.5091 H   0  0  0  0  0  0
    5.6179    3.9906  -21.2849 H   0  0  0  0  0  0
    6.8763    3.0060  -20.4159 H   0  0  0  0  0  0
    6.3275    2.7150  -24.6604 H   0  0  0  0  0  0
    6.0833    4.2460  -23.7593 H   0  0  0  0  0  0
   -5.6765    4.0776  -25.8762 H   0  0  0  0  0  0
    2.2385    1.7718  -24.6821 H   0  0  0  0  0  0
    3.1157    1.3435  -22.7939 H   0  0  0  0  0  0
    4.3144    0.7047  -23.9826 H   0  0  0  0  0  0
    4.8700    0.0218  -21.6387 H   0  0  0  0  0  0
    7.7578    2.8293  -22.5885 H   0  0  0  0  0  0
    4.1018    2.5236  -20.7805 H   0  0  0  0  0  0
    5.3877    1.5123  -19.9097 H   0  0  0  0  0  0
   -1.5411    3.5789  -26.8099 H   0  0  0  0  0  0
    0.3934    2.1519  -20.7378 H   0  0  0  0  0  0
    7.1492    0.5983  -21.7894 H   0  0  0  0  0  0
   -2.9984    3.7179  -28.2217 H   0  0  0  0  0  0
    8.7660    9.2090  -21.4210 O   0  0  0  0  0  0
    4.6240    7.1740  -21.0860 N   0  3  0  0  0  0
    6.3390    9.0370  -21.2820 C   0  0  0  0  0  0
    3.7060    7.3460  -22.2710 C   0  0  0  0  0  0
    5.1520    8.4510  -20.4860 C   0  0  0  0  0  0
    7.6890    8.6430  -20.6550 C   0  0  0  0  0  0
   10.0460    8.9380  -20.8270 C   0  0  0  0  0  0
    5.3983    6.5838  -21.3471 H   0  0  0  0  0  0
    4.1500    6.6420  -20.3730 H   0  0  0  0  0  0
    6.2550   10.1334  -21.3120 H   0  0  0  0  0  0
    6.2990    8.6741  -22.3197 H   0  0  0  0  0  0
    4.2579    7.8219  -23.0949 H   0  0  0  0  0  0
    2.8788    8.0181  -21.9989 H   0  0  0  0  0  0
    5.4632    8.2659  -19.4473 H   0  0  0  0  0  0
    4.3426    9.1944  -20.4380 H   0  0  0  0  0  0
    7.7360    9.0189  -19.6223 H   0  0  0  0  0  0
    7.7830    7.5471  -20.6450 H   0  0  0  0  0  0
   10.8381    9.3871  -21.4441 H   0  0  0  0  0  0
   10.0800    9.3692  -19.8156 H   0  0  0  0  0  0
   10.2001    7.8504  -20.7680 H   0  0  0  0  0  0
  1  2  2  0  0  0
  1  3  1  0  0  0
  1 34  1  0  0  0
  2  6  1  0  0  0
  2 35  1  0  0  0
  3  5  2  0  0  0
  3 27  1  0  0  0
  4  5  1  0  0  0
  4  6  2  0  0  0
  4 18  1  0  0  0
  5 24  1  0  0  0
  6 10  1  0  0  0
  7 10  2  0  0  0
  7 23  1  0  0  0
  7 33  1  0  0  0
  8 21  1  0  0  0
  8 22  1  0  0  0
  8 36  1  0  0  0
  8 37  1  0  0  0
  9 21  1  0  0  0
  9 31  1  0  0  0
  9 38  1  0  0  0
  9 39  1  0  0  0
 10 40  1  0  0  0
 11 12  1  0  0  0
 11 14  2  0  0  0
 11 15  1  0  0  0
 12 17  1  0  0  0
 12 28  2  0  0  0
 13 28  1  0  0  0
 13 29  2  0  0  0
 13 55  1  0  0  0
 14 29  1  0  0  0
 14 31  1  0  0  0
 15 30  2  0  0  0
 15 41  1  0  0  0
 16 17  2  0  0  0
 16 18  1  0  0  0
 16 30  1  0  0  0
 17 26  1  0  0  0
 18 23  2  0  0  0
 19 20  1  0  0  0
 19 31  1  0  0  0
 19 42  1  0  0  0
 19 43  1  0  0  0
 20 22  1  0  0  0
 20 32  1  0  0  0
 20 44  1  0  0  0
 21 32  1  0  0  0
 21 45  1  0  0  0
 22 46  1  0  0  0
 22 47  1  0  0  0
 23 48  1  0  0  0
 24 25  3  0  0  0
 25 49  1  0  0  0
 32 50  1  0  0  0
 33 51  1  0  0  0
 52 57  1  0  0  0
 52 58  1  0  0  0
 53 55  1  0  0  0
 53 56  1  0  0  0
 53 59  1  0  0  0
 53 60  1  0  0  0
 54 56  1  0  0  0
 54 57  1  0  0  0
 54 61  1  0  0  0
 54 62  1  0  0  0
 55 63  1  0  0  0
 55 64  1  0  0  0
 56 65  1  0  0  0
 56 66  1  0  0  0
 57 67  1  0  0  0
 57 68  1  0  0  0
 58 69  1  0  0  0
 58 70  1  0  0  0
 58 71  1  0  0  0
M  CHG  1  53   1
M  END
> <s_m_entry_id>
407

> <s_m_entry_name>
000000249.1

> <s_m_Source_Path>
/Users/zaksoul/Documents/3r_UNI/2nd_SEMESTER/BSC/FRAG_RECON/RESULTS/2

> <s_m_Source_File>
000000249.mol2

> <i_m_Source_File_Index>
1

$$$$
No_0_262
                    3D
 Schrodinger Suite 2022-4.
 71 76  0  0  1  0            999 V2000
   -5.1810    3.6090  -21.8530 C   0  0  0  0  0  0
   -5.4520    3.8050  -23.1860 C   0  0  0  0  0  0
   -3.9420    3.3510  -21.5190 C   0  0  0  0  0  0
   -3.0590    3.4860  -23.6870 C   0  0  0  0  0  0
   -2.8930    3.2340  -22.2690 C   0  0  0  0  0  0
   -4.4090    3.7540  -24.2010 C   0  0  0  0  0  0
   -3.6630    3.7850  -26.4030 C   0  0  0  0  0  0
    6.0870    3.0010  -21.1820 C   0  0  0  0  0  0
    5.9380    3.1560  -23.7310 C   0  0  0  0  0  0
   -4.6650    3.8890  -25.5350 C   0  0  0  0  0  0
    2.1540    3.7130  -23.7290 C   0  0  0  0  0  0
    1.3370    4.8230  -23.4210 C   0  0  0  0  0  0
    3.1410    6.0110  -22.7430 C   0  0  0  0  0  0
    3.5570    3.8990  -23.4210 C   0  0  0  0  0  0
    1.6030    2.6010  -24.3930 C   0  0  0  0  0  0
   -0.5220    3.4190  -24.2700 C   0  0  0  0  0  0
    0.0100    4.6350  -23.6670 C   0  0  0  0  0  0
   -1.9770    3.4300  -24.6180 C   0  0  0  0  0  0
    4.1570    1.3990  -23.1440 C   0  0  0  0  0  0
    5.0950    1.0350  -22.0030 C   0  0  2  0  0  0
    6.6890    2.5740  -22.5390 C   0  0  2  0  0  0
    5.0840    2.0310  -20.8310 C   0  0  0  0  0  0
   -2.3080    3.5970  -26.0440 C   0  0  0  0  0  0
   -1.5470    2.8150  -21.6780 C   0  0  0  0  0  0
   -0.5150    2.4620  -21.1780 C   0  0  0  0  0  0
   -0.8280    5.6800  -23.3140 F   0  0  0  0  0  0
   -3.7260    3.1020  -20.1390 F   0  0  0  0  0  0
    1.8200    5.9780  -22.8860 N   0  0  0  0  0  0
    4.0350    5.0470  -22.9720 N   0  0  0  0  0  0
    0.2950    2.5160  -24.6930 N   0  0  0  0  0  0
    4.4710    2.8500  -23.6070 N   0  0  0  0  0  0
    6.5000    1.1010  -22.4910 N   0  0  1  0  0  0
   -3.8410    3.8060  -27.7920 O   0  0  0  0  0  0
   -5.9796    3.6712  -21.1226 H   0  0  0  0  0  0
   -6.4675    4.0037  -23.5091 H   0  0  0  0  0  0
    5.6179    3.9906  -21.2849 H   0  0  0  0  0  0
    6.8763    3.0060  -20.4159 H   0  0  0  0  0  0
    6.3275    2.7150  -24.6604 H   0  0  0  0  0  0
    6.0833    4.2460  -23.7593 H   0  0  0  0  0  0
   -5.6765    4.0776  -25.8762 H   0  0  0  0  0  0
    2.2385    1.7718  -24.6821 H   0  0  0  0  0  0
    3.1157    1.3435  -22.7939 H   0  0  0  0  0  0
    4.3144    0.7047  -23.9826 H   0  0  0  0  0  0
    4.8700    0.0218  -21.6387 H   0  0  0  0  0  0
    7.7578    2.8293  -22.5885 H   0  0  0  0  0  0
    4.1018    2.5236  -20.7805 H   0  0  0  0  0  0
    5.3877    1.5123  -19.9097 H   0  0  0  0  0  0
   -1.5411    3.5789  -26.8099 H   0  0  0  0  0  0
    0.3934    2.1519  -20.7378 H   0  0  0  0  0  0
    7.1492    0.5983  -21.7894 H   0  0  0  0  0  0
   -2.9984    3.7179  -28.2217 H   0  0  0  0  0  0
    8.7630    9.3470  -21.8100 O   0  0  0  0  0  0
    4.7340    7.1620  -21.1820 N   0  3  0  0  0  0
    6.3660    9.0870  -21.4590 C   0  0  0  0  0  0
    3.7060    7.3460  -22.2710 C   0  0  0  0  0  0
    5.2760    8.4330  -20.5820 C   0  0  0  0  0  0
    7.7790    8.7170  -20.9730 C   0  0  0  0  0  0
   10.1000    9.0990  -21.3470 C   0  0  0  0  0  0
    5.4981    6.6080  -21.5360 H   0  0  0  0  0  0
    4.3448    6.5877  -20.4507 H   0  0  0  0  0  0
    6.2461   10.1802  -21.4370 H   0  0  0  0  0  0
    6.2409    8.7628  -22.5027 H   0  0  0  0  0  0
    4.1649    7.8709  -23.1218 H   0  0  0  0  0  0
    2.8872    7.9788  -21.8981 H   0  0  0  0  0  0
    5.6873    8.2199  -19.5843 H   0  0  0  0  0  0
    4.4521    9.1460  -20.4310 H   0  0  0  0  0  0
    7.9100    9.0561  -19.9348 H   0  0  0  0  0  0
    7.9071    7.6253  -21.0150 H   0  0  0  0  0  0
   10.8190    9.5970  -22.0140 H   0  0  0  0  0  0
   10.2140    9.4920  -20.3260 H   0  0  0  0  0  0
   10.2930    8.0161  -21.3450 H   0  0  0  0  0  0
  1  2  2  0  0  0
  1  3  1  0  0  0
  1 34  1  0  0  0
  2  6  1  0  0  0
  2 35  1  0  0  0
  3  5  2  0  0  0
  3 27  1  0  0  0
  4  5  1  0  0  0
  4  6  2  0  0  0
  4 18  1  0  0  0
  5 24  1  0  0  0
  6 10  1  0  0  0
  7 10  2  0  0  0
  7 23  1  0  0  0
  7 33  1  0  0  0
  8 21  1  0  0  0
  8 22  1  0  0  0
  8 36  1  0  0  0
  8 37  1  0  0  0
  9 21  1  0  0  0
  9 31  1  0  0  0
  9 38  1  0  0  0
  9 39  1  0  0  0
 10 40  1  0  0  0
 11 12  1  0  0  0
 11 14  2  0  0  0
 11 15  1  0  0  0
 12 17  1  0  0  0
 12 28  2  0  0  0
 13 28  1  0  0  0
 13 29  2  0  0  0
 13 55  1  0  0  0
 14 29  1  0  0  0
 14 31  1  0  0  0
 15 30  2  0  0  0
 15 41  1  0  0  0
 16 17  2  0  0  0
 16 18  1  0  0  0
 16 30  1  0  0  0
 17 26  1  0  0  0
 18 23  2  0  0  0
 19 20  1  0  0  0
 19 31  1  0  0  0
 19 42  1  0  0  0
 19 43  1  0  0  0
 20 22  1  0  0  0
 20 32  1  0  0  0
 20 44  1  0  0  0
 21 32  1  0  0  0
 21 45  1  0  0  0
 22 46  1  0  0  0
 22 47  1  0  0  0
 23 48  1  0  0  0
 24 25  3  0  0  0
 25 49  1  0  0  0
 32 50  1  0  0  0
 33 51  1  0  0  0
 52 57  1  0  0  0
 52 58  1  0  0  0
 53 55  1  0  0  0
 53 56  1  0  0  0
 53 59  1  0  0  0
 53 60  1  0  0  0
 54 56  1  0  0  0
 54 57  1  0  0  0
 54 61  1  0  0  0
 54 62  1  0  0  0
 55 63  1  0  0  0
 55 64  1  0  0  0
 56 65  1  0  0  0
 56 66  1  0  0  0
 57 67  1  0  0  0
 57 68  1  0  0  0
 58 69  1  0  0  0
 58 70  1  0  0  0
 58 71  1  0  0  0
M  CHG  1  53   1
M  END
> <s_m_entry_id>
408

> <s_m_entry_name>
000000250.1

> <s_m_Source_Path>
/Users/zaksoul/Documents/3r_UNI/2nd_SEMESTER/BSC/FRAG_RECON/RESULTS/2

> <s_m_Source_File>
000000250.mol2

> <i_m_Source_File_Index>
1

$$$$
No_0_263
                    3D
 Schrodinger Suite 2022-4.
 70 75  0  0  1  0            999 V2000
   -4.9110    3.5200  -22.0990 C   0  0  0  0  0  0
   -5.1750    3.6910  -23.4370 C   0  0  0  0  0  0
   -3.6720    3.2770  -21.7520 C   0  0  0  0  0  0
   -2.7760    3.3820  -23.9160 C   0  0  0  0  0  0
   -2.6180    3.1560  -22.4930 C   0  0  0  0  0  0
   -4.1240    3.6310  -24.4440 C   0  0  0  0  0  0
   -3.3630    3.6300  -26.6400 C   0  0  0  0  0  0
    6.3560    3.0130  -21.3420 C   0  0  0  0  0  0
    6.2230    3.1240  -23.8930 C   0  0  0  0  0  0
   -4.3720    3.7410  -25.7810 C   0  0  0  0  0  0
    2.4360    3.6510  -23.9270 C   0  0  0  0  0  0
    1.6080    4.7580  -23.6430 C   0  0  0  0  0  0
    3.3980    5.9720  -22.9730 C   0  0  0  0  0  0
    3.8340    3.8530  -23.6120 C   0  0  0  0  0  0
    1.8970    2.5230  -24.5760 C   0  0  0  0  0  0
   -0.2350    3.3260  -24.4800 C   0  0  0  0  0  0
    0.2840    4.5560  -23.8950 C   0  0  0  0  0  0
   -1.6870    3.3200  -24.8380 C   0  0  0  0  0  0
    4.4530    1.3620  -23.2880 C   0  0  0  0  0  0
    5.3850    1.0250  -22.1350 C   0  0  2  0  0  0
    6.9710    2.5680  -22.6860 C   0  0  2  0  0  0
    5.3590    2.0410  -20.9800 C   0  0  0  0  0  0
   -2.0090    3.4600  -26.2690 C   0  0  0  0  0  0
   -1.2730    2.7570  -21.8860 C   0  0  0  0  0  0
   -0.2420    2.4210  -21.3730 C   0  0  0  0  0  0
   -0.5640    5.6010  -23.5650 F   0  0  0  0  0  0
   -3.4640    3.0530  -20.3660 F   0  0  0  0  0  0
    2.0770    5.9260  -23.1240 N   0  0  0  0  0  0
    4.3000    5.0120  -23.1790 N   0  0  0  0  0  0
    0.5920    2.4220  -24.8830 N   0  0  0  0  0  0
    4.7590    2.8080  -23.7740 N   0  0  0  0  0  0
    6.7930    1.0940  -22.6150 N   0  0  1  0  0  0
   -3.5320    3.6270  -28.0310 O   0  0  0  0  0  0
   -5.7151    3.5873  -21.3752 H   0  0  0  0  0  0
   -6.1898    3.8757  -23.7703 H   0  0  0  0  0  0
    5.8805    3.9974  -21.4642 H   0  0  0  0  0  0
    7.1402    3.0372  -20.5710 H   0  0  0  0  0  0
    6.6224    2.6701  -24.8119 H   0  0  0  0  0  0
    6.3603    4.2144  -23.9384 H   0  0  0  0  0  0
   -5.3824    3.9166  -26.1322 H   0  0  0  0  0  0
    2.5413    1.6941  -24.8459 H   0  0  0  0  0  0
    3.4095    1.3045  -22.9449 H   0  0  0  0  0  0
    4.6205    0.6556  -24.1144 H   0  0  0  0  0  0
    5.1659    0.0161  -21.7553 H   0  0  0  0  0  0
    8.0382    2.8303  -22.7334 H   0  0  0  0  0  0
    4.3726    2.5266  -20.9457 H   0  0  0  0  0  0
    5.6598    1.5394  -20.0484 H   0  0  0  0  0  0
   -1.2372    3.4349  -27.0298 H   0  0  0  0  0  0
    0.6661    2.1260  -20.9220 H   0  0  0  0  0  0
    7.4412    0.6084  -21.9005 H   0  0  0  0  0  0
   -2.6854    3.5389  -28.4528 H   0  0  0  0  0  0
    6.2900   10.7740  -21.2490 O   0  0  0  0  0  0
    6.9700    8.6990  -21.7890 O   0  0  0  0  0  0
    3.3100    7.7420  -21.2240 N   0  3  0  0  0  0
    3.9490    7.3200  -22.5200 C   0  0  0  0  0  0
    3.7840    9.0520  -20.6500 C   0  0  0  0  0  0
    5.2310    8.9920  -20.1120 C   0  0  0  0  0  0
    6.2450    9.4340  -21.1420 C   0  0  0  0  0  0
    7.2560   11.3240  -22.1590 C   0  0  0  0  0  0
    3.4360    7.0141  -20.5381 H   0  0  0  0  0  0
    2.3093    7.7730  -21.3410 H   0  0  0  0  0  0
    5.0378    7.2430  -22.3840 H   0  0  0  0  0  0
    3.7460    8.0769  -23.2919 H   0  0  0  0  0  0
    3.1060    9.3640  -19.8420 H   0  0  0  0  0  0
    3.7130    9.8347  -21.4197 H   0  0  0  0  0  0
    5.4590    7.9649  -19.7910 H   0  0  0  0  0  0
    5.3160    9.6277  -19.2184 H   0  0  0  0  0  0
    7.1860   12.4217  -22.1500 H   0  0  0  0  0  0
    8.2667   11.0191  -21.8501 H   0  0  0  0  0  0
    7.0560   10.9530  -23.1750 H   0  0  0  0  0  0
  1  2  2  0  0  0
  1  3  1  0  0  0
  1 34  1  0  0  0
  2  6  1  0  0  0
  2 35  1  0  0  0
  3  5  2  0  0  0
  3 27  1  0  0  0
  4  5  1  0  0  0
  4  6  2  0  0  0
  4 18  1  0  0  0
  5 24  1  0  0  0
  6 10  1  0  0  0
  7 10  2  0  0  0
  7 23  1  0  0  0
  7 33  1  0  0  0
  8 21  1  0  0  0
  8 22  1  0  0  0
  8 36  1  0  0  0
  8 37  1  0  0  0
  9 21  1  0  0  0
  9 31  1  0  0  0
  9 38  1  0  0  0
  9 39  1  0  0  0
 10 40  1  0  0  0
 11 12  1  0  0  0
 11 14  2  0  0  0
 11 15  1  0  0  0
 12 17  1  0  0  0
 12 28  2  0  0  0
 13 28  1  0  0  0
 13 29  2  0  0  0
 13 55  1  0  0  0
 14 29  1  0  0  0
 14 31  1  0  0  0
 15 30  2  0  0  0
 15 41  1  0  0  0
 16 17  2  0  0  0
 16 18  1  0  0  0
 16 30  1  0  0  0
 17 26  1  0  0  0
 18 23  2  0  0  0
 19 20  1  0  0  0
 19 31  1  0  0  0
 19 42  1  0  0  0
 19 43  1  0  0  0
 20 22  1  0  0  0
 20 32  1  0  0  0
 20 44  1  0  0  0
 21 32  1  0  0  0
 21 45  1  0  0  0
 22 46  1  0  0  0
 22 47  1  0  0  0
 23 48  1  0  0  0
 24 25  3  0  0  0
 25 49  1  0  0  0
 32 50  1  0  0  0
 33 51  1  0  0  0
 52 58  1  0  0  0
 52 59  1  0  0  0
 53 58  2  0  0  0
 54 55  1  0  0  0
 54 56  1  0  0  0
 54 60  1  0  0  0
 54 61  1  0  0  0
 55 62  1  0  0  0
 55 63  1  0  0  0
 56 57  1  0  0  0
 56 64  1  0  0  0
 56 65  1  0  0  0
 57 58  1  0  0  0
 57 66  1  0  0  0
 57 67  1  0  0  0
 59 68  1  0  0  0
 59 69  1  0  0  0
 59 70  1  0  0  0
M  CHG  1  54   1
M  END
> <s_m_entry_id>
409

> <s_m_entry_name>
000000251.1

> <s_m_Source_Path>
/Users/zaksoul/Documents/3r_UNI/2nd_SEMESTER/BSC/FRAG_RECON/RESULTS/2

> <s_m_Source_File>
000000251.mol2

> <i_m_Source_File_Index>
1

$$$$
No_0_264
                    3D
 Schrodinger Suite 2022-4.
 70 75  0  0  1  0            999 V2000
   -5.0800    3.7380  -21.7230 C   0  0  0  0  0  0
   -5.3570    3.9260  -23.0560 C   0  0  0  0  0  0
   -3.8410    3.4770  -21.3930 C   0  0  0  0  0  0
   -2.9680    3.5940  -23.5660 C   0  0  0  0  0  0
   -2.7960    3.3510  -22.1470 C   0  0  0  0  0  0
   -4.3190    3.8640  -24.0760 C   0  0  0  0  0  0
   -3.5830    3.8770  -26.2810 C   0  0  0  0  0  0
    6.1880    3.0900  -21.1010 C   0  0  0  0  0  0
    6.0270    3.2280  -23.6500 C   0  0  0  0  0  0
   -4.5810    3.9910  -25.4090 C   0  0  0  0  0  0
    2.2460    3.8010  -23.6340 C   0  0  0  0  0  0
    1.4350    4.9150  -23.3300 C   0  0  0  0  0  0
    3.2470    6.1000  -22.6680 C   0  0  0  0  0  0
    3.6510    3.9830  -23.3340 C   0  0  0  0  0  0
    1.6870    2.6860  -24.2880 C   0  0  0  0  0  0
   -0.4340    3.5130  -24.1600 C   0  0  0  0  0  0
    0.1060    4.7310  -23.5680 C   0  0  0  0  0  0
   -1.8900    3.5280  -24.5010 C   0  0  0  0  0  0
    4.2430    1.4820  -23.0430 C   0  0  0  0  0  0
    5.1840    1.1220  -21.9040 C   0  0  2  0  0  0
    6.7820    2.6520  -22.4580 C   0  0  2  0  0  0
    5.1830    2.1260  -20.7390 C   0  0  0  0  0  0
   -2.2270    3.6870  -25.9270 C   0  0  0  0  0  0
   -1.4490    2.9300  -21.5600 C   0  0  0  0  0  0
   -0.4160    2.5770  -21.0620 C   0  0  0  0  0  0
   -0.7260    5.7820  -23.2180 F   0  0  0  0  0  0
   -3.6190    3.2360  -20.0120 F   0  0  0  0  0  0
    1.9240    6.0720  -22.8050 N   0  0  0  0  0  0
    4.1350    5.1320  -22.8950 N   0  0  0  0  0  0
    0.3770    2.6040  -24.5820 N   0  0  0  0  0  0
    4.5600    2.9290  -23.5170 N   0  0  0  0  0  0
    6.5870    1.1790  -22.3990 N   0  0  1  0  0  0
   -3.7680    3.8900  -27.6690 O   0  0  0  0  0  0
   -5.8749    3.8073  -20.9893 H   0  0  0  0  0  0
   -6.3734    4.1267  -23.3751 H   0  0  0  0  0  0
    5.7228    4.0809  -21.2090 H   0  0  0  0  0  0
    6.9813    3.0971  -20.3390 H   0  0  0  0  0  0
    6.4105    2.7799  -24.5785 H   0  0  0  0  0  0
    6.1773    4.3171  -23.6863 H   0  0  0  0  0  0
   -5.5934    4.1816  -25.7461 H   0  0  0  0  0  0
    2.3181    1.8523  -24.5739 H   0  0  0  0  0  0
    3.2031    1.4326  -22.6879 H   0  0  0  0  0  0
    4.3934    0.7815  -23.8777 H   0  0  0  0  0  0
    4.9568    0.1123  -21.5314 H   0  0  0  0  0  0
    7.8517    2.9023  -22.5145 H   0  0  0  0  0  0
    4.2028    2.6226  -20.6875 H   0  0  0  0  0  0
    5.4886    1.6115  -19.8160 H   0  0  0  0  0  0
   -1.4647    3.6609  -26.6973 H   0  0  0  0  0  0
    0.4935    2.2658  -20.6248 H   0  0  0  0  0  0
    7.2382    0.6786  -21.6976 H   0  0  0  0  0  0
   -2.9275    3.7959  -28.1016 H   0  0  0  0  0  0
    6.2120   10.9240  -21.1400 O   0  0  0  0  0  0
    6.8500    8.9720  -22.0570 O   0  0  0  0  0  0
    3.4920    7.6800  -20.7580 N   0  3  0  0  0  0
    3.8190    7.4370  -22.2080 C   0  0  0  0  0  0
    4.0210    8.9610  -20.1680 C   0  0  0  0  0  0
    5.5570    8.9620  -19.9950 C   0  0  0  0  0  0
    6.2660    9.5800  -21.1780 C   0  0  0  0  0  0
    6.8990   11.6350  -22.1840 C   0  0  0  0  0  0
    3.8187    6.9007  -20.2085 H   0  0  0  0  0  0
    2.4926    7.6430  -20.6319 H   0  0  0  0  0  0
    4.9109    7.4330  -22.3410 H   0  0  0  0  0  0
    3.3957    8.2476  -22.8194 H   0  0  0  0  0  0
    3.5443    9.1379  -19.1926 H   0  0  0  0  0  0
    3.7240    9.8071  -20.8051 H   0  0  0  0  0  0
    5.9102    7.9296  -19.8559 H   0  0  0  0  0  0
    5.8221    9.5132  -19.0807 H   0  0  0  0  0  0
    6.7750   12.7177  -22.0340 H   0  0  0  0  0  0
    7.9690   11.3810  -22.1590 H   0  0  0  0  0  0
    6.4782   11.3501  -23.1596 H   0  0  0  0  0  0
  1  2  2  0  0  0
  1  3  1  0  0  0
  1 34  1  0  0  0
  2  6  1  0  0  0
  2 35  1  0  0  0
  3  5  2  0  0  0
  3 27  1  0  0  0
  4  5  1  0  0  0
  4  6  2  0  0  0
  4 18  1  0  0  0
  5 24  1  0  0  0
  6 10  1  0  0  0
  7 10  2  0  0  0
  7 23  1  0  0  0
  7 33  1  0  0  0
  8 21  1  0  0  0
  8 22  1  0  0  0
  8 36  1  0  0  0
  8 37  1  0  0  0
  9 21  1  0  0  0
  9 31  1  0  0  0
  9 38  1  0  0  0
  9 39  1  0  0  0
 10 40  1  0  0  0
 11 12  1  0  0  0
 11 14  2  0  0  0
 11 15  1  0  0  0
 12 17  1  0  0  0
 12 28  2  0  0  0
 13 28  1  0  0  0
 13 29  2  0  0  0
 13 55  1  0  0  0
 14 29  1  0  0  0
 14 31  1  0  0  0
 15 30  2  0  0  0
 15 41  1  0  0  0
 16 17  2  0  0  0
 16 18  1  0  0  0
 16 30  1  0  0  0
 17 26  1  0  0  0
 18 23  2  0  0  0
 19 20  1  0  0  0
 19 31  1  0  0  0
 19 42  1  0  0  0
 19 43  1  0  0  0
 20 22  1  0  0  0
 20 32  1  0  0  0
 20 44  1  0  0  0
 21 32  1  0  0  0
 21 45  1  0  0  0
 22 46  1  0  0  0
 22 47  1  0  0  0
 23 48  1  0  0  0
 24 25  3  0  0  0
 25 49  1  0  0  0
 32 50  1  0  0  0
 33 51  1  0  0  0
 52 58  1  0  0  0
 52 59  1  0  0  0
 53 58  2  0  0  0
 54 55  1  0  0  0
 54 56  1  0  0  0
 54 60  1  0  0  0
 54 61  1  0  0  0
 55 62  1  0  0  0
 55 63  1  0  0  0
 56 57  1  0  0  0
 56 64  1  0  0  0
 56 65  1  0  0  0
 57 58  1  0  0  0
 57 66  1  0  0  0
 57 67  1  0  0  0
 59 68  1  0  0  0
 59 69  1  0  0  0
 59 70  1  0  0  0
M  CHG  1  54   1
M  END
> <s_m_entry_id>
410

> <s_m_entry_name>
000000252.1

> <s_m_Source_Path>
/Users/zaksoul/Documents/3r_UNI/2nd_SEMESTER/BSC/FRAG_RECON/RESULTS/2

> <s_m_Source_File>
000000252.mol2

> <i_m_Source_File_Index>
1

$$$$
No_0_265
                    3D
 Schrodinger Suite 2022-4.
 70 75  0  0  1  0            999 V2000
   -5.4650    3.5510  -21.9640 C   0  0  0  0  0  0
   -5.7030    3.6960  -23.3100 C   0  0  0  0  0  0
   -4.2320    3.3230  -21.5880 C   0  0  0  0  0  0
   -3.2930    3.3930  -23.7360 C   0  0  0  0  0  0
   -3.1620    3.1940  -22.3050 C   0  0  0  0  0  0
   -4.6320    3.6240  -24.2950 C   0  0  0  0  0  0
   -3.8270    3.5880  -26.4750 C   0  0  0  0  0  0
    5.7880    3.1270  -20.9740 C   0  0  0  0  0  0
    5.7050    3.1900  -23.5290 C   0  0  0  0  0  0
   -4.8540    3.7080  -25.6390 C   0  0  0  0  0  0
    1.9160    3.6940  -23.6480 C   0  0  0  0  0  0
    1.0770    4.8010  -23.4010 C   0  0  0  0  0  0
    2.8460    6.0380  -22.7180 C   0  0  0  0  0  0
    3.3070    3.9100  -23.3090 C   0  0  0  0  0  0
    1.3970    2.5510  -24.2860 C   0  0  0  0  0  0
   -0.7410    3.3420  -24.2480 C   0  0  0  0  0  0
   -0.2410    4.5860  -23.6750 C   0  0  0  0  0  0
   -2.1850    3.3210  -24.6350 C   0  0  0  0  0  0
    3.9330    1.4290  -22.9280 C   0  0  0  0  0  0
    4.8440    1.1190  -21.7500 C   0  0  2  0  0  0
    6.4320    2.6620  -22.2980 C   0  0  2  0  0  0
    4.7890    2.1560  -20.6150 C   0  0  0  0  0  0
   -2.4800    3.4330  -26.0740 C   0  0  0  0  0  0
   -1.8270    2.8150  -21.6650 C   0  0  0  0  0  0
   -0.8040    2.4950  -21.1250 C   0  0  0  0  0  0
   -1.1020    5.6310  -23.3820 F   0  0  0  0  0  0
   -4.0500    3.1250  -20.1940 F   0  0  0  0  0  0
    1.5290    5.9810  -22.8950 N   0  0  0  0  0  0
    3.7570    5.0790  -22.8890 N   0  0  0  0  0  0
    0.0990    2.4370  -24.6180 N   0  0  0  0  0  0
    4.2400    2.8680  -23.4340 N   0  0  0  0  0  0
    6.2610    1.1880  -22.2030 N   0  0  1  0  0  0
   -3.9690    3.5580  -27.8680 O   0  0  0  0  0  0
   -6.2837    3.6273  -21.2577 H   0  0  0  0  0  0
   -6.7121    3.8687  -23.6664 H   0  0  0  0  0  0
    5.3088    4.1056  -21.1243 H   0  0  0  0  0  0
    6.5566    3.1704  -20.1883 H   0  0  0  0  0  0
    6.1256    2.7230  -24.4318 H   0  0  0  0  0  0
    5.8371    4.2802  -23.5925 H   0  0  0  0  0  0
   -5.8586    3.8706  -26.0123 H   0  0  0  0  0  0
    2.0511    1.7214  -24.5288 H   0  0  0  0  0  0
    2.8834    1.3715  -22.6040 H   0  0  0  0  0  0
    4.1219    0.7079  -23.7369 H   0  0  0  0  0  0
    4.6228    0.1160  -21.3561 H   0  0  0  0  0  0
    7.4985    2.9294  -22.3293 H   0  0  0  0  0  0
    3.7996    2.6366  -20.6079 H   0  0  0  0  0  0
    5.0746    1.6737  -19.6685 H   0  0  0  0  0  0
   -1.6931    3.3989  -26.8188 H   0  0  0  0  0  0
    0.0964    2.2129  -20.6508 H   0  0  0  0  0  0
    6.8982    0.7197  -21.4674 H   0  0  0  0  0  0
   -3.1139    3.4669  -28.2718 H   0  0  0  0  0  0
    5.6240   11.0420  -21.4400 O   0  0  0  0  0  0
    6.2320    9.2190  -22.6080 O   0  0  0  0  0  0
    3.3310    7.5230  -20.7790 N   0  3  0  0  0  0
    3.3800    7.3970  -22.2790 C   0  0  0  0  0  0
    3.8540    8.8160  -20.2090 C   0  0  0  0  0  0
    5.3870    8.9620  -20.3400 C   0  0  0  0  0  0
    5.7870    9.7150  -21.5890 C   0  0  0  0  0  0
    6.0210   11.8760  -22.5420 C   0  0  0  0  0  0
    3.8290    6.7511  -20.3640 H   0  0  0  0  0  0
    2.3843    7.3799  -20.4638 H   0  0  0  0  0  0
    4.4186    7.5110  -22.6229 H   0  0  0  0  0  0
    2.7728    8.1933  -22.7342 H   0  0  0  0  0  0
    3.5700    8.8890  -19.1488 H   0  0  0  0  0  0
    3.3620    9.6621  -20.7110 H   0  0  0  0  0  0
    5.8503    7.9644  -20.3500 H   0  0  0  0  0  0
    5.7818    9.4848  -19.4564 H   0  0  0  0  0  0
    5.8359   12.9304  -22.2889 H   0  0  0  0  0  0
    7.0924   11.7299  -22.7441 H   0  0  0  0  0  0
    5.4389   11.6050  -23.4351 H   0  0  0  0  0  0
  1  2  2  0  0  0
  1  3  1  0  0  0
  1 34  1  0  0  0
  2  6  1  0  0  0
  2 35  1  0  0  0
  3  5  2  0  0  0
  3 27  1  0  0  0
  4  5  1  0  0  0
  4  6  2  0  0  0
  4 18  1  0  0  0
  5 24  1  0  0  0
  6 10  1  0  0  0
  7 10  2  0  0  0
  7 23  1  0  0  0
  7 33  1  0  0  0
  8 21  1  0  0  0
  8 22  1  0  0  0
  8 36  1  0  0  0
  8 37  1  0  0  0
  9 21  1  0  0  0
  9 31  1  0  0  0
  9 38  1  0  0  0
  9 39  1  0  0  0
 10 40  1  0  0  0
 11 12  1  0  0  0
 11 14  2  0  0  0
 11 15  1  0  0  0
 12 17  1  0  0  0
 12 28  2  0  0  0
 13 28  1  0  0  0
 13 29  2  0  0  0
 13 55  1  0  0  0
 14 29  1  0  0  0
 14 31  1  0  0  0
 15 30  2  0  0  0
 15 41  1  0  0  0
 16 17  2  0  0  0
 16 18  1  0  0  0
 16 30  1  0  0  0
 17 26  1  0  0  0
 18 23  2  0  0  0
 19 20  1  0  0  0
 19 31  1  0  0  0
 19 42  1  0  0  0
 19 43  1  0  0  0
 20 22  1  0  0  0
 20 32  1  0  0  0
 20 44  1  0  0  0
 21 32  1  0  0  0
 21 45  1  0  0  0
 22 46  1  0  0  0
 22 47  1  0  0  0
 23 48  1  0  0  0
 24 25  3  0  0  0
 25 49  1  0  0  0
 32 50  1  0  0  0
 33 51  1  0  0  0
 52 58  1  0  0  0
 52 59  1  0  0  0
 53 58  2  0  0  0
 54 55  1  0  0  0
 54 56  1  0  0  0
 54 60  1  0  0  0
 54 61  1  0  0  0
 55 62  1  0  0  0
 55 63  1  0  0  0
 56 57  1  0  0  0
 56 64  1  0  0  0
 56 65  1  0  0  0
 57 58  1  0  0  0
 57 66  1  0  0  0
 57 67  1  0  0  0
 59 68  1  0  0  0
 59 69  1  0  0  0
 59 70  1  0  0  0
M  CHG  1  54   1
M  END
> <s_m_entry_id>
411

> <s_m_entry_name>
000000253.1

> <s_m_Source_Path>
/Users/zaksoul/Documents/3r_UNI/2nd_SEMESTER/BSC/FRAG_RECON/RESULTS/2

> <s_m_Source_File>
000000253.mol2

> <i_m_Source_File_Index>
1

$$$$
No_0_266
                    3D
 Schrodinger Suite 2022-4.
 66 71  0  0  1  0            999 V2000
   -4.8340    3.7280  -21.7770 C   0  0  0  0  0  0
   -5.1270    3.9050  -23.1090 C   0  0  0  0  0  0
   -3.5960    3.4480  -21.4610 C   0  0  0  0  0  0
   -2.7520    3.5210  -23.6480 C   0  0  0  0  0  0
   -2.5640    3.2920  -22.2280 C   0  0  0  0  0  0
   -4.1040    3.8110  -24.1420 C   0  0  0  0  0  0
   -3.4000    3.7830  -26.3570 C   0  0  0  0  0  0
    6.4270    2.8700  -21.3050 C   0  0  0  0  0  0
    6.2330    2.9810  -23.8520 C   0  0  0  0  0  0
   -4.3830    3.9270  -25.4730 C   0  0  0  0  0  0
    2.4640    3.6260  -23.7910 C   0  0  0  0  0  0
    1.6790    4.7600  -23.4890 C   0  0  0  0  0  0
    3.5220    5.9180  -22.8680 C   0  0  0  0  0  0
    3.8760    3.7850  -23.5130 C   0  0  0  0  0  0
    1.8740    2.5150  -24.4240 C   0  0  0  0  0  0
   -0.2280    3.3840  -24.2760 C   0  0  0  0  0  0
    0.3430    4.5990  -23.7070 C   0  0  0  0  0  0
   -1.6890    3.4230  -24.5970 C   0  0  0  0  0  0
    4.4240    1.2760  -23.1990 C   0  0  0  0  0  0
    5.3750    0.9120  -22.0690 C   0  0  2  0  0  0
    6.9940    2.4040  -22.6640 C   0  0  2  0  0  0
    5.4090    1.9300  -20.9160 C   0  0  0  0  0  0
   -2.0430    3.5710  -26.0200 C   0  0  0  0  0  0
   -1.2180    2.8520  -21.6550 C   0  0  0  0  0  0
   -0.1850    2.4850  -21.1680 C   0  0  0  0  0  0
   -0.4630    5.6700  -23.3580 F   0  0  0  0  0  0
   -3.3590    3.2190  -20.0810 F   0  0  0  0  0  0
    2.1980    5.9130  -22.9850 N   0  0  0  0  0  0
    4.3890    4.9290  -23.0940 N   0  0  0  0  0  0
    0.5590    2.4550  -24.6980 N   0  0  0  0  0  0
    4.7630    2.7110  -23.6960 N   0  0  0  0  0  0
    6.7710    0.9360  -22.5850 N   0  0  1  0  0  0
   -3.6040    3.7840  -27.7420 O   0  0  0  0  0  0
   -5.6169    3.8224  -21.0332 H   0  0  0  0  0  0
   -6.1436    4.1220  -23.4164 H   0  0  0  0  0  0
    5.9789    3.8682  -21.4180 H   0  0  0  0  0  0
    7.2311    2.8700  -20.5544 H   0  0  0  0  0  0
    6.5942    2.5139  -24.7801 H   0  0  0  0  0  0
    6.4036    4.0664  -23.9045 H   0  0  0  0  0  0
   -5.3961    4.1338  -25.7983 H   0  0  0  0  0  0
    2.4852    1.6660  -24.7080 H   0  0  0  0  0  0
    3.3885    1.2518  -22.8286 H   0  0  0  0  0  0
    4.5492    0.5634  -24.0276 H   0  0  0  0  0  0
    5.1327   -0.0885  -21.6813 H   0  0  0  0  0  0
    8.0673    2.6332  -22.7387 H   0  0  0  0  0  0
    4.4398    2.4469  -20.8574 H   0  0  0  0  0  0
    5.7178    1.4215  -19.9908 H   0  0  0  0  0  0
   -1.2920    3.5208  -26.8001 H   0  0  0  0  0  0
    0.7245    2.1622  -20.7393 H   0  0  0  0  0  0
    7.4218    0.4316  -21.8861 H   0  0  0  0  0  0
   -2.7718    3.6682  -28.1853 H   0  0  0  0  0  0
    5.4160   10.4800  -23.5940 O   0  5  0  0  0  0
    6.4740    9.2460  -21.9910 O   0  0  0  0  0  0
    3.3270    7.9060  -21.3380 N   0  3  0  0  0  0
    4.1270    7.2480  -22.4310 C   0  0  0  0  0  0
    4.3570   10.2260  -21.4810 C   0  0  0  0  0  0
    4.0280    9.0110  -20.5920 C   0  0  0  0  0  0
    5.5040    9.9630  -22.4260 C   0  0  0  0  0  0
    3.0191    7.2052  -20.6822 H   0  0  0  0  0  0
    2.4647    8.2587  -21.7227 H   0  0  0  0  0  0
    5.1576    7.0849  -22.0828 H   0  0  0  0  0  0
    4.1870    7.9239  -23.2968 H   0  0  0  0  0  0
    4.5989   11.0897  -20.8442 H   0  0  0  0  0  0
    3.4645   10.5092  -22.0583 H   0  0  0  0  0  0
    4.9558    8.6211  -20.1481 H   0  0  0  0  0  0
    3.4029    9.3351  -19.7469 H   0  0  0  0  0  0
  1  2  2  0  0  0
  1  3  1  0  0  0
  1 34  1  0  0  0
  2  6  1  0  0  0
  2 35  1  0  0  0
  3  5  2  0  0  0
  3 27  1  0  0  0
  4  5  1  0  0  0
  4  6  2  0  0  0
  4 18  1  0  0  0
  5 24  1  0  0  0
  6 10  1  0  0  0
  7 10  2  0  0  0
  7 23  1  0  0  0
  7 33  1  0  0  0
  8 21  1  0  0  0
  8 22  1  0  0  0
  8 36  1  0  0  0
  8 37  1  0  0  0
  9 21  1  0  0  0
  9 31  1  0  0  0
  9 38  1  0  0  0
  9 39  1  0  0  0
 10 40  1  0  0  0
 11 12  1  0  0  0
 11 14  2  0  0  0
 11 15  1  0  0  0
 12 17  1  0  0  0
 12 28  2  0  0  0
 13 28  1  0  0  0
 13 29  2  0  0  0
 13 55  1  0  0  0
 14 29  1  0  0  0
 14 31  1  0  0  0
 15 30  2  0  0  0
 15 41  1  0  0  0
 16 17  2  0  0  0
 16 18  1  0  0  0
 16 30  1  0  0  0
 17 26  1  0  0  0
 18 23  2  0  0  0
 19 20  1  0  0  0
 19 31  1  0  0  0
 19 42  1  0  0  0
 19 43  1  0  0  0
 20 22  1  0  0  0
 20 32  1  0  0  0
 20 44  1  0  0  0
 21 32  1  0  0  0
 21 45  1  0  0  0
 22 46  1  0  0  0
 22 47  1  0  0  0
 23 48  1  0  0  0
 24 25  3  0  0  0
 25 49  1  0  0  0
 32 50  1  0  0  0
 33 51  1  0  0  0
 52 58  1  0  0  0
 53 58  2  0  0  0
 54 55  1  0  0  0
 54 57  1  0  0  0
 54 59  1  0  0  0
 54 60  1  0  0  0
 55 61  1  0  0  0
 55 62  1  0  0  0
 56 57  1  0  0  0
 56 58  1  0  0  0
 56 63  1  0  0  0
 56 64  1  0  0  0
 57 65  1  0  0  0
 57 66  1  0  0  0
M  CHG  2  52  -1  54   1
M  END
> <s_m_entry_id>
412

> <s_m_entry_name>
000000254.1

> <s_m_Source_Path>
/Users/zaksoul/Documents/3r_UNI/2nd_SEMESTER/BSC/FRAG_RECON/RESULTS/2

> <s_m_Source_File>
000000254.mol2

> <i_m_Source_File_Index>
1

$$$$
No_0_267
                    3D
 Schrodinger Suite 2022-4.
 66 71  0  0  1  0            999 V2000
   -4.9380    3.7300  -21.8660 C   0  0  0  0  0  0
   -5.2140    3.9310  -23.1980 C   0  0  0  0  0  0
   -3.6990    3.4670  -21.5370 C   0  0  0  0  0  0
   -2.8240    3.6060  -23.7090 C   0  0  0  0  0  0
   -2.6530    3.3490  -22.2920 C   0  0  0  0  0  0
   -4.1740    3.8810  -24.2170 C   0  0  0  0  0  0
   -3.4360    3.9160  -26.4210 C   0  0  0  0  0  0
    6.3300    3.0860  -21.2380 C   0  0  0  0  0  0
    6.1720    3.2500  -23.7850 C   0  0  0  0  0  0
   -4.4350    4.0200  -25.5490 C   0  0  0  0  0  0
    2.3910    3.8180  -23.7680 C   0  0  0  0  0  0
    1.5780    4.9290  -23.4530 C   0  0  0  0  0  0
    3.3880    6.1090  -22.7780 C   0  0  0  0  0  0
    3.7940    3.9990  -23.4640 C   0  0  0  0  0  0
    1.8330    2.7100  -24.4340 C   0  0  0  0  0  0
   -0.2890    3.5340  -24.3000 C   0  0  0  0  0  0
    0.2490    4.7460  -23.6950 C   0  0  0  0  0  0
   -1.7450    3.5510  -24.6430 C   0  0  0  0  0  0
    4.3880    1.4960  -23.1980 C   0  0  0  0  0  0
    5.3290    1.1250  -22.0610 C   0  0  2  0  0  0
    6.9260    2.6620  -22.5970 C   0  0  2  0  0  0
    5.3260    2.1170  -20.8860 C   0  0  0  0  0  0
   -2.0800    3.7240  -26.0670 C   0  0  0  0  0  0
   -1.3070    2.9240  -21.7070 C   0  0  0  0  0  0
   -0.2740    2.5660  -21.2120 C   0  0  0  0  0  0
   -0.5840    5.7930  -23.3360 F   0  0  0  0  0  0
   -3.4790    3.2120  -20.1590 F   0  0  0  0  0  0
    2.0660    6.0810  -22.9160 N   0  0  0  0  0  0
    4.2770    5.1440  -23.0130 N   0  0  0  0  0  0
    0.5240    2.6300  -24.7300 N   0  0  0  0  0  0
    4.7050    2.9480  -23.6570 N   0  0  0  0  0  0
    6.7320    1.1890  -22.5540 N   0  0  1  0  0  0
   -3.6190    3.9430  -27.8090 O   0  0  0  0  0  0
   -5.7343    3.7913  -21.1330 H   0  0  0  0  0  0
   -6.2299    4.1338  -23.5172 H   0  0  0  0  0  0
    5.8636    4.0774  -21.3359 H   0  0  0  0  0  0
    7.1218    3.0850  -20.4744 H   0  0  0  0  0  0
    6.5568    2.8107  -24.7172 H   0  0  0  0  0  0
    6.3214    4.3395  -23.8102 H   0  0  0  0  0  0
   -5.4468    4.2137  -25.8863 H   0  0  0  0  0  0
    2.4653    1.8800  -24.7281 H   0  0  0  0  0  0
    3.3480    1.4415  -22.8439 H   0  0  0  0  0  0
    4.5404    0.8035  -24.0389 H   0  0  0  0  0  0
    5.1018    0.1112  -21.6995 H   0  0  0  0  0  0
    7.9956    2.9133  -22.6505 H   0  0  0  0  0  0
    4.3454    2.6123  -20.8305 H   0  0  0  0  0  0
    5.6299    1.5940  -19.9672 H   0  0  0  0  0  0
   -1.3166    3.7059  -26.8364 H   0  0  0  0  0  0
    0.6351    2.2520  -20.7760 H   0  0  0  0  0  0
    7.3820    0.6812  -21.8569 H   0  0  0  0  0  0
   -2.7778    3.8539  -28.2415 H   0  0  0  0  0  0
    4.6890   10.9050  -23.2680 O   0  5  0  0  0  0
    6.1690    9.6240  -22.0930 O   0  0  0  0  0  0
    3.3620    7.8820  -20.9910 N   0  3  0  0  0  0
    3.9580    7.4410  -22.3030 C   0  0  0  0  0  0
    4.1390   10.3030  -21.0350 C   0  0  0  0  0  0
    4.1130    8.9670  -20.2660 C   0  0  0  0  0  0
    5.0720   10.2740  -22.2220 C   0  0  0  0  0  0
    3.2640    7.0823  -20.3852 H   0  0  0  0  0  0
    2.4103    8.1782  -21.1411 H   0  0  0  0  0  0
    5.0496    7.3550  -22.1980 H   0  0  0  0  0  0
    3.7731    8.2117  -23.0657 H   0  0  0  0  0  0
    4.4390   11.1121  -20.3529 H   0  0  0  0  0  0
    3.1220   10.5480  -21.3750 H   0  0  0  0  0  0
    5.1446    8.6351  -20.0771 H   0  0  0  0  0  0
    3.6621    9.1250  -19.2752 H   0  0  0  0  0  0
  1  2  2  0  0  0
  1  3  1  0  0  0
  1 34  1  0  0  0
  2  6  1  0  0  0
  2 35  1  0  0  0
  3  5  2  0  0  0
  3 27  1  0  0  0
  4  5  1  0  0  0
  4  6  2  0  0  0
  4 18  1  0  0  0
  5 24  1  0  0  0
  6 10  1  0  0  0
  7 10  2  0  0  0
  7 23  1  0  0  0
  7 33  1  0  0  0
  8 21  1  0  0  0
  8 22  1  0  0  0
  8 36  1  0  0  0
  8 37  1  0  0  0
  9 21  1  0  0  0
  9 31  1  0  0  0
  9 38  1  0  0  0
  9 39  1  0  0  0
 10 40  1  0  0  0
 11 12  1  0  0  0
 11 14  2  0  0  0
 11 15  1  0  0  0
 12 17  1  0  0  0
 12 28  2  0  0  0
 13 28  1  0  0  0
 13 29  2  0  0  0
 13 55  1  0  0  0
 14 29  1  0  0  0
 14 31  1  0  0  0
 15 30  2  0  0  0
 15 41  1  0  0  0
 16 17  2  0  0  0
 16 18  1  0  0  0
 16 30  1  0  0  0
 17 26  1  0  0  0
 18 23  2  0  0  0
 19 20  1  0  0  0
 19 31  1  0  0  0
 19 42  1  0  0  0
 19 43  1  0  0  0
 20 22  1  0  0  0
 20 32  1  0  0  0
 20 44  1  0  0  0
 21 32  1  0  0  0
 21 45  1  0  0  0
 22 46  1  0  0  0
 22 47  1  0  0  0
 23 48  1  0  0  0
 24 25  3  0  0  0
 25 49  1  0  0  0
 32 50  1  0  0  0
 33 51  1  0  0  0
 52 58  1  0  0  0
 53 58  2  0  0  0
 54 55  1  0  0  0
 54 57  1  0  0  0
 54 59  1  0  0  0
 54 60  1  0  0  0
 55 61  1  0  0  0
 55 62  1  0  0  0
 56 57  1  0  0  0
 56 58  1  0  0  0
 56 63  1  0  0  0
 56 64  1  0  0  0
 57 65  1  0  0  0
 57 66  1  0  0  0
M  CHG  2  52  -1  54   1
M  END
> <s_m_entry_id>
413

> <s_m_entry_name>
000000255.1

> <s_m_Source_Path>
/Users/zaksoul/Documents/3r_UNI/2nd_SEMESTER/BSC/FRAG_RECON/RESULTS/2

> <s_m_Source_File>
000000255.mol2

> <i_m_Source_File_Index>
1

$$$$
No_0_268
                    3D
 Schrodinger Suite 2022-4.
 66 71  0  0  1  0            999 V2000
   -5.1810    3.6090  -21.8530 C   0  0  0  0  0  0
   -5.4520    3.8050  -23.1860 C   0  0  0  0  0  0
   -3.9420    3.3510  -21.5190 C   0  0  0  0  0  0
   -3.0590    3.4860  -23.6870 C   0  0  0  0  0  0
   -2.8930    3.2340  -22.2690 C   0  0  0  0  0  0
   -4.4090    3.7540  -24.2010 C   0  0  0  0  0  0
   -3.6630    3.7850  -26.4030 C   0  0  0  0  0  0
    6.0870    3.0010  -21.1820 C   0  0  0  0  0  0
    5.9380    3.1560  -23.7310 C   0  0  0  0  0  0
   -4.6650    3.8890  -25.5350 C   0  0  0  0  0  0
    2.1540    3.7130  -23.7290 C   0  0  0  0  0  0
    1.3370    4.8230  -23.4210 C   0  0  0  0  0  0
    3.1410    6.0110  -22.7430 C   0  0  0  0  0  0
    3.5570    3.8990  -23.4210 C   0  0  0  0  0  0
    1.6030    2.6010  -24.3930 C   0  0  0  0  0  0
   -0.5220    3.4190  -24.2700 C   0  0  0  0  0  0
    0.0100    4.6350  -23.6670 C   0  0  0  0  0  0
   -1.9770    3.4300  -24.6180 C   0  0  0  0  0  0
    4.1570    1.3990  -23.1440 C   0  0  0  0  0  0
    5.0950    1.0350  -22.0030 C   0  0  2  0  0  0
    6.6890    2.5740  -22.5390 C   0  0  2  0  0  0
    5.0840    2.0310  -20.8310 C   0  0  0  0  0  0
   -2.3080    3.5970  -26.0440 C   0  0  0  0  0  0
   -1.5470    2.8150  -21.6780 C   0  0  0  0  0  0
   -0.5150    2.4620  -21.1780 C   0  0  0  0  0  0
   -0.8280    5.6800  -23.3140 F   0  0  0  0  0  0
   -3.7260    3.1020  -20.1390 F   0  0  0  0  0  0
    1.8200    5.9780  -22.8860 N   0  0  0  0  0  0
    4.0350    5.0470  -22.9720 N   0  0  0  0  0  0
    0.2950    2.5160  -24.6930 N   0  0  0  0  0  0
    4.4710    2.8500  -23.6070 N   0  0  0  0  0  0
    6.5000    1.1010  -22.4910 N   0  0  1  0  0  0
   -3.8410    3.8060  -27.7920 O   0  0  0  0  0  0
   -5.9796    3.6712  -21.1226 H   0  0  0  0  0  0
   -6.4675    4.0037  -23.5091 H   0  0  0  0  0  0
    5.6179    3.9906  -21.2849 H   0  0  0  0  0  0
    6.8763    3.0060  -20.4159 H   0  0  0  0  0  0
    6.3275    2.7150  -24.6604 H   0  0  0  0  0  0
    6.0833    4.2460  -23.7593 H   0  0  0  0  0  0
   -5.6765    4.0776  -25.8762 H   0  0  0  0  0  0
    2.2385    1.7718  -24.6821 H   0  0  0  0  0  0
    3.1157    1.3435  -22.7939 H   0  0  0  0  0  0
    4.3144    0.7047  -23.9826 H   0  0  0  0  0  0
    4.8700    0.0218  -21.6387 H   0  0  0  0  0  0
    7.7578    2.8293  -22.5885 H   0  0  0  0  0  0
    4.1018    2.5236  -20.7805 H   0  0  0  0  0  0
    5.3877    1.5123  -19.9097 H   0  0  0  0  0  0
   -1.5411    3.5789  -26.8099 H   0  0  0  0  0  0
    0.3934    2.1519  -20.7378 H   0  0  0  0  0  0
    7.1492    0.5983  -21.7894 H   0  0  0  0  0  0
   -2.9984    3.7179  -28.2217 H   0  0  0  0  0  0
    3.9440   10.9310  -23.0130 O   0  5  0  0  0  0
    5.7420    9.7020  -22.3280 O   0  0  0  0  0  0
    3.3930    7.6170  -20.8230 N   0  3  0  0  0  0
    3.7060    7.3460  -22.2710 C   0  0  0  0  0  0
    3.9610   10.0960  -20.7870 C   0  0  0  0  0  0
    4.2080    8.7050  -20.1720 C   0  0  0  0  0  0
    4.5990   10.2540  -22.1460 C   0  0  0  0  0  0
    3.4930    6.7641  -20.2951 H   0  0  0  0  0  0
    2.4132    7.8349  -20.7300 H   0  0  0  0  0  0
    4.7962    7.3540  -22.4170 H   0  0  0  0  0  0
    3.2971    8.1568  -22.8918 H   0  0  0  0  0  0
    4.3491   10.8702  -20.1088 H   0  0  0  0  0  0
    2.8783   10.2719  -20.8700 H   0  0  0  0  0  0
    5.2767    8.4561  -20.2490 H   0  0  0  0  0  0
    3.9829    8.7360  -19.0957 H   0  0  0  0  0  0
  1  2  2  0  0  0
  1  3  1  0  0  0
  1 34  1  0  0  0
  2  6  1  0  0  0
  2 35  1  0  0  0
  3  5  2  0  0  0
  3 27  1  0  0  0
  4  5  1  0  0  0
  4  6  2  0  0  0
  4 18  1  0  0  0
  5 24  1  0  0  0
  6 10  1  0  0  0
  7 10  2  0  0  0
  7 23  1  0  0  0
  7 33  1  0  0  0
  8 21  1  0  0  0
  8 22  1  0  0  0
  8 36  1  0  0  0
  8 37  1  0  0  0
  9 21  1  0  0  0
  9 31  1  0  0  0
  9 38  1  0  0  0
  9 39  1  0  0  0
 10 40  1  0  0  0
 11 12  1  0  0  0
 11 14  2  0  0  0
 11 15  1  0  0  0
 12 17  1  0  0  0
 12 28  2  0  0  0
 13 28  1  0  0  0
 13 29  2  0  0  0
 13 55  1  0  0  0
 14 29  1  0  0  0
 14 31  1  0  0  0
 15 30  2  0  0  0
 15 41  1  0  0  0
 16 17  2  0  0  0
 16 18  1  0  0  0
 16 30  1  0  0  0
 17 26  1  0  0  0
 18 23  2  0  0  0
 19 20  1  0  0  0
 19 31  1  0  0  0
 19 42  1  0  0  0
 19 43  1  0  0  0
 20 22  1  0  0  0
 20 32  1  0  0  0
 20 44  1  0  0  0
 21 32  1  0  0  0
 21 45  1  0  0  0
 22 46  1  0  0  0
 22 47  1  0  0  0
 23 48  1  0  0  0
 24 25  3  0  0  0
 25 49  1  0  0  0
 32 50  1  0  0  0
 33 51  1  0  0  0
 52 58  1  0  0  0
 53 58  2  0  0  0
 54 55  1  0  0  0
 54 57  1  0  0  0
 54 59  1  0  0  0
 54 60  1  0  0  0
 55 61  1  0  0  0
 55 62  1  0  0  0
 56 57  1  0  0  0
 56 58  1  0  0  0
 56 63  1  0  0  0
 56 64  1  0  0  0
 57 65  1  0  0  0
 57 66  1  0  0  0
M  CHG  2  52  -1  54   1
M  END
> <s_m_entry_id>
414

> <s_m_entry_name>
000000256.1

> <s_m_Source_Path>
/Users/zaksoul/Documents/3r_UNI/2nd_SEMESTER/BSC/FRAG_RECON/RESULTS/2

> <s_m_Source_File>
000000256.mol2

> <i_m_Source_File_Index>
1

$$$$
No_0_269
                    3D
 Schrodinger Suite 2022-4.
 66 71  0  0  1  0            999 V2000
   -5.1810    3.6090  -21.8530 C   0  0  0  0  0  0
   -5.4520    3.8050  -23.1860 C   0  0  0  0  0  0
   -3.9420    3.3510  -21.5190 C   0  0  0  0  0  0
   -3.0590    3.4860  -23.6870 C   0  0  0  0  0  0
   -2.8930    3.2340  -22.2690 C   0  0  0  0  0  0
   -4.4090    3.7540  -24.2010 C   0  0  0  0  0  0
   -3.6630    3.7850  -26.4030 C   0  0  0  0  0  0
    6.0870    3.0010  -21.1820 C   0  0  0  0  0  0
    5.9380    3.1560  -23.7310 C   0  0  0  0  0  0
   -4.6650    3.8890  -25.5350 C   0  0  0  0  0  0
    2.1540    3.7130  -23.7290 C   0  0  0  0  0  0
    1.3370    4.8230  -23.4210 C   0  0  0  0  0  0
    3.1410    6.0110  -22.7430 C   0  0  0  0  0  0
    3.5570    3.8990  -23.4210 C   0  0  0  0  0  0
    1.6030    2.6010  -24.3930 C   0  0  0  0  0  0
   -0.5220    3.4190  -24.2700 C   0  0  0  0  0  0
    0.0100    4.6350  -23.6670 C   0  0  0  0  0  0
   -1.9770    3.4300  -24.6180 C   0  0  0  0  0  0
    4.1570    1.3990  -23.1440 C   0  0  0  0  0  0
    5.0950    1.0350  -22.0030 C   0  0  2  0  0  0
    6.6890    2.5740  -22.5390 C   0  0  2  0  0  0
    5.0840    2.0310  -20.8310 C   0  0  0  0  0  0
   -2.3080    3.5970  -26.0440 C   0  0  0  0  0  0
   -1.5470    2.8150  -21.6780 C   0  0  0  0  0  0
   -0.5150    2.4620  -21.1780 C   0  0  0  0  0  0
   -0.8280    5.6800  -23.3140 F   0  0  0  0  0  0
   -3.7260    3.1020  -20.1390 F   0  0  0  0  0  0
    1.8200    5.9780  -22.8860 N   0  0  0  0  0  0
    4.0350    5.0470  -22.9720 N   0  0  0  0  0  0
    0.2950    2.5160  -24.6930 N   0  0  0  0  0  0
    4.4710    2.8500  -23.6070 N   0  0  0  0  0  0
    6.5000    1.1010  -22.4910 N   0  0  1  0  0  0
   -3.8410    3.8060  -27.7920 O   0  0  0  0  0  0
   -5.9796    3.6712  -21.1226 H   0  0  0  0  0  0
   -6.4675    4.0037  -23.5091 H   0  0  0  0  0  0
    5.6179    3.9906  -21.2849 H   0  0  0  0  0  0
    6.8763    3.0060  -20.4159 H   0  0  0  0  0  0
    6.3275    2.7150  -24.6604 H   0  0  0  0  0  0
    6.0833    4.2460  -23.7593 H   0  0  0  0  0  0
   -5.6765    4.0776  -25.8762 H   0  0  0  0  0  0
    2.2385    1.7718  -24.6821 H   0  0  0  0  0  0
    3.1157    1.3435  -22.7939 H   0  0  0  0  0  0
    4.3144    0.7047  -23.9826 H   0  0  0  0  0  0
    4.8700    0.0218  -21.6387 H   0  0  0  0  0  0
    7.7578    2.8293  -22.5885 H   0  0  0  0  0  0
    4.1018    2.5236  -20.7805 H   0  0  0  0  0  0
    5.3877    1.5123  -19.9097 H   0  0  0  0  0  0
   -1.5411    3.5789  -26.8099 H   0  0  0  0  0  0
    0.3934    2.1519  -20.7378 H   0  0  0  0  0  0
    7.1492    0.5983  -21.7894 H   0  0  0  0  0  0
   -2.9984    3.7179  -28.2217 H   0  0  0  0  0  0
    3.5180   10.9890  -22.6670 O   0  5  0  0  0  0
    5.5060    9.8730  -22.5320 O   0  0  0  0  0  0
    3.7170    7.4610  -20.7690 N   0  3  0  0  0  0
    3.7060    7.3460  -22.2710 C   0  0  0  0  0  0
    4.1050    9.9690  -20.6010 C   0  0  0  0  0  0
    4.5830    8.5580  -20.2060 C   0  0  0  0  0  0
    4.4010   10.3020  -22.0430 C   0  0  0  0  0  0
    3.9952    6.5783  -20.3697 H   0  0  0  0  0  0
    2.7723    7.5800  -20.4381 H   0  0  0  0  0  0
    4.7298    7.4660  -22.6549 H   0  0  0  0  0  0
    3.1102    8.1668  -22.6969 H   0  0  0  0  0  0
    4.5849   10.7129  -19.9481 H   0  0  0  0  0  0
    3.0230   10.0520  -20.4210 H   0  0  0  0  0  0
    5.6197    8.4150  -20.5449 H   0  0  0  0  0  0
    4.6110    8.4750  -19.1095 H   0  0  0  0  0  0
  1  2  2  0  0  0
  1  3  1  0  0  0
  1 34  1  0  0  0
  2  6  1  0  0  0
  2 35  1  0  0  0
  3  5  2  0  0  0
  3 27  1  0  0  0
  4  5  1  0  0  0
  4  6  2  0  0  0
  4 18  1  0  0  0
  5 24  1  0  0  0
  6 10  1  0  0  0
  7 10  2  0  0  0
  7 23  1  0  0  0
  7 33  1  0  0  0
  8 21  1  0  0  0
  8 22  1  0  0  0
  8 36  1  0  0  0
  8 37  1  0  0  0
  9 21  1  0  0  0
  9 31  1  0  0  0
  9 38  1  0  0  0
  9 39  1  0  0  0
 10 40  1  0  0  0
 11 12  1  0  0  0
 11 14  2  0  0  0
 11 15  1  0  0  0
 12 17  1  0  0  0
 12 28  2  0  0  0
 13 28  1  0  0  0
 13 29  2  0  0  0
 13 55  1  0  0  0
 14 29  1  0  0  0
 14 31  1  0  0  0
 15 30  2  0  0  0
 15 41  1  0  0  0
 16 17  2  0  0  0
 16 18  1  0  0  0
 16 30  1  0  0  0
 17 26  1  0  0  0
 18 23  2  0  0  0
 19 20  1  0  0  0
 19 31  1  0  0  0
 19 42  1  0  0  0
 19 43  1  0  0  0
 20 22  1  0  0  0
 20 32  1  0  0  0
 20 44  1  0  0  0
 21 32  1  0  0  0
 21 45  1  0  0  0
 22 46  1  0  0  0
 22 47  1  0  0  0
 23 48  1  0  0  0
 24 25  3  0  0  0
 25 49  1  0  0  0
 32 50  1  0  0  0
 33 51  1  0  0  0
 52 58  1  0  0  0
 53 58  2  0  0  0
 54 55  1  0  0  0
 54 57  1  0  0  0
 54 59  1  0  0  0
 54 60  1  0  0  0
 55 61  1  0  0  0
 55 62  1  0  0  0
 56 57  1  0  0  0
 56 58  1  0  0  0
 56 63  1  0  0  0
 56 64  1  0  0  0
 57 65  1  0  0  0
 57 66  1  0  0  0
M  CHG  2  52  -1  54   1
M  END
> <s_m_entry_id>
415

> <s_m_entry_name>
000000257.1

> <s_m_Source_Path>
/Users/zaksoul/Documents/3r_UNI/2nd_SEMESTER/BSC/FRAG_RECON/RESULTS/2

> <s_m_Source_File>
000000257.mol2

> <i_m_Source_File_Index>
1

$$$$
No_0_270
                    3D
 Schrodinger Suite 2022-4.
 66 71  0  0  1  0            999 V2000
   -5.0180    3.6440  -21.4960 C   0  0  0  0  0  0
   -5.3360    3.8290  -22.8210 C   0  0  0  0  0  0
   -3.7680    3.3910  -21.2030 C   0  0  0  0  0  0
   -2.9610    3.5090  -23.4020 C   0  0  0  0  0  0
   -2.7450    3.2690  -21.9880 C   0  0  0  0  0  0
   -4.3280    3.7710  -23.8710 C   0  0  0  0  0  0
   -3.6590    3.7840  -26.0970 C   0  0  0  0  0  0
    6.2670    3.0590  -21.2110 C   0  0  0  0  0  0
    6.0300    3.1930  -23.7540 C   0  0  0  0  0  0
   -4.6310    3.8940  -25.1960 C   0  0  0  0  0  0
    2.2480    3.7440  -23.6260 C   0  0  0  0  0  0
    1.4400    4.8550  -23.2990 C   0  0  0  0  0  0
    3.2640    6.0510  -22.6940 C   0  0  0  0  0  0
    3.6590    3.9350  -23.3680 C   0  0  0  0  0  0
    1.6750    2.6250  -24.2610 C   0  0  0  0  0  0
   -0.4460    3.4410  -24.0710 C   0  0  0  0  0  0
    0.1050    4.6630  -23.4980 C   0  0  0  0  0  0
   -1.9110    3.4470  -24.3690 C   0  0  0  0  0  0
    4.2740    1.4370  -23.0910 C   0  0  0  0  0  0
    5.2510    1.0850  -21.9800 C   0  0  2  0  0  0
    6.8230    2.6220  -22.5840 C   0  0  2  0  0  0
    5.2790    2.0900  -20.8170 C   0  0  0  0  0  0
   -2.2920    3.6020  -25.7840 C   0  0  0  0  0  0
   -1.3790    2.8570  -21.4400 C   0  0  0  0  0  0
   -0.3300    2.5100  -20.9740 C   0  0  0  0  0  0
   -0.7220    5.7100  -23.1240 F   0  0  0  0  0  0
   -3.5040    3.1540  -19.8290 F   0  0  0  0  0  0
    1.9380    6.0150  -22.7910 N   0  0  0  0  0  0
    4.1510    5.0870  -22.9460 N   0  0  0  0  0  0
    0.3580    2.5360  -24.5150 N   0  0  0  0  0  0
    4.5690    2.8850  -23.5770 N   0  0  0  0  0  0
    6.6380    1.1490  -22.5170 N   0  0  1  0  0  0
   -3.8850    3.7940  -27.4790 O   0  0  0  0  0  0
   -5.7910    3.7113  -20.7390 H   0  0  0  0  0  0
   -6.3624    4.0238  -23.1102 H   0  0  0  0  0  0
    5.7935    4.0473  -21.3059 H   0  0  0  0  0  0
    7.0827    3.0721  -20.4731 H   0  0  0  0  0  0
    6.3872    2.7439  -24.6925 H   0  0  0  0  0  0
    6.1724    4.2829  -23.7964 H   0  0  0  0  0  0
   -5.6540    4.0787  -25.5032 H   0  0  0  0  0  0
    2.3023    1.7949  -24.5651 H   0  0  0  0  0  0
    3.2455    1.3835  -22.7044 H   0  0  0  0  0  0
    4.4032    0.7363  -23.9290 H   0  0  0  0  0  0
    5.0402    0.0745  -21.5998 H   0  0  0  0  0  0
    7.8891    2.8782  -22.6728 H   0  0  0  0  0  0
    4.2987    2.5827  -20.7372 H   0  0  0  0  0  0
    5.6151    1.5793  -19.9026 H   0  0  0  0  0  0
   -1.5522    3.5789  -26.5760 H   0  0  0  0  0  0
    0.5938    2.2051  -20.5631 H   0  0  0  0  0  0
    7.3119    0.6526  -21.8345 H   0  0  0  0  0  0
   -3.0578    3.7030  -27.9371 H   0  0  0  0  0  0
    3.0400   10.8680  -21.4020 O   0  5  0  0  0  0
    4.8150   10.3110  -22.7240 O   0  0  0  0  0  0
    4.7460    7.2550  -21.0550 N   0  3  0  0  0  0
    3.8430    7.3910  -22.2530 C   0  0  0  0  0  0
    4.8680    9.7130  -20.4130 C   0  0  0  0  0  0
    5.6440    8.4330  -20.7790 C   0  0  0  0  0  0
    4.1910   10.3460  -21.6050 C   0  0  0  0  0  0
    5.3073    6.4236  -21.1540 H   0  0  0  0  0  0
    4.1878    7.0639  -20.2377 H   0  0  0  0  0  0
    4.4049    7.8389  -23.0858 H   0  0  0  0  0  0
    3.0219    8.0833  -22.0153 H   0  0  0  0  0  0
    5.5553   10.4394  -19.9548 H   0  0  0  0  0  0
    4.1138    9.4769  -19.6478 H   0  0  0  0  0  0
    6.2727    8.6269  -21.6606 H   0  0  0  0  0  0
    6.3382    8.1809  -19.9638 H   0  0  0  0  0  0
  1  2  2  0  0  0
  1  3  1  0  0  0
  1 34  1  0  0  0
  2  6  1  0  0  0
  2 35  1  0  0  0
  3  5  2  0  0  0
  3 27  1  0  0  0
  4  5  1  0  0  0
  4  6  2  0  0  0
  4 18  1  0  0  0
  5 24  1  0  0  0
  6 10  1  0  0  0
  7 10  2  0  0  0
  7 23  1  0  0  0
  7 33  1  0  0  0
  8 21  1  0  0  0
  8 22  1  0  0  0
  8 36  1  0  0  0
  8 37  1  0  0  0
  9 21  1  0  0  0
  9 31  1  0  0  0
  9 38  1  0  0  0
  9 39  1  0  0  0
 10 40  1  0  0  0
 11 12  1  0  0  0
 11 14  2  0  0  0
 11 15  1  0  0  0
 12 17  1  0  0  0
 12 28  2  0  0  0
 13 28  1  0  0  0
 13 29  2  0  0  0
 13 55  1  0  0  0
 14 29  1  0  0  0
 14 31  1  0  0  0
 15 30  2  0  0  0
 15 41  1  0  0  0
 16 17  2  0  0  0
 16 18  1  0  0  0
 16 30  1  0  0  0
 17 26  1  0  0  0
 18 23  2  0  0  0
 19 20  1  0  0  0
 19 31  1  0  0  0
 19 42  1  0  0  0
 19 43  1  0  0  0
 20 22  1  0  0  0
 20 32  1  0  0  0
 20 44  1  0  0  0
 21 32  1  0  0  0
 21 45  1  0  0  0
 22 46  1  0  0  0
 22 47  1  0  0  0
 23 48  1  0  0  0
 24 25  3  0  0  0
 25 49  1  0  0  0
 32 50  1  0  0  0
 33 51  1  0  0  0
 52 58  1  0  0  0
 53 58  2  0  0  0
 54 55  1  0  0  0
 54 57  1  0  0  0
 54 59  1  0  0  0
 54 60  1  0  0  0
 55 61  1  0  0  0
 55 62  1  0  0  0
 56 57  1  0  0  0
 56 58  1  0  0  0
 56 63  1  0  0  0
 56 64  1  0  0  0
 57 65  1  0  0  0
 57 66  1  0  0  0
M  CHG  2  52  -1  54   1
M  END
> <s_m_entry_id>
416

> <s_m_entry_name>
000000258.1

> <s_m_Source_Path>
/Users/zaksoul/Documents/3r_UNI/2nd_SEMESTER/BSC/FRAG_RECON/RESULTS/2

> <s_m_Source_File>
000000258.mol2

> <i_m_Source_File_Index>
1

$$$$
No_0_271
                    3D
 Schrodinger Suite 2022-4.
 66 71  0  0  1  0            999 V2000
   -5.2670    3.7760  -21.7240 C   0  0  0  0  0  0
   -5.5290    3.9320  -23.0650 C   0  0  0  0  0  0
   -4.0380    3.4900  -21.3760 C   0  0  0  0  0  0
   -3.1470    3.5160  -23.5450 C   0  0  0  0  0  0
   -2.9920    3.3110  -22.1180 C   0  0  0  0  0  0
   -4.4850    3.8100  -24.0740 C   0  0  0  0  0  0
   -3.7340    3.7350  -26.2720 C   0  0  0  0  0  0
    5.9720    2.8210  -20.9920 C   0  0  0  0  0  0
    5.8350    2.8880  -23.5440 C   0  0  0  0  0  0
   -4.7340    3.9040  -25.4120 C   0  0  0  0  0  0
    2.0720    3.5700  -23.5770 C   0  0  0  0  0  0
    1.2910    4.7160  -23.3120 C   0  0  0  0  0  0
    3.1320    5.8680  -22.6710 C   0  0  0  0  0  0
    3.4790    3.7200  -23.2710 C   0  0  0  0  0  0
    1.4850    2.4530  -24.2020 C   0  0  0  0  0  0
   -0.6120    3.3440  -24.1160 C   0  0  0  0  0  0
   -0.0410    4.5630  -23.5560 C   0  0  0  0  0  0
   -2.0640    3.3910  -24.4690 C   0  0  0  0  0  0
    3.9950    1.2130  -22.9000 C   0  0  0  0  0  0
    4.9180    0.8610  -21.7440 C   0  0  2  0  0  0
    6.5640    2.3260  -22.3300 C   0  0  2  0  0  0
    4.9380    1.8980  -20.6090 C   0  0  0  0  0  0
   -2.3870    3.5170  -25.9010 C   0  0  0  0  0  0
   -1.6630    2.8690  -21.5080 C   0  0  0  0  0  0
   -0.6440    2.5010  -20.9920 C   0  0  0  0  0  0
   -0.8450    5.6480  -23.2440 F   0  0  0  0  0  0
   -3.8340    3.2830  -19.9870 F   0  0  0  0  0  0
    1.8100    5.8730  -22.8180 N   0  0  0  0  0  0
    3.9930    4.8670  -22.8620 N   0  0  0  0  0  0
    0.1760    2.4000  -24.5030 N   0  0  0  0  0  0
    4.3580    2.6350  -23.4150 N   0  0  0  0  0  0
    6.3250    0.8620  -22.2290 N   0  0  1  0  0  0
   -3.9080    3.7130  -27.6610 O   0  0  0  0  0  0
   -6.0650    3.8904  -20.9993 H   0  0  0  0  0  0
   -6.5366    4.1528  -23.3982 H   0  0  0  0  0  0
    5.5372    3.8217  -21.1322 H   0  0  0  0  0  0
    6.7598    2.8281  -20.2244 H   0  0  0  0  0  0
    6.2113    2.4017  -24.4561 H   0  0  0  0  0  0
    6.0157    3.9710  -23.6116 H   0  0  0  0  0  0
   -5.7378    4.1138  -25.7633 H   0  0  0  0  0  0
    2.0932    1.5929  -24.4579 H   0  0  0  0  0  0
    2.9513    1.2049  -22.5528 H   0  0  0  0  0  0
    4.1313    0.4842  -23.7126 H   0  0  0  0  0  0
    4.6588   -0.1302  -21.3437 H   0  0  0  0  0  0
    7.6410    2.5430  -22.3855 H   0  0  0  0  0  0
    3.9727    2.4246  -20.5797 H   0  0  0  0  0  0
    5.2207    1.4033  -19.6681 H   0  0  0  0  0  0
   -1.6196    3.4458  -26.6633 H   0  0  0  0  0  0
    0.2524    2.1772  -20.5373 H   0  0  0  0  0  0
    6.9556    0.3639  -21.5075 H   0  0  0  0  0  0
   -3.0679    3.5814  -28.0845 H   0  0  0  0  0  0
    3.0480   10.4490  -20.6890 O   0  5  0  0  0  0
    4.3230   10.2410  -22.5710 O   0  0  0  0  0  0
    4.9920    7.0200  -21.4280 N   0  3  0  0  0  0
    3.7390    7.2000  -22.2460 C   0  0  0  0  0  0
    5.1660    9.3840  -20.5080 C   0  0  0  0  0  0
    5.8570    8.2450  -21.2830 C   0  0  0  0  0  0
    4.0990   10.0780  -21.3200 C   0  0  0  0  0  0
    5.5401    6.2699  -21.8191 H   0  0  0  0  0  0
    4.7451    6.6761  -20.5132 H   0  0  0  0  0  0
    3.9691    7.7992  -23.1393 H   0  0  0  0  0  0
    3.0005    7.7694  -21.6626 H   0  0  0  0  0  0
    5.9198   10.1198  -20.1911 H   0  0  0  0  0  0
    4.7201    8.9821  -19.5862 H   0  0  0  0  0  0
    6.1490    8.6061  -22.2802 H   0  0  0  0  0  0
    6.7933    7.9729  -20.7738 H   0  0  0  0  0  0
  1  2  2  0  0  0
  1  3  1  0  0  0
  1 34  1  0  0  0
  2  6  1  0  0  0
  2 35  1  0  0  0
  3  5  2  0  0  0
  3 27  1  0  0  0
  4  5  1  0  0  0
  4  6  2  0  0  0
  4 18  1  0  0  0
  5 24  1  0  0  0
  6 10  1  0  0  0
  7 10  2  0  0  0
  7 23  1  0  0  0
  7 33  1  0  0  0
  8 21  1  0  0  0
  8 22  1  0  0  0
  8 36  1  0  0  0
  8 37  1  0  0  0
  9 21  1  0  0  0
  9 31  1  0  0  0
  9 38  1  0  0  0
  9 39  1  0  0  0
 10 40  1  0  0  0
 11 12  1  0  0  0
 11 14  2  0  0  0
 11 15  1  0  0  0
 12 17  1  0  0  0
 12 28  2  0  0  0
 13 28  1  0  0  0
 13 29  2  0  0  0
 13 55  1  0  0  0
 14 29  1  0  0  0
 14 31  1  0  0  0
 15 30  2  0  0  0
 15 41  1  0  0  0
 16 17  2  0  0  0
 16 18  1  0  0  0
 16 30  1  0  0  0
 17 26  1  0  0  0
 18 23  2  0  0  0
 19 20  1  0  0  0
 19 31  1  0  0  0
 19 42  1  0  0  0
 19 43  1  0  0  0
 20 22  1  0  0  0
 20 32  1  0  0  0
 20 44  1  0  0  0
 21 32  1  0  0  0
 21 45  1  0  0  0
 22 46  1  0  0  0
 22 47  1  0  0  0
 23 48  1  0  0  0
 24 25  3  0  0  0
 25 49  1  0  0  0
 32 50  1  0  0  0
 33 51  1  0  0  0
 52 58  1  0  0  0
 53 58  2  0  0  0
 54 55  1  0  0  0
 54 57  1  0  0  0
 54 59  1  0  0  0
 54 60  1  0  0  0
 55 61  1  0  0  0
 55 62  1  0  0  0
 56 57  1  0  0  0
 56 58  1  0  0  0
 56 63  1  0  0  0
 56 64  1  0  0  0
 57 65  1  0  0  0
 57 66  1  0  0  0
M  CHG  2  52  -1  54   1
M  END
> <s_m_entry_id>
417

> <s_m_entry_name>
000000259.1

> <s_m_Source_Path>
/Users/zaksoul/Documents/3r_UNI/2nd_SEMESTER/BSC/FRAG_RECON/RESULTS/2

> <s_m_Source_File>
000000259.mol2

> <i_m_Source_File_Index>
1

$$$$
No_0_272
                    3D
 Schrodinger Suite 2022-4.
 66 71  0  0  1  0            999 V2000
   -5.3210    3.5890  -21.9510 C   0  0  0  0  0  0
   -5.5880    3.8010  -23.2830 C   0  0  0  0  0  0
   -4.0840    3.3240  -21.6150 C   0  0  0  0  0  0
   -3.1940    3.4820  -23.7800 C   0  0  0  0  0  0
   -3.0330    3.2130  -22.3640 C   0  0  0  0  0  0
   -4.5410    3.7590  -24.2950 C   0  0  0  0  0  0
   -3.7890    3.8140  -26.4930 C   0  0  0  0  0  0
    5.9430    2.9470  -21.2520 C   0  0  0  0  0  0
    5.8020    3.1320  -23.7990 C   0  0  0  0  0  0
   -4.7930    3.9100  -25.6280 C   0  0  0  0  0  0
    2.0200    3.6980  -23.8020 C   0  0  0  0  0  0
    1.2050    4.8050  -23.4840 C   0  0  0  0  0  0
    3.0090    5.9810  -22.7870 C   0  0  0  0  0  0
    3.4220    3.8770  -23.4880 C   0  0  0  0  0  0
    1.4680    2.5940  -24.4810 C   0  0  0  0  0  0
   -0.6560    3.4160  -24.3550 C   0  0  0  0  0  0
   -0.1220    4.6240  -23.7370 C   0  0  0  0  0  0
   -2.1090    3.4350  -24.7070 C   0  0  0  0  0  0
    4.0160    1.3720  -23.2380 C   0  0  0  0  0  0
    4.9490    0.9930  -22.0980 C   0  0  2  0  0  0
    6.5480    2.5340  -22.6110 C   0  0  2  0  0  0
    4.9370    1.9750  -20.9150 C   0  0  0  0  0  0
   -2.4350    3.6190  -26.1320 C   0  0  0  0  0  0
   -1.6900    2.7840  -21.7740 C   0  0  0  0  0  0
   -0.6610    2.4230  -21.2750 C   0  0  0  0  0  0
   -0.9590    5.6670  -23.3740 F   0  0  0  0  0  0
   -3.8730    3.0580  -20.2380 F   0  0  0  0  0  0
    1.6880    5.9530  -22.9340 N   0  0  0  0  0  0
    3.9010    5.0180  -23.0240 N   0  0  0  0  0  0
    0.1610    2.5160  -24.7860 N   0  0  0  0  0  0
    4.3350    2.8280  -23.6830 N   0  0  0  0  0  0
    6.3550    1.0610  -22.5810 N   0  0  1  0  0  0
   -3.9630    3.8520  -27.8820 O   0  0  0  0  0  0
   -6.1218    3.6442  -21.2225 H   0  0  0  0  0  0
   -6.6022    4.0058  -23.6063 H   0  0  0  0  0  0
    5.4768    3.9390  -21.3448 H   0  0  0  0  0  0
    6.7303    2.9409  -20.4838 H   0  0  0  0  0  0
    6.1937    2.7000  -24.7317 H   0  0  0  0  0  0
    5.9503    4.2218  -23.8141 H   0  0  0  0  0  0
   -5.8032    4.1056  -25.9691 H   0  0  0  0  0  0
    2.1026    1.7666  -24.7772 H   0  0  0  0  0  0
    2.9734    1.3145  -22.8921 H   0  0  0  0  0  0
    4.1735    0.6866  -24.0839 H   0  0  0  0  0  0
    4.7200   -0.0237  -21.7460 H   0  0  0  0  0  0
    7.6175    2.7873  -22.6554 H   0  0  0  0  0  0
    3.9559    2.4696  -20.8615 H   0  0  0  0  0  0
    5.2356    1.4443  -19.9989 H   0  0  0  0  0  0
   -1.6665    3.6080  -26.8965 H   0  0  0  0  0  0
    0.2457    2.1061  -20.8361 H   0  0  0  0  0  0
    7.0011    0.5486  -21.8836 H   0  0  0  0  0  0
   -3.1193    3.7669  -28.3103 H   0  0  0  0  0  0
    3.5110    9.7790  -19.5850 O   0  5  0  0  0  0
    3.4700   10.3790  -21.7870 O   0  0  0  0  0  0
    5.0800    7.3450  -22.3590 N   0  3  0  0  0  0
    3.5760    7.3100  -22.2970 C   0  0  0  0  0  0
    5.4540    9.3930  -20.8990 C   0  0  0  0  0  0
    5.7050    8.7130  -22.2590 C   0  0  0  0  0  0
    4.0370    9.8890  -20.7470 C   0  0  0  0  0  0
    5.3890    6.9000  -23.2090 H   0  0  0  0  0  0
    5.4569    6.7532  -21.6353 H   0  0  0  0  0  0
    3.1651    8.1288  -22.9059 H   0  0  0  0  0  0
    3.2478    7.4881  -21.2623 H   0  0  0  0  0  0
    6.1518   10.2347  -20.7780 H   0  0  0  0  0  0
    5.6829    8.6854  -20.0885 H   0  0  0  0  0  0
    5.3147    9.3524  -23.0645 H   0  0  0  0  0  0
    6.7880    8.6330  -22.4340 H   0  0  0  0  0  0
  1  2  2  0  0  0
  1  3  1  0  0  0
  1 34  1  0  0  0
  2  6  1  0  0  0
  2 35  1  0  0  0
  3  5  2  0  0  0
  3 27  1  0  0  0
  4  5  1  0  0  0
  4  6  2  0  0  0
  4 18  1  0  0  0
  5 24  1  0  0  0
  6 10  1  0  0  0
  7 10  2  0  0  0
  7 23  1  0  0  0
  7 33  1  0  0  0
  8 21  1  0  0  0
  8 22  1  0  0  0
  8 36  1  0  0  0
  8 37  1  0  0  0
  9 21  1  0  0  0
  9 31  1  0  0  0
  9 38  1  0  0  0
  9 39  1  0  0  0
 10 40  1  0  0  0
 11 12  1  0  0  0
 11 14  2  0  0  0
 11 15  1  0  0  0
 12 17  1  0  0  0
 12 28  2  0  0  0
 13 28  1  0  0  0
 13 29  2  0  0  0
 13 55  1  0  0  0
 14 29  1  0  0  0
 14 31  1  0  0  0
 15 30  2  0  0  0
 15 41  1  0  0  0
 16 17  2  0  0  0
 16 18  1  0  0  0
 16 30  1  0  0  0
 17 26  1  0  0  0
 18 23  2  0  0  0
 19 20  1  0  0  0
 19 31  1  0  0  0
 19 42  1  0  0  0
 19 43  1  0  0  0
 20 22  1  0  0  0
 20 32  1  0  0  0
 20 44  1  0  0  0
 21 32  1  0  0  0
 21 45  1  0  0  0
 22 46  1  0  0  0
 22 47  1  0  0  0
 23 48  1  0  0  0
 24 25  3  0  0  0
 25 49  1  0  0  0
 32 50  1  0  0  0
 33 51  1  0  0  0
 52 58  1  0  0  0
 53 58  2  0  0  0
 54 55  1  0  0  0
 54 57  1  0  0  0
 54 59  1  0  0  0
 54 60  1  0  0  0
 55 61  1  0  0  0
 55 62  1  0  0  0
 56 57  1  0  0  0
 56 58  1  0  0  0
 56 63  1  0  0  0
 56 64  1  0  0  0
 57 65  1  0  0  0
 57 66  1  0  0  0
M  CHG  2  52  -1  54   1
M  END
> <s_m_entry_id>
418

> <s_m_entry_name>
000000260.1

> <s_m_Source_Path>
/Users/zaksoul/Documents/3r_UNI/2nd_SEMESTER/BSC/FRAG_RECON/RESULTS/2

> <s_m_Source_File>
000000260.mol2

> <i_m_Source_File_Index>
1

$$$$
No_0_273
                    3D
 Schrodinger Suite 2022-4.
 66 71  0  0  1  0            999 V2000
   -5.3490    3.5840  -21.5660 C   0  0  0  0  0  0
   -5.6450    3.8170  -22.8880 C   0  0  0  0  0  0
   -4.1060    3.3050  -21.2640 C   0  0  0  0  0  0
   -3.2670    3.4860  -23.4460 C   0  0  0  0  0  0
   -3.0740    3.1960  -22.0380 C   0  0  0  0  0  0
   -4.6230    3.7820  -23.9250 C   0  0  0  0  0  0
   -3.9220    3.8610  -26.1400 C   0  0  0  0  0  0
    5.9230    2.8420  -21.1460 C   0  0  0  0  0  0
    5.7240    3.0640  -23.6850 C   0  0  0  0  0  0
   -4.9060    3.9530  -25.2490 C   0  0  0  0  0  0
    1.9470    3.6610  -23.5910 C   0  0  0  0  0  0
    1.1490    4.7700  -23.2380 C   0  0  0  0  0  0
    2.9790    5.9210  -22.5680 C   0  0  0  0  0  0
    3.3580    3.8240  -23.3070 C   0  0  0  0  0  0
    1.3700    2.5710  -24.2720 C   0  0  0  0  0  0
   -0.7430    3.4080  -24.0830 C   0  0  0  0  0  0
   -0.1850    4.6020  -23.4610 C   0  0  0  0  0  0
   -2.2040    3.4430  -24.4000 C   0  0  0  0  0  0
    3.9360    1.3110  -23.1060 C   0  0  0  0  0  0
    4.8930    0.9080  -21.9950 C   0  0  2  0  0  0
    6.4930    2.4440  -22.5250 C   0  0  2  0  0  0
    4.9180    1.8740  -20.7980 C   0  0  0  0  0  0
   -2.5630    3.6500  -25.8140 C   0  0  0  0  0  0
   -1.7210    2.7480  -21.4870 C   0  0  0  0  0  0
   -0.6830    2.3720  -21.0180 C   0  0  0  0  0  0
   -1.0040    5.6470  -23.0640 F   0  0  0  0  0  0
   -3.8640    3.0180  -19.8950 F   0  0  0  0  0  0
    1.6550    5.9060  -22.6840 N   0  0  0  0  0  0
    3.8570    4.9550  -22.8390 N   0  0  0  0  0  0
    0.0550    2.5080  -24.5460 N   0  0  0  0  0  0
    4.2570    2.7700  -23.5390 N   0  0  0  0  0  0
    6.2880    0.9720  -22.5100 N   0  0  1  0  0  0
   -4.1290    3.9200  -27.5240 O   0  0  0  0  0  0
   -6.1310    3.6352  -20.8171 H   0  0  0  0  0  0
   -6.6648    4.0348  -23.1841 H   0  0  0  0  0  0
    5.4637    3.8392  -21.2136 H   0  0  0  0  0  0
    6.7279    2.8198  -20.3966 H   0  0  0  0  0  0
    6.0893    2.6433  -24.6335 H   0  0  0  0  0  0
    5.8804    4.1528  -23.6890 H   0  0  0  0  0  0
   -5.9221    4.1608  -25.5643 H   0  0  0  0  0  0
    1.9905    1.7427  -24.5943 H   0  0  0  0  0  0
    2.9013    1.2575  -22.7365 H   0  0  0  0  0  0
    4.0681    0.6372  -23.9654 H   0  0  0  0  0  0
    4.6648   -0.1118  -21.6517 H   0  0  0  0  0  0
    7.5633    2.6891  -22.5906 H   0  0  0  0  0  0
    3.9424    2.3754  -20.7153 H   0  0  0  0  0  0
    5.2339    1.3280  -19.8968 H   0  0  0  0  0  0
   -1.8127    3.6440  -26.5964 H   0  0  0  0  0  0
    0.2308    2.0411  -20.6051 H   0  0  0  0  0  0
    6.9469    0.4447  -21.8361 H   0  0  0  0  0  0
   -3.2964    3.8349  -27.9735 H   0  0  0  0  0  0
    6.4210    8.7960  -20.3720 O   0  5  0  0  0  0
    4.2590    9.3530  -19.8950 O   0  0  0  0  0  0
    3.5630    8.3010  -23.1410 N   0  3  0  0  0  0
    3.5680    7.2380  -22.0730 C   0  0  0  0  0  0
    5.1570    9.9400  -22.0280 C   0  0  0  0  0  0
    3.7680    9.7130  -22.6560 C   0  0  0  0  0  0
    5.2870    9.3160  -20.6600 C   0  0  0  0  0  0
    2.6992    8.2490  -23.6579 H   0  0  0  0  0  0
    4.2627    8.0821  -23.8327 H   0  0  0  0  0  0
    2.9957    7.5912  -21.2025 H   0  0  0  0  0  0
    4.5991    7.0710  -21.7280 H   0  0  0  0  0  0
    5.3540   11.0199  -21.9570 H   0  0  0  0  0  0
    5.9309    9.5290  -22.6929 H   0  0  0  0  0  0
    2.9889    9.9630  -21.9209 H   0  0  0  0  0  0
    3.6279   10.4113  -23.4943 H   0  0  0  0  0  0
  1  2  2  0  0  0
  1  3  1  0  0  0
  1 34  1  0  0  0
  2  6  1  0  0  0
  2 35  1  0  0  0
  3  5  2  0  0  0
  3 27  1  0  0  0
  4  5  1  0  0  0
  4  6  2  0  0  0
  4 18  1  0  0  0
  5 24  1  0  0  0
  6 10  1  0  0  0
  7 10  2  0  0  0
  7 23  1  0  0  0
  7 33  1  0  0  0
  8 21  1  0  0  0
  8 22  1  0  0  0
  8 36  1  0  0  0
  8 37  1  0  0  0
  9 21  1  0  0  0
  9 31  1  0  0  0
  9 38  1  0  0  0
  9 39  1  0  0  0
 10 40  1  0  0  0
 11 12  1  0  0  0
 11 14  2  0  0  0
 11 15  1  0  0  0
 12 17  1  0  0  0
 12 28  2  0  0  0
 13 28  1  0  0  0
 13 29  2  0  0  0
 13 55  1  0  0  0
 14 29  1  0  0  0
 14 31  1  0  0  0
 15 30  2  0  0  0
 15 41  1  0  0  0
 16 17  2  0  0  0
 16 18  1  0  0  0
 16 30  1  0  0  0
 17 26  1  0  0  0
 18 23  2  0  0  0
 19 20  1  0  0  0
 19 31  1  0  0  0
 19 42  1  0  0  0
 19 43  1  0  0  0
 20 22  1  0  0  0
 20 32  1  0  0  0
 20 44  1  0  0  0
 21 32  1  0  0  0
 21 45  1  0  0  0
 22 46  1  0  0  0
 22 47  1  0  0  0
 23 48  1  0  0  0
 24 25  3  0  0  0
 25 49  1  0  0  0
 32 50  1  0  0  0
 33 51  1  0  0  0
 52 58  1  0  0  0
 53 58  2  0  0  0
 54 55  1  0  0  0
 54 57  1  0  0  0
 54 59  1  0  0  0
 54 60  1  0  0  0
 55 61  1  0  0  0
 55 62  1  0  0  0
 56 57  1  0  0  0
 56 58  1  0  0  0
 56 63  1  0  0  0
 56 64  1  0  0  0
 57 65  1  0  0  0
 57 66  1  0  0  0
M  CHG  2  52  -1  54   1
M  END
> <s_m_entry_id>
419

> <s_m_entry_name>
000000261.1

> <s_m_Source_Path>
/Users/zaksoul/Documents/3r_UNI/2nd_SEMESTER/BSC/FRAG_RECON/RESULTS/2

> <s_m_Source_File>
000000261.mol2

> <i_m_Source_File_Index>
1

$$$$
No_0_274
                    3D
 Schrodinger Suite 2022-4.
 66 71  0  0  1  0            999 V2000
   -5.2150    3.7030  -21.6830 C   0  0  0  0  0  0
   -5.4880    3.8970  -23.0170 C   0  0  0  0  0  0
   -3.9750    3.4450  -21.3500 C   0  0  0  0  0  0
   -3.0960    3.5760  -23.5210 C   0  0  0  0  0  0
   -2.9280    3.3260  -22.1020 C   0  0  0  0  0  0
   -4.4450    3.8450  -24.0330 C   0  0  0  0  0  0
   -3.7030    3.8730  -26.2350 C   0  0  0  0  0  0
    6.0540    3.0880  -21.0280 C   0  0  0  0  0  0
    5.9010    3.2400  -23.5760 C   0  0  0  0  0  0
   -4.7040    3.9780  -25.3670 C   0  0  0  0  0  0
    2.1180    3.8000  -23.5700 C   0  0  0  0  0  0
    1.3020    4.9100  -23.2620 C   0  0  0  0  0  0
    3.1080    6.0980  -22.5870 C   0  0  0  0  0  0
    3.5210    3.9850  -23.2640 C   0  0  0  0  0  0
    1.5650    2.6870  -24.2320 C   0  0  0  0  0  0
   -0.5590    3.5070  -24.1060 C   0  0  0  0  0  0
   -0.0250    4.7230  -23.5060 C   0  0  0  0  0  0
   -2.0140    3.5190  -24.4520 C   0  0  0  0  0  0
    4.1200    1.4850  -22.9840 C   0  0  0  0  0  0
    5.0590    1.1220  -21.8440 C   0  0  2  0  0  0
    6.6540    2.6590  -22.3840 C   0  0  2  0  0  0
    5.0510    2.1190  -20.6740 C   0  0  0  0  0  0
   -2.3470    3.6850  -25.8780 C   0  0  0  0  0  0
   -1.5810    2.9060  -21.5130 C   0  0  0  0  0  0
   -0.5490    2.5530  -21.0140 C   0  0  0  0  0  0
   -0.8620    5.7700  -23.1530 F   0  0  0  0  0  0
   -3.7580    3.1960  -19.9700 F   0  0  0  0  0  0
    1.7860    6.0660  -22.7280 N   0  0  0  0  0  0
    4.0000    5.1330  -22.8160 N   0  0  0  0  0  0
    0.2560    2.6030  -24.5300 N   0  0  0  0  0  0
    4.4350    2.9350  -23.4500 N   0  0  0  0  0  0
    6.4630    1.1860  -22.3350 N   0  0  1  0  0  0
   -3.8830    3.8930  -27.6240 O   0  0  0  0  0  0
   -6.0126    3.7663  -20.9517 H   0  0  0  0  0  0
   -6.5039    4.0968  -23.3382 H   0  0  0  0  0  0
    5.5857    4.0780  -21.1309 H   0  0  0  0  0  0
    6.8443    3.0930  -20.2629 H   0  0  0  0  0  0
    6.2886    2.7979  -24.5057 H   0  0  0  0  0  0
    6.0473    4.3298  -23.6053 H   0  0  0  0  0  0
   -5.7159    4.1677  -25.7063 H   0  0  0  0  0  0
    2.1998    1.8573  -24.5213 H   0  0  0  0  0  0
    3.0791    1.4305  -22.6326 H   0  0  0  0  0  0
    4.2754    0.7899  -23.8223 H   0  0  0  0  0  0
    4.8340    0.1091  -21.4788 H   0  0  0  0  0  0
    7.7229    2.9134  -22.4365 H   0  0  0  0  0  0
    4.0692    2.6124  -20.6225 H   0  0  0  0  0  0
    5.3545    1.6007  -19.7524 H   0  0  0  0  0  0
   -1.5821    3.6659  -26.6459 H   0  0  0  0  0  0
    0.3600    2.2430  -20.5750 H   0  0  0  0  0  0
    7.1129    0.6836  -21.6338 H   0  0  0  0  0  0
   -3.0408    3.8039  -28.0545 H   0  0  0  0  0  0
    6.6790    9.1570  -20.9090 O   0  5  0  0  0  0
    4.6260    9.4660  -19.9600 O   0  0  0  0  0  0
    3.3560    8.5550  -23.0710 N   0  3  0  0  0  0
    3.6750    7.4330  -22.1170 C   0  0  0  0  0  0
    5.0040   10.2720  -22.1750 C   0  0  0  0  0  0
    3.5380    9.9470  -22.5250 C   0  0  0  0  0  0
    5.4700    9.5790  -20.9180 C   0  0  0  0  0  0
    2.4109    8.4490  -23.4050 H   0  0  0  0  0  0
    3.9109    8.4490  -23.9058 H   0  0  0  0  0  0
    3.2691    7.6730  -21.1232 H   0  0  0  0  0  0
    4.7659    7.3489  -22.0039 H   0  0  0  0  0  0
    5.1191   11.3597  -22.0579 H   0  0  0  0  0  0
    5.6526    9.9812  -23.0145 H   0  0  0  0  0  0
    2.9128   10.0720  -21.6287 H   0  0  0  0  0  0
    3.1669   10.6792  -23.2572 H   0  0  0  0  0  0
  1  2  2  0  0  0
  1  3  1  0  0  0
  1 34  1  0  0  0
  2  6  1  0  0  0
  2 35  1  0  0  0
  3  5  2  0  0  0
  3 27  1  0  0  0
  4  5  1  0  0  0
  4  6  2  0  0  0
  4 18  1  0  0  0
  5 24  1  0  0  0
  6 10  1  0  0  0
  7 10  2  0  0  0
  7 23  1  0  0  0
  7 33  1  0  0  0
  8 21  1  0  0  0
  8 22  1  0  0  0
  8 36  1  0  0  0
  8 37  1  0  0  0
  9 21  1  0  0  0
  9 31  1  0  0  0
  9 38  1  0  0  0
  9 39  1  0  0  0
 10 40  1  0  0  0
 11 12  1  0  0  0
 11 14  2  0  0  0
 11 15  1  0  0  0
 12 17  1  0  0  0
 12 28  2  0  0  0
 13 28  1  0  0  0
 13 29  2  0  0  0
 13 55  1  0  0  0
 14 29  1  0  0  0
 14 31  1  0  0  0
 15 30  2  0  0  0
 15 41  1  0  0  0
 16 17  2  0  0  0
 16 18  1  0  0  0
 16 30  1  0  0  0
 17 26  1  0  0  0
 18 23  2  0  0  0
 19 20  1  0  0  0
 19 31  1  0  0  0
 19 42  1  0  0  0
 19 43  1  0  0  0
 20 22  1  0  0  0
 20 32  1  0  0  0
 20 44  1  0  0  0
 21 32  1  0  0  0
 21 45  1  0  0  0
 22 46  1  0  0  0
 22 47  1  0  0  0
 23 48  1  0  0  0
 24 25  3  0  0  0
 25 49  1  0  0  0
 32 50  1  0  0  0
 33 51  1  0  0  0
 52 58  1  0  0  0
 53 58  2  0  0  0
 54 55  1  0  0  0
 54 57  1  0  0  0
 54 59  1  0  0  0
 54 60  1  0  0  0
 55 61  1  0  0  0
 55 62  1  0  0  0
 56 57  1  0  0  0
 56 58  1  0  0  0
 56 63  1  0  0  0
 56 64  1  0  0  0
 57 65  1  0  0  0
 57 66  1  0  0  0
M  CHG  2  52  -1  54   1
M  END
> <s_m_entry_id>
420

> <s_m_entry_name>
000000262.1

> <s_m_Source_Path>
/Users/zaksoul/Documents/3r_UNI/2nd_SEMESTER/BSC/FRAG_RECON/RESULTS/2

> <s_m_Source_File>
000000262.mol2

> <i_m_Source_File_Index>
1

$$$$
No_0_275
                    3D
 Schrodinger Suite 2022-4.
 66 71  0  0  1  0            999 V2000
   -5.1690    3.6320  -22.0230 C   0  0  0  0  0  0
   -5.4160    3.8110  -23.3630 C   0  0  0  0  0  0
   -3.9350    3.3840  -21.6620 C   0  0  0  0  0  0
   -3.0120    3.4980  -23.8150 C   0  0  0  0  0  0
   -2.8720    3.2640  -22.3900 C   0  0  0  0  0  0
   -4.3530    3.7530  -24.3570 C   0  0  0  0  0  0
   -3.5650    3.7620  -26.5440 C   0  0  0  0  0  0
    6.0870    3.0900  -21.1320 C   0  0  0  0  0  0
    5.9860    3.2140  -23.6840 C   0  0  0  0  0  0
   -4.5850    3.8710  -25.6970 C   0  0  0  0  0  0
    2.2000    3.7520  -23.7610 C   0  0  0  0  0  0
    1.3720    4.8600  -23.4810 C   0  0  0  0  0  0
    3.1570    6.0660  -22.7830 C   0  0  0  0  0  0
    3.5950    3.9490  -23.4280 C   0  0  0  0  0  0
    1.6670    2.6290  -24.4220 C   0  0  0  0  0  0
   -0.4640    3.4370  -24.3480 C   0  0  0  0  0  0
    0.0510    4.6630  -23.7500 C   0  0  0  0  0  0
   -1.9120    3.4370  -24.7240 C   0  0  0  0  0  0
    4.2030    1.4550  -23.1100 C   0  0  0  0  0  0
    5.1210    1.1090  -21.9470 C   0  0  2  0  0  0
    6.7170    2.6500  -22.4710 C   0  0  2  0  0  0
    5.0830    2.1190  -20.7880 C   0  0  0  0  0  0
   -2.2170    3.5860  -26.1580 C   0  0  0  0  0  0
   -1.5350    2.8580  -21.7690 C   0  0  0  0  0  0
   -0.5110    2.5170  -21.2460 C   0  0  0  0  0  0
   -0.7990    5.7080  -23.4250 F   0  0  0  0  0  0
   -3.7440    3.1520  -20.2750 F   0  0  0  0  0  0
    1.8380    6.0240  -22.9510 N   0  0  0  0  0  0
    4.0590    5.1040  -22.9840 N   0  0  0  0  0  0
    0.3650    2.5340  -24.7460 N   0  0  0  0  0  0
    4.5190    2.9020  -23.5840 N   0  0  0  0  0  0
    6.5340    1.1770  -22.4090 N   0  0  1  0  0  0
   -3.7180    3.7660  -27.9370 O   0  0  0  0  0  0
   -5.9812    3.6983  -21.3082 H   0  0  0  0  0  0
   -6.4262    4.0008  -23.7074 H   0  0  0  0  0  0
    5.6156    4.0762  -21.2551 H   0  0  0  0  0  0
    6.8617    3.1082  -20.3513 H   0  0  0  0  0  0
    6.3948    2.7638  -24.6006 H   0  0  0  0  0  0
    6.1262    4.3044  -23.7223 H   0  0  0  0  0  0
   -5.5907    4.0507  -26.0593 H   0  0  0  0  0  0
    2.3124    1.8000  -24.6890 H   0  0  0  0  0  0
    3.1556    1.3975  -22.7790 H   0  0  0  0  0  0
    4.3796    0.7518  -23.9373 H   0  0  0  0  0  0
    4.8939    0.0988  -21.5756 H   0  0  0  0  0  0
    7.7853    2.9103  -22.5043 H   0  0  0  0  0  0
    4.0978    2.6076  -20.7618 H   0  0  0  0  0  0
    5.3705    1.6126  -19.8548 H   0  0  0  0  0  0
   -1.4358    3.5629  -26.9091 H   0  0  0  0  0  0
    0.3901    2.2160  -20.7850 H   0  0  0  0  0  0
    7.1725    0.6850  -21.6902 H   0  0  0  0  0  0
   -2.8665    3.6779  -28.3489 H   0  0  0  0  0  0
    6.7580    9.3130  -21.5910 O   0  5  0  0  0  0
    4.9340    9.3550  -20.2180 O   0  0  0  0  0  0
    3.1080    8.5640  -23.0770 N   0  3  0  0  0  0
    3.7060    7.4100  -22.3160 C   0  0  0  0  0  0
    4.7720   10.3570  -22.3790 C   0  0  0  0  0  0
    3.2950    9.9230  -22.4510 C   0  0  0  0  0  0
    5.5460    9.6190  -21.3130 C   0  0  0  0  0  0
    2.1243    8.3959  -23.2191 H   0  0  0  0  0  0
    3.4811    8.5750  -24.0133 H   0  0  0  0  0  0
    3.5030    7.5340  -21.2420 H   0  0  0  0  0  0
    4.7994    7.4200  -22.4359 H   0  0  0  0  0  0
    4.8260   11.4389  -22.1878 H   0  0  0  0  0  0
    5.2496   10.1931  -23.3562 H   0  0  0  0  0  0
    2.8648    9.9210  -21.4386 H   0  0  0  0  0  0
    2.7227   10.6694  -23.0213 H   0  0  0  0  0  0
  1  2  2  0  0  0
  1  3  1  0  0  0
  1 34  1  0  0  0
  2  6  1  0  0  0
  2 35  1  0  0  0
  3  5  2  0  0  0
  3 27  1  0  0  0
  4  5  1  0  0  0
  4  6  2  0  0  0
  4 18  1  0  0  0
  5 24  1  0  0  0
  6 10  1  0  0  0
  7 10  2  0  0  0
  7 23  1  0  0  0
  7 33  1  0  0  0
  8 21  1  0  0  0
  8 22  1  0  0  0
  8 36  1  0  0  0
  8 37  1  0  0  0
  9 21  1  0  0  0
  9 31  1  0  0  0
  9 38  1  0  0  0
  9 39  1  0  0  0
 10 40  1  0  0  0
 11 12  1  0  0  0
 11 14  2  0  0  0
 11 15  1  0  0  0
 12 17  1  0  0  0
 12 28  2  0  0  0
 13 28  1  0  0  0
 13 29  2  0  0  0
 13 55  1  0  0  0
 14 29  1  0  0  0
 14 31  1  0  0  0
 15 30  2  0  0  0
 15 41  1  0  0  0
 16 17  2  0  0  0
 16 18  1  0  0  0
 16 30  1  0  0  0
 17 26  1  0  0  0
 18 23  2  0  0  0
 19 20  1  0  0  0
 19 31  1  0  0  0
 19 42  1  0  0  0
 19 43  1  0  0  0
 20 22  1  0  0  0
 20 32  1  0  0  0
 20 44  1  0  0  0
 21 32  1  0  0  0
 21 45  1  0  0  0
 22 46  1  0  0  0
 22 47  1  0  0  0
 23 48  1  0  0  0
 24 25  3  0  0  0
 25 49  1  0  0  0
 32 50  1  0  0  0
 33 51  1  0  0  0
 52 58  1  0  0  0
 53 58  2  0  0  0
 54 55  1  0  0  0
 54 57  1  0  0  0
 54 59  1  0  0  0
 54 60  1  0  0  0
 55 61  1  0  0  0
 55 62  1  0  0  0
 56 57  1  0  0  0
 56 58  1  0  0  0
 56 63  1  0  0  0
 56 64  1  0  0  0
 57 65  1  0  0  0
 57 66  1  0  0  0
M  CHG  2  52  -1  54   1
M  END
> <s_m_entry_id>
421

> <s_m_entry_name>
000000263.1

> <s_m_Source_Path>
/Users/zaksoul/Documents/3r_UNI/2nd_SEMESTER/BSC/FRAG_RECON/RESULTS/2

> <s_m_Source_File>
000000263.mol2

> <i_m_Source_File_Index>
1

$$$$
No_0_281
                    3D
 Schrodinger Suite 2022-4.
 67 72  0  0  1  0            999 V2000
   -5.2770    3.4430  -21.9920 C   0  0  0  0  0  0
   -5.5650    3.6200  -23.3250 C   0  0  0  0  0  0
   -4.0310    3.2090  -21.6680 C   0  0  0  0  0  0
   -3.1720    3.3340  -23.8470 C   0  0  0  0  0  0
   -2.9880    3.1000  -22.4270 C   0  0  0  0  0  0
   -4.5310    3.5750  -24.3500 C   0  0  0  0  0  0
   -3.8080    3.5940  -26.5590 C   0  0  0  0  0  0
    6.0050    3.0230  -21.4310 C   0  0  0  0  0  0
    5.8280    3.1480  -23.9790 C   0  0  0  0  0  0
   -4.8030    3.6920  -25.6820 C   0  0  0  0  0  0
    2.0360    3.6450  -23.9440 C   0  0  0  0  0  0
    1.2050    4.7440  -23.6400 C   0  0  0  0  0  0
    2.9960    5.9680  -22.9930 C   0  0  0  0  0  0
    3.4380    3.8560  -23.6530 C   0  0  0  0  0  0
    1.4960    2.5170  -24.5910 C   0  0  0  0  0  0
   -0.6400    3.3020  -24.4540 C   0  0  0  0  0  0
   -0.1220    4.5330  -23.8700 C   0  0  0  0  0  0
   -2.0980    3.2860  -24.7880 C   0  0  0  0  0  0
    4.0820    1.3690  -23.3550 C   0  0  0  0  0  0
    5.0370    1.0330  -22.2200 C   0  0  2  0  0  0
    6.6010    2.5910  -22.7890 C   0  0  2  0  0  0
    5.0220    2.0400  -21.0590 C   0  0  0  0  0  0
   -2.4470    3.4330  -26.2120 C   0  0  0  0  0  0
   -1.6300    2.7090  -21.8460 C   0  0  0  0  0  0
   -0.5870    2.3780  -21.3530 C   0  0  0  0  0  0
   -0.9730    5.5680  -23.5190 F   0  0  0  0  0  0
   -3.7970    2.9770  -20.2880 F   0  0  0  0  0  0
    1.6740    5.9120  -23.1220 N   0  0  0  0  0  0
    3.9020    5.0160  -23.2210 N   0  0  0  0  0  0
    0.1870    2.4080  -24.8770 N   0  0  0  0  0  0
    4.3680    2.8200  -23.8370 N   0  0  0  0  0  0
    6.4360    1.1160  -22.7230 N   0  0  1  0  0  0
   -4.0010    3.5980  -27.9460 O   0  0  0  0  0  0
   -6.0691    3.5002  -21.2542 H   0  0  0  0  0  0
   -6.5868    3.7997  -23.6392 H   0  0  0  0  0  0
    5.5195    4.0040  -21.5400 H   0  0  0  0  0  0
    6.8020    3.0482  -20.6733 H   0  0  0  0  0  0
    6.2156    2.7038  -24.9077 H   0  0  0  0  0  0
    5.9561    4.2397  -24.0204 H   0  0  0  0  0  0
   -5.8209    3.8607  -26.0143 H   0  0  0  0  0  0
    2.1421    1.6953  -24.8780 H   0  0  0  0  0  0
    3.0450    1.3003  -22.9945 H   0  0  0  0  0  0
    4.2415    0.6684  -24.1879 H   0  0  0  0  0  0
    4.8322    0.0202  -21.8427 H   0  0  0  0  0  0
    7.6651    2.8626  -22.8526 H   0  0  0  0  0  0
    4.0330    2.5183  -21.0035 H   0  0  0  0  0  0
    5.3430    1.5363  -20.1353 H   0  0  0  0  0  0
   -1.6881    3.4189  -26.9859 H   0  0  0  0  0  0
    0.3307    2.0871  -20.9191 H   0  0  0  0  0  0
    7.1002    0.6304  -22.0235 H   0  0  0  0  0  0
   -3.1613    3.5189  -28.3832 H   0  0  0  0  0  0
    6.4860    8.1040  -22.1480 O   0  0  0  0  0  0
    3.8970    7.2870  -21.0770 N   0  0  1  0  0  0
    6.9900    8.3210  -19.9410 N   0  0  0  0  0  0
    4.6980    8.4620  -20.5870 C   0  0  0  0  0  0
    3.5440    7.3170  -22.5410 C   0  0  0  0  0  0
    6.1460    8.2780  -20.9860 C   0  0  0  0  0  0
    8.4280    8.1270  -20.1670 C   0  0  0  0  0  0
    4.4551    6.3769  -20.9140 H   0  0  0  0  0  0
    6.6360    8.4840  -19.0201 H   0  0  0  0  0  0
    4.6250    8.5250  -19.4912 H   0  0  0  0  0  0
    4.3082    9.3856  -21.0398 H   0  0  0  0  0  0
    4.4409    7.5640  -23.1280 H   0  0  0  0  0  0
    2.7902    8.0978  -22.7200 H   0  0  0  0  0  0
    8.9621    8.1940  -19.2077 H   0  0  0  0  0  0
    8.5991    7.1363  -20.6133 H   0  0  0  0  0  0
    8.8008    8.9056  -20.8487 H   0  0  0  0  0  0
  1  2  2  0  0  0
  1  3  1  0  0  0
  1 34  1  0  0  0
  2  6  1  0  0  0
  2 35  1  0  0  0
  3  5  2  0  0  0
  3 27  1  0  0  0
  4  5  1  0  0  0
  4  6  2  0  0  0
  4 18  1  0  0  0
  5 24  1  0  0  0
  6 10  1  0  0  0
  7 10  2  0  0  0
  7 23  1  0  0  0
  7 33  1  0  0  0
  8 21  1  0  0  0
  8 22  1  0  0  0
  8 36  1  0  0  0
  8 37  1  0  0  0
  9 21  1  0  0  0
  9 31  1  0  0  0
  9 38  1  0  0  0
  9 39  1  0  0  0
 10 40  1  0  0  0
 11 12  1  0  0  0
 11 14  2  0  0  0
 11 15  1  0  0  0
 12 17  1  0  0  0
 12 28  2  0  0  0
 13 28  1  0  0  0
 13 29  2  0  0  0
 13 56  1  0  0  0
 14 29  1  0  0  0
 14 31  1  0  0  0
 15 30  2  0  0  0
 15 41  1  0  0  0
 16 17  2  0  0  0
 16 18  1  0  0  0
 16 30  1  0  0  0
 17 26  1  0  0  0
 18 23  2  0  0  0
 19 20  1  0  0  0
 19 31  1  0  0  0
 19 42  1  0  0  0
 19 43  1  0  0  0
 20 22  1  0  0  0
 20 32  1  0  0  0
 20 44  1  0  0  0
 21 32  1  0  0  0
 21 45  1  0  0  0
 22 46  1  0  0  0
 22 47  1  0  0  0
 23 48  1  0  0  0
 24 25  3  0  0  0
 25 49  1  0  0  0
 32 50  1  0  0  0
 33 51  1  0  0  0
 52 57  2  0  0  0
 53 55  1  0  0  0
 53 56  1  0  0  0
 53 59  1  0  0  0
 54 57  1  0  0  0
 54 58  1  0  0  0
 54 60  1  0  0  0
 55 57  1  0  0  0
 55 61  1  0  0  0
 55 62  1  0  0  0
 56 63  1  0  0  0
 56 64  1  0  0  0
 58 65  1  0  0  0
 58 66  1  0  0  0
 58 67  1  0  0  0
M  END
> <s_m_entry_id>
422

> <s_m_entry_name>
000000264.1

> <s_m_Source_Path>
/Users/zaksoul/Documents/3r_UNI/2nd_SEMESTER/BSC/FRAG_RECON/RESULTS/2

> <s_m_Source_File>
000000264.mol2

> <i_m_Source_File_Index>
1

$$$$
No_0_282
                    3D
 Schrodinger Suite 2022-4.
 67 72  0  0  1  0            999 V2000
   -5.0350    3.3910  -22.1140 C   0  0  0  0  0  0
   -5.2790    3.6180  -23.4480 C   0  0  0  0  0  0
   -3.8020    3.1310  -21.7600 C   0  0  0  0  0  0
   -2.8750    3.3220  -23.9060 C   0  0  0  0  0  0
   -2.7370    3.0360  -22.4910 C   0  0  0  0  0  0
   -4.2140    3.5970  -24.4420 C   0  0  0  0  0  0
   -3.4230    3.6840  -26.6250 C   0  0  0  0  0  0
    6.2190    2.8160  -21.2220 C   0  0  0  0  0  0
    6.1220    3.0320  -23.7690 C   0  0  0  0  0  0
   -4.4440    3.7620  -25.7770 C   0  0  0  0  0  0
    2.3370    3.5730  -23.8330 C   0  0  0  0  0  0
    1.5090    4.6700  -23.5150 C   0  0  0  0  0  0
    3.2930    5.8490  -22.7710 C   0  0  0  0  0  0
    3.7320    3.7570  -23.4910 C   0  0  0  0  0  0
    1.8050    2.4740  -24.5350 C   0  0  0  0  0  0
   -0.3260    3.2800  -24.4360 C   0  0  0  0  0  0
    0.1880    4.4830  -23.7940 C   0  0  0  0  0  0
   -1.7730    3.2930  -24.8150 C   0  0  0  0  0  0
    4.3390    1.2530  -23.2620 C   0  0  0  0  0  0
    5.2540    0.8660  -22.1110 C   0  0  2  0  0  0
    6.8520    2.4240  -22.5760 C   0  0  2  0  0  0
    5.2140    1.8330  -20.9150 C   0  0  0  0  0  0
   -2.0750    3.4940  -26.2430 C   0  0  0  0  0  0
   -1.4020    2.6080  -21.8820 C   0  0  0  0  0  0
   -0.3790    2.2480  -21.3700 C   0  0  0  0  0  0
   -0.6620    5.5160  -23.4330 F   0  0  0  0  0  0
   -3.6140    2.8490  -20.3820 F   0  0  0  0  0  0
    1.9740    5.8140  -22.9420 N   0  0  0  0  0  0
    4.1950    4.8950  -23.0040 N   0  0  0  0  0  0
    0.5040    2.3910  -24.8650 N   0  0  0  0  0  0
    4.6550    2.7160  -23.6830 N   0  0  0  0  0  0
    6.6680    0.9500  -22.5670 N   0  0  1  0  0  0
   -3.5730    3.7390  -28.0170 O   0  0  0  0  0  0
   -5.8490    3.4322  -21.3993 H   0  0  0  0  0  0
   -6.2884    3.8207  -23.7872 H   0  0  0  0  0  0
    5.7477    3.8060  -21.3108 H   0  0  0  0  0  0
    6.9922    2.8049  -20.4397 H   0  0  0  0  0  0
    6.5330    2.6149  -24.7002 H   0  0  0  0  0  0
    6.2633    4.1229  -23.7670 H   0  0  0  0  0  0
   -5.4489    3.9557  -26.1344 H   0  0  0  0  0  0
    2.4506    1.6547  -24.8302 H   0  0  0  0  0  0
    3.2909    1.1844  -22.9352 H   0  0  0  0  0  0
    4.5166    0.5799  -24.1137 H   0  0  0  0  0  0
    5.0261   -0.1567  -21.7761 H   0  0  0  0  0  0
    7.9203    2.6853  -22.5972 H   0  0  0  0  0  0
    4.2288    2.3205  -20.8736 H   0  0  0  0  0  0
    5.5007    1.2930  -20.0005 H   0  0  0  0  0  0
   -1.2926    3.4980  -26.9933 H   0  0  0  0  0  0
    0.5211    1.9310  -20.9179 H   0  0  0  0  0  0
    7.3054    0.4324  -21.8654 H   0  0  0  0  0  0
   -2.7210    3.6648  -28.4306 H   0  0  0  0  0  0
    6.7270    8.2060  -22.4460 O   0  0  0  0  0  0
    4.5460    6.9860  -20.9380 N   0  0  1  0  0  0
    7.7450    8.1750  -20.4130 N   0  0  0  0  0  0
    5.3610    8.1610  -20.4730 C   0  0  0  0  0  0
    3.8410    7.1760  -22.2550 C   0  0  0  0  0  0
    6.6740    8.1850  -21.2250 C   0  0  0  0  0  0
    9.0930    8.1660  -20.9980 C   0  0  0  0  0  0
    5.1889    6.1261  -21.0550 H   0  0  0  0  0  0
    7.6210    8.1750  -19.4207 H   0  0  0  0  0  0
    5.5571    8.0670  -19.3947 H   0  0  0  0  0  0
    4.8081    9.0909  -20.6720 H   0  0  0  0  0  0
    4.5449    7.5919  -22.9909 H   0  0  0  0  0  0
    3.0135    7.8895  -22.1279 H   0  0  0  0  0  0
    9.8423    8.1590  -20.1927 H   0  0  0  0  0  0
    9.2160    7.2679  -21.6211 H   0  0  0  0  0  0
    9.2300    9.0642  -21.6181 H   0  0  0  0  0  0
  1  2  2  0  0  0
  1  3  1  0  0  0
  1 34  1  0  0  0
  2  6  1  0  0  0
  2 35  1  0  0  0
  3  5  2  0  0  0
  3 27  1  0  0  0
  4  5  1  0  0  0
  4  6  2  0  0  0
  4 18  1  0  0  0
  5 24  1  0  0  0
  6 10  1  0  0  0
  7 10  2  0  0  0
  7 23  1  0  0  0
  7 33  1  0  0  0
  8 21  1  0  0  0
  8 22  1  0  0  0
  8 36  1  0  0  0
  8 37  1  0  0  0
  9 21  1  0  0  0
  9 31  1  0  0  0
  9 38  1  0  0  0
  9 39  1  0  0  0
 10 40  1  0  0  0
 11 12  1  0  0  0
 11 14  2  0  0  0
 11 15  1  0  0  0
 12 17  1  0  0  0
 12 28  2  0  0  0
 13 28  1  0  0  0
 13 29  2  0  0  0
 13 56  1  0  0  0
 14 29  1  0  0  0
 14 31  1  0  0  0
 15 30  2  0  0  0
 15 41  1  0  0  0
 16 17  2  0  0  0
 16 18  1  0  0  0
 16 30  1  0  0  0
 17 26  1  0  0  0
 18 23  2  0  0  0
 19 20  1  0  0  0
 19 31  1  0  0  0
 19 42  1  0  0  0
 19 43  1  0  0  0
 20 22  1  0  0  0
 20 32  1  0  0  0
 20 44  1  0  0  0
 21 32  1  0  0  0
 21 45  1  0  0  0
 22 46  1  0  0  0
 22 47  1  0  0  0
 23 48  1  0  0  0
 24 25  3  0  0  0
 25 49  1  0  0  0
 32 50  1  0  0  0
 33 51  1  0  0  0
 52 57  2  0  0  0
 53 55  1  0  0  0
 53 56  1  0  0  0
 53 59  1  0  0  0
 54 57  1  0  0  0
 54 58  1  0  0  0
 54 60  1  0  0  0
 55 57  1  0  0  0
 55 61  1  0  0  0
 55 62  1  0  0  0
 56 63  1  0  0  0
 56 64  1  0  0  0
 58 65  1  0  0  0
 58 66  1  0  0  0
 58 67  1  0  0  0
M  END
> <s_m_entry_id>
423

> <s_m_entry_name>
000000265.1

> <s_m_Source_Path>
/Users/zaksoul/Documents/3r_UNI/2nd_SEMESTER/BSC/FRAG_RECON/RESULTS/2

> <s_m_Source_File>
000000265.mol2

> <i_m_Source_File_Index>
1

$$$$
No_0_283
                    3D
 Schrodinger Suite 2022-4.
 67 72  0  0  1  0            999 V2000
   -5.2320    3.5440  -21.8130 C   0  0  0  0  0  0
   -5.4980    3.7350  -23.1480 C   0  0  0  0  0  0
   -3.9950    3.2850  -21.4720 C   0  0  0  0  0  0
   -3.1030    3.4090  -23.6370 C   0  0  0  0  0  0
   -2.9440    3.1620  -22.2170 C   0  0  0  0  0  0
   -4.4500    3.6780  -24.1580 C   0  0  0  0  0  0
   -3.6940    3.6980  -26.3570 C   0  0  0  0  0  0
    6.0310    2.9160  -21.0910 C   0  0  0  0  0  0
    5.8930    3.0610  -23.6410 C   0  0  0  0  0  0
   -4.7000    3.8070  -25.4940 C   0  0  0  0  0  0
    2.1110    3.6260  -23.6580 C   0  0  0  0  0  0
    1.2950    4.7380  -23.3580 C   0  0  0  0  0  0
    3.0990    5.9250  -22.6770 C   0  0  0  0  0  0
    3.5120    3.8100  -23.3440 C   0  0  0  0  0  0
    1.5600    2.5110  -24.3200 C   0  0  0  0  0  0
   -0.5640    3.3340  -24.2090 C   0  0  0  0  0  0
   -0.0320    4.5520  -23.6090 C   0  0  0  0  0  0
   -2.0170    3.3470  -24.5630 C   0  0  0  0  0  0
    4.1070    1.3090  -23.0540 C   0  0  0  0  0  0
    5.0390    0.9480  -21.9080 C   0  0  2  0  0  0
    6.6390    2.4820  -22.4430 C   0  0  2  0  0  0
    5.0250    1.9490  -20.7400 C   0  0  0  0  0  0
   -2.3410    3.5090  -25.9910 C   0  0  0  0  0  0
   -1.6010    2.7430  -21.6190 C   0  0  0  0  0  0
   -0.5720    2.3900  -21.1130 C   0  0  0  0  0  0
   -0.8690    5.6000  -23.2640 F   0  0  0  0  0  0
   -3.7860    3.0400  -20.0900 F   0  0  0  0  0  0
    1.7770    5.8940  -22.8250 N   0  0  0  0  0  0
    3.9910    4.9580  -22.8980 N   0  0  0  0  0  0
    0.2530    2.4280  -24.6250 N   0  0  0  0  0  0
    4.4260    2.7580  -23.5220 N   0  0  0  0  0  0
    6.4460    1.0090  -22.3900 N   0  0  1  0  0  0
   -3.8670    3.7140  -27.7460 O   0  0  0  0  0  0
   -6.0338    3.6102  -21.0865 H   0  0  0  0  0  0
   -6.5115    3.9349  -23.4765 H   0  0  0  0  0  0
    5.5646    3.9063  -21.2000 H   0  0  0  0  0  0
    6.8173    2.9221  -20.3218 H   0  0  0  0  0  0
    6.2857    2.6148  -24.5666 H   0  0  0  0  0  0
    6.0414    4.1505  -23.6733 H   0  0  0  0  0  0
   -5.7096    3.9967  -25.8402 H   0  0  0  0  0  0
    2.1957    1.6795  -24.6022 H   0  0  0  0  0  0
    3.0638    1.2575  -22.7090 H   0  0  0  0  0  0
    4.2654    0.6109  -23.8892 H   0  0  0  0  0  0
    4.8099   -0.0632  -21.5406 H   0  0  0  0  0  0
    7.7086    2.7345  -22.4895 H   0  0  0  0  0  0
    4.0436    2.4438  -20.6956 H   0  0  0  0  0  0
    5.3238    1.4332  -19.8155 H   0  0  0  0  0  0
   -1.5717    3.4859  -26.7543 H   0  0  0  0  0  0
    0.3341    2.0800  -20.6680 H   0  0  0  0  0  0
    7.0914    0.5081  -21.6836 H   0  0  0  0  0  0
   -3.0227    3.6219  -28.1716 H   0  0  0  0  0  0
    6.3380    8.5430  -23.0060 O   0  0  0  0  0  0
    4.6820    7.0570  -21.1170 N   0  0  1  0  0  0
    7.8220    8.4830  -21.2850 N   0  0  0  0  0  0
    5.5020    8.2690  -20.7720 C   0  0  0  0  0  0
    3.6640    7.2610  -22.2080 C   0  0  0  0  0  0
    6.5870    8.4480  -21.8130 C   0  0  0  0  0  0
    8.9830    8.6220  -22.1740 C   0  0  0  0  0  0
    5.3340    6.2630  -21.4500 H   0  0  0  0  0  0
    7.9449    8.4151  -20.2949 H   0  0  0  0  0  0
    5.9631    8.1310  -19.7829 H   0  0  0  0  0  0
    4.8552    9.1587  -20.7610 H   0  0  0  0  0  0
    4.1360    7.7770  -23.0571 H   0  0  0  0  0  0
    2.8460    7.8930  -21.8320 H   0  0  0  0  0  0
    9.9054    8.6330  -21.5748 H   0  0  0  0  0  0
    9.0110    7.7749  -22.8751 H   0  0  0  0  0  0
    8.9020    9.5625  -22.7387 H   0  0  0  0  0  0
  1  2  2  0  0  0
  1  3  1  0  0  0
  1 34  1  0  0  0
  2  6  1  0  0  0
  2 35  1  0  0  0
  3  5  2  0  0  0
  3 27  1  0  0  0
  4  5  1  0  0  0
  4  6  2  0  0  0
  4 18  1  0  0  0
  5 24  1  0  0  0
  6 10  1  0  0  0
  7 10  2  0  0  0
  7 23  1  0  0  0
  7 33  1  0  0  0
  8 21  1  0  0  0
  8 22  1  0  0  0
  8 36  1  0  0  0
  8 37  1  0  0  0
  9 21  1  0  0  0
  9 31  1  0  0  0
  9 38  1  0  0  0
  9 39  1  0  0  0
 10 40  1  0  0  0
 11 12  1  0  0  0
 11 14  2  0  0  0
 11 15  1  0  0  0
 12 17  1  0  0  0
 12 28  2  0  0  0
 13 28  1  0  0  0
 13 29  2  0  0  0
 13 56  1  0  0  0
 14 29  1  0  0  0
 14 31  1  0  0  0
 15 30  2  0  0  0
 15 41  1  0  0  0
 16 17  2  0  0  0
 16 18  1  0  0  0
 16 30  1  0  0  0
 17 26  1  0  0  0
 18 23  2  0  0  0
 19 20  1  0  0  0
 19 31  1  0  0  0
 19 42  1  0  0  0
 19 43  1  0  0  0
 20 22  1  0  0  0
 20 32  1  0  0  0
 20 44  1  0  0  0
 21 32  1  0  0  0
 21 45  1  0  0  0
 22 46  1  0  0  0
 22 47  1  0  0  0
 23 48  1  0  0  0
 24 25  3  0  0  0
 25 49  1  0  0  0
 32 50  1  0  0  0
 33 51  1  0  0  0
 52 57  2  0  0  0
 53 55  1  0  0  0
 53 56  1  0  0  0
 53 59  1  0  0  0
 54 57  1  0  0  0
 54 58  1  0  0  0
 54 60  1  0  0  0
 55 57  1  0  0  0
 55 61  1  0  0  0
 55 62  1  0  0  0
 56 63  1  0  0  0
 56 64  1  0  0  0
 58 65  1  0  0  0
 58 66  1  0  0  0
 58 67  1  0  0  0
M  END
> <s_m_entry_id>
424

> <s_m_entry_name>
000000266.1

> <s_m_Source_Path>
/Users/zaksoul/Documents/3r_UNI/2nd_SEMESTER/BSC/FRAG_RECON/RESULTS/2

> <s_m_Source_File>
000000266.mol2

> <i_m_Source_File_Index>
1

$$$$
No_0_284
                    3D
 Schrodinger Suite 2022-4.
 67 72  0  0  1  0            999 V2000
   -5.4140    3.5700  -21.6970 C   0  0  0  0  0  0
   -5.6810    3.7980  -23.0260 C   0  0  0  0  0  0
   -4.1760    3.3000  -21.3670 C   0  0  0  0  0  0
   -3.2890    3.4820  -23.5300 C   0  0  0  0  0  0
   -3.1260    3.1970  -22.1170 C   0  0  0  0  0  0
   -4.6360    3.7670  -24.0400 C   0  0  0  0  0  0
   -3.8850    3.8460  -26.2390 C   0  0  0  0  0  0
    5.8510    2.9080  -21.0180 C   0  0  0  0  0  0
    5.7070    3.1230  -23.5620 C   0  0  0  0  0  0
   -4.8890    3.9330  -25.3710 C   0  0  0  0  0  0
    1.9260    3.6930  -23.5560 C   0  0  0  0  0  0
    1.1120    4.7970  -23.2240 C   0  0  0  0  0  0
    2.9190    5.9630  -22.5150 C   0  0  0  0  0  0
    3.3280    3.8670  -23.2400 C   0  0  0  0  0  0
    1.3720    2.5980  -24.2470 C   0  0  0  0  0  0
   -0.7510    3.4200  -24.1080 C   0  0  0  0  0  0
   -0.2150    4.6200  -23.4770 C   0  0  0  0  0  0
   -2.2040    3.4450  -24.4590 C   0  0  0  0  0  0
    3.9200    1.3580  -23.0200 C   0  0  0  0  0  0
    4.8540    0.9650  -21.8860 C   0  0  2  0  0  0
    6.4540    2.5110  -22.3830 C   0  0  2  0  0  0
    4.8440    1.9330  -20.6910 C   0  0  0  0  0  0
   -2.5320    3.6460  -25.8810 C   0  0  0  0  0  0
   -1.7830    2.7590  -21.5340 C   0  0  0  0  0  0
   -0.7540    2.3920  -21.0400 C   0  0  0  0  0  0
   -1.0500    5.6600  -23.1010 F   0  0  0  0  0  0
   -3.9640    3.0180  -19.9920 F   0  0  0  0  0  0
    1.5970    5.9380  -22.6610 N   0  0  0  0  0  0
    3.8090    5.0020  -22.7640 N   0  0  0  0  0  0
    0.0640    2.5240  -24.5510 N   0  0  0  0  0  0
    4.2400    2.8190  -23.4490 N   0  0  0  0  0  0
    6.2600    1.0370  -22.3700 N   0  0  1  0  0  0
   -4.0610    3.9010  -27.6270 O   0  0  0  0  0  0
   -6.2141    3.6182  -20.9672 H   0  0  0  0  0  0
   -6.6950    4.0076  -23.3469 H   0  0  0  0  0  0
    5.3856    3.9014  -21.0988 H   0  0  0  0  0  0
    6.6388    2.8918  -20.2504 H   0  0  0  0  0  0
    6.0972    2.7026  -24.5006 H   0  0  0  0  0  0
    5.8565    4.2128  -23.5650 H   0  0  0  0  0  0
   -5.8992    4.1336  -25.7091 H   0  0  0  0  0  0
    2.0052    1.7731  -24.5531 H   0  0  0  0  0  0
    2.8776    1.2985  -22.6739 H   0  0  0  0  0  0
    4.0754    0.6830  -23.8746 H   0  0  0  0  0  0
    4.6241   -0.0556  -21.5461 H   0  0  0  0  0  0
    7.5239    2.7631  -22.4254 H   0  0  0  0  0  0
    3.8638    2.4286  -20.6314 H   0  0  0  0  0  0
    5.1438    1.3919  -19.7814 H   0  0  0  0  0  0
   -1.7645    3.6430  -26.6465 H   0  0  0  0  0  0
    0.1527    2.0681  -20.6062 H   0  0  0  0  0  0
    6.9061    0.5160  -21.6790 H   0  0  0  0  0  0
   -3.2176    3.8198  -28.0566 H   0  0  0  0  0  0
    5.8100    8.8990  -23.2070 O   0  0  0  0  0  0
    4.7420    7.0570  -21.2100 N   0  0  1  0  0  0
    7.6550    8.7860  -21.8820 N   0  0  0  0  0  0
    5.5370    8.2950  -20.8990 C   0  0  0  0  0  0
    3.4870    7.2850  -22.0100 C   0  0  0  0  0  0
    6.3350    8.6940  -22.1220 C   0  0  0  0  0  0
    8.5640    9.1350  -22.9810 C   0  0  0  0  0  0
    5.3508    6.3723  -21.7818 H   0  0  0  0  0  0
    8.0081    8.6179  -20.9616 H   0  0  0  0  0  0
    6.2230    8.0900  -20.0639 H   0  0  0  0  0  0
    4.8517    9.1113  -20.6269 H   0  0  0  0  0  0
    3.7129    7.9368  -22.8668 H   0  0  0  0  0  0
    2.7387    7.7902  -21.3817 H   0  0  0  0  0  0
    9.5977    9.1660  -22.6061 H   0  0  0  0  0  0
    8.4850    8.3800  -23.7770 H   0  0  0  0  0  0
    8.2921   10.1218  -23.3839 H   0  0  0  0  0  0
  1  2  2  0  0  0
  1  3  1  0  0  0
  1 34  1  0  0  0
  2  6  1  0  0  0
  2 35  1  0  0  0
  3  5  2  0  0  0
  3 27  1  0  0  0
  4  5  1  0  0  0
  4  6  2  0  0  0
  4 18  1  0  0  0
  5 24  1  0  0  0
  6 10  1  0  0  0
  7 10  2  0  0  0
  7 23  1  0  0  0
  7 33  1  0  0  0
  8 21  1  0  0  0
  8 22  1  0  0  0
  8 36  1  0  0  0
  8 37  1  0  0  0
  9 21  1  0  0  0
  9 31  1  0  0  0
  9 38  1  0  0  0
  9 39  1  0  0  0
 10 40  1  0  0  0
 11 12  1  0  0  0
 11 14  2  0  0  0
 11 15  1  0  0  0
 12 17  1  0  0  0
 12 28  2  0  0  0
 13 28  1  0  0  0
 13 29  2  0  0  0
 13 56  1  0  0  0
 14 29  1  0  0  0
 14 31  1  0  0  0
 15 30  2  0  0  0
 15 41  1  0  0  0
 16 17  2  0  0  0
 16 18  1  0  0  0
 16 30  1  0  0  0
 17 26  1  0  0  0
 18 23  2  0  0  0
 19 20  1  0  0  0
 19 31  1  0  0  0
 19 42  1  0  0  0
 19 43  1  0  0  0
 20 22  1  0  0  0
 20 32  1  0  0  0
 20 44  1  0  0  0
 21 32  1  0  0  0
 21 45  1  0  0  0
 22 46  1  0  0  0
 22 47  1  0  0  0
 23 48  1  0  0  0
 24 25  3  0  0  0
 25 49  1  0  0  0
 32 50  1  0  0  0
 33 51  1  0  0  0
 52 57  2  0  0  0
 53 55  1  0  0  0
 53 56  1  0  0  0
 53 59  1  0  0  0
 54 57  1  0  0  0
 54 58  1  0  0  0
 54 60  1  0  0  0
 55 57  1  0  0  0
 55 61  1  0  0  0
 55 62  1  0  0  0
 56 63  1  0  0  0
 56 64  1  0  0  0
 58 65  1  0  0  0
 58 66  1  0  0  0
 58 67  1  0  0  0
M  END
> <s_m_entry_id>
425

> <s_m_entry_name>
000000267.1

> <s_m_Source_Path>
/Users/zaksoul/Documents/3r_UNI/2nd_SEMESTER/BSC/FRAG_RECON/RESULTS/2

> <s_m_Source_File>
000000267.mol2

> <i_m_Source_File_Index>
1

$$$$
No_0_285
                    3D
 Schrodinger Suite 2022-4.
 70 75  0  0  1  0            999 V2000
   -5.1810    3.6090  -21.8530 C   0  0  0  0  0  0
   -5.4520    3.8050  -23.1860 C   0  0  0  0  0  0
   -3.9420    3.3510  -21.5190 C   0  0  0  0  0  0
   -3.0590    3.4860  -23.6870 C   0  0  0  0  0  0
   -2.8930    3.2340  -22.2690 C   0  0  0  0  0  0
   -4.4090    3.7540  -24.2010 C   0  0  0  0  0  0
   -3.6630    3.7850  -26.4030 C   0  0  0  0  0  0
    6.0870    3.0010  -21.1820 C   0  0  0  0  0  0
    5.9380    3.1560  -23.7310 C   0  0  0  0  0  0
   -4.6650    3.8890  -25.5350 C   0  0  0  0  0  0
    2.1540    3.7130  -23.7290 C   0  0  0  0  0  0
    1.3370    4.8230  -23.4210 C   0  0  0  0  0  0
    3.1410    6.0110  -22.7430 C   0  0  0  0  0  0
    3.5570    3.8990  -23.4210 C   0  0  0  0  0  0
    1.6030    2.6010  -24.3930 C   0  0  0  0  0  0
   -0.5220    3.4190  -24.2700 C   0  0  0  0  0  0
    0.0100    4.6350  -23.6670 C   0  0  0  0  0  0
   -1.9770    3.4300  -24.6180 C   0  0  0  0  0  0
    4.1570    1.3990  -23.1440 C   0  0  0  0  0  0
    5.0950    1.0350  -22.0030 C   0  0  2  0  0  0
    6.6890    2.5740  -22.5390 C   0  0  2  0  0  0
    5.0840    2.0310  -20.8310 C   0  0  0  0  0  0
   -2.3080    3.5970  -26.0440 C   0  0  0  0  0  0
   -1.5470    2.8150  -21.6780 C   0  0  0  0  0  0
   -0.5150    2.4620  -21.1780 C   0  0  0  0  0  0
   -0.8280    5.6800  -23.3140 F   0  0  0  0  0  0
   -3.7260    3.1020  -20.1390 F   0  0  0  0  0  0
    1.8200    5.9780  -22.8860 N   0  0  0  0  0  0
    4.0350    5.0470  -22.9720 N   0  0  0  0  0  0
    0.2950    2.5160  -24.6930 N   0  0  0  0  0  0
    4.4710    2.8500  -23.6070 N   0  0  0  0  0  0
    6.5000    1.1010  -22.4910 N   0  0  1  0  0  0
   -3.8410    3.8060  -27.7920 O   0  0  0  0  0  0
   -5.9796    3.6712  -21.1226 H   0  0  0  0  0  0
   -6.4675    4.0037  -23.5091 H   0  0  0  0  0  0
    5.6179    3.9906  -21.2849 H   0  0  0  0  0  0
    6.8763    3.0060  -20.4159 H   0  0  0  0  0  0
    6.3275    2.7150  -24.6604 H   0  0  0  0  0  0
    6.0833    4.2460  -23.7593 H   0  0  0  0  0  0
   -5.6765    4.0776  -25.8762 H   0  0  0  0  0  0
    2.2385    1.7718  -24.6821 H   0  0  0  0  0  0
    3.1157    1.3435  -22.7939 H   0  0  0  0  0  0
    4.3144    0.7047  -23.9826 H   0  0  0  0  0  0
    4.8700    0.0218  -21.6387 H   0  0  0  0  0  0
    7.7578    2.8293  -22.5885 H   0  0  0  0  0  0
    4.1018    2.5236  -20.7805 H   0  0  0  0  0  0
    5.3877    1.5123  -19.9097 H   0  0  0  0  0  0
   -1.5411    3.5789  -26.8099 H   0  0  0  0  0  0
    0.3934    2.1519  -20.7378 H   0  0  0  0  0  0
    7.1492    0.5983  -21.7894 H   0  0  0  0  0  0
   -2.9984    3.7179  -28.2217 H   0  0  0  0  0  0
    5.5790    9.8430  -22.1730 O   0  0  0  0  0  0
    4.3770    7.2050  -20.9290 N   0  0  1  0  0  0
    7.2300    8.8100  -20.9880 N   0  0  0  0  0  0
    5.9410    9.1100  -21.2630 C   0  0  0  0  0  0
    7.6640    7.9050  -19.9080 C   0  0  0  0  0  0
    8.3040    9.4180  -21.7850 C   0  0  0  0  0  0
    3.7060    7.3460  -22.2710 C   0  0  0  0  0  0
    4.9070    8.4860  -20.3480 C   0  0  0  0  0  0
    3.6710    6.8090  -20.2140 H   0  0  0  0  0  0
    8.7620    7.8380  -19.9040 H   0  0  0  0  0  0
    7.3173    8.2956  -18.9399 H   0  0  0  0  0  0
    7.2361    6.9052  -20.0730 H   0  0  0  0  0  0
    9.2783    9.0609  -21.4199 H   0  0  0  0  0  0
    8.1820    9.1350  -22.8410 H   0  0  0  0  0  0
    8.2560   10.5129  -21.6910 H   0  0  0  0  0  0
    4.4348    7.7169  -23.0068 H   0  0  0  0  0  0
    2.8924    8.0827  -22.1980 H   0  0  0  0  0  0
    5.3611    8.2830  -19.3669 H   0  0  0  0  0  0
    4.0768    9.1921  -20.1990 H   0  0  0  0  0  0
  1  2  2  0  0  0
  1  3  1  0  0  0
  1 34  1  0  0  0
  2  6  1  0  0  0
  2 35  1  0  0  0
  3  5  2  0  0  0
  3 27  1  0  0  0
  4  5  1  0  0  0
  4  6  2  0  0  0
  4 18  1  0  0  0
  5 24  1  0  0  0
  6 10  1  0  0  0
  7 10  2  0  0  0
  7 23  1  0  0  0
  7 33  1  0  0  0
  8 21  1  0  0  0
  8 22  1  0  0  0
  8 36  1  0  0  0
  8 37  1  0  0  0
  9 21  1  0  0  0
  9 31  1  0  0  0
  9 38  1  0  0  0
  9 39  1  0  0  0
 10 40  1  0  0  0
 11 12  1  0  0  0
 11 14  2  0  0  0
 11 15  1  0  0  0
 12 17  1  0  0  0
 12 28  2  0  0  0
 13 28  1  0  0  0
 13 29  2  0  0  0
 13 58  1  0  0  0
 14 29  1  0  0  0
 14 31  1  0  0  0
 15 30  2  0  0  0
 15 41  1  0  0  0
 16 17  2  0  0  0
 16 18  1  0  0  0
 16 30  1  0  0  0
 17 26  1  0  0  0
 18 23  2  0  0  0
 19 20  1  0  0  0
 19 31  1  0  0  0
 19 42  1  0  0  0
 19 43  1  0  0  0
 20 22  1  0  0  0
 20 32  1  0  0  0
 20 44  1  0  0  0
 21 32  1  0  0  0
 21 45  1  0  0  0
 22 46  1  0  0  0
 22 47  1  0  0  0
 23 48  1  0  0  0
 24 25  3  0  0  0
 25 49  1  0  0  0
 32 50  1  0  0  0
 33 51  1  0  0  0
 52 55  2  0  0  0
 53 58  1  0  0  0
 53 59  1  0  0  0
 53 60  1  0  0  0
 54 55  1  0  0  0
 54 56  1  0  0  0
 54 57  1  0  0  0
 55 59  1  0  0  0
 56 61  1  0  0  0
 56 62  1  0  0  0
 56 63  1  0  0  0
 57 64  1  0  0  0
 57 65  1  0  0  0
 57 66  1  0  0  0
 58 67  1  0  0  0
 58 68  1  0  0  0
 59 69  1  0  0  0
 59 70  1  0  0  0
M  END
> <s_m_entry_id>
426

> <s_m_entry_name>
000000268.1

> <s_m_Source_Path>
/Users/zaksoul/Documents/3r_UNI/2nd_SEMESTER/BSC/FRAG_RECON/RESULTS/2

> <s_m_Source_File>
000000268.mol2

> <i_m_Source_File_Index>
1

$$$$
No_0_286
                    3D
 Schrodinger Suite 2022-4.
 70 75  0  0  1  0            999 V2000
   -5.3880    3.4840  -21.9110 C   0  0  0  0  0  0
   -5.6550    3.6790  -23.2450 C   0  0  0  0  0  0
   -4.1500    3.2280  -21.5720 C   0  0  0  0  0  0
   -3.2600    3.3620  -23.7380 C   0  0  0  0  0  0
   -3.0990    3.1120  -22.3180 C   0  0  0  0  0  0
   -4.6080    3.6290  -24.2560 C   0  0  0  0  0  0
   -3.8550    3.6590  -26.4550 C   0  0  0  0  0  0
    5.8780    2.8910  -21.2000 C   0  0  0  0  0  0
    5.7370    3.0440  -23.7490 C   0  0  0  0  0  0
   -4.8600    3.7620  -25.5910 C   0  0  0  0  0  0
    1.9530    3.5970  -23.7610 C   0  0  0  0  0  0
    1.1340    4.7050  -23.4570 C   0  0  0  0  0  0
    2.9340    5.8960  -22.7730 C   0  0  0  0  0  0
    3.3540    3.7840  -23.4480 C   0  0  0  0  0  0
    1.4050    2.4830  -24.4270 C   0  0  0  0  0  0
   -0.7210    3.2980  -24.3110 C   0  0  0  0  0  0
   -0.1920    4.5160  -23.7070 C   0  0  0  0  0  0
   -2.1740    3.3080  -24.6640 C   0  0  0  0  0  0
    3.9570    1.2850  -23.1680 C   0  0  0  0  0  0
    4.8910    0.9230  -22.0230 C   0  0  2  0  0  0
    6.4850    2.4640  -22.5540 C   0  0  2  0  0  0
    4.8750    1.9190  -20.8520 C   0  0  0  0  0  0
   -2.5010    3.4740  -26.0910 C   0  0  0  0  0  0
   -1.7550    2.6940  -21.7230 C   0  0  0  0  0  0
   -0.7240    2.3430  -21.2190 C   0  0  0  0  0  0
   -1.0330    5.5600  -23.3570 F   0  0  0  0  0  0
   -3.9390    2.9790  -20.1910 F   0  0  0  0  0  0
    1.6130    5.8610  -22.9200 N   0  0  0  0  0  0
    3.8290    4.9330  -22.9980 N   0  0  0  0  0  0
    0.0980    2.3960  -24.7310 N   0  0  0  0  0  0
    4.2710    2.7360  -23.6310 N   0  0  0  0  0  0
    6.2970    0.9900  -22.5060 N   0  0  1  0  0  0
   -4.0280    3.6800  -27.8450 O   0  0  0  0  0  0
   -6.1895    3.5452  -21.1837 H   0  0  0  0  0  0
   -6.6694    3.8767  -23.5721 H   0  0  0  0  0  0
    5.4078    3.8799  -21.3049 H   0  0  0  0  0  0
    6.6648    2.8971  -20.4313 H   0  0  0  0  0  0
    6.1307    2.6029  -24.6766 H   0  0  0  0  0  0
    5.8813    4.1341  -23.7773 H   0  0  0  0  0  0
   -5.8706    3.9497  -25.9352 H   0  0  0  0  0  0
    2.0434    1.6549  -24.7131 H   0  0  0  0  0  0
    2.9148    1.2275  -22.8209 H   0  0  0  0  0  0
    4.1174    0.5899  -24.0053 H   0  0  0  0  0  0
    4.6660   -0.0902  -21.6587 H   0  0  0  0  0  0
    7.5537    2.7203  -22.6004 H   0  0  0  0  0  0
    3.8920    2.4105  -20.8056 H   0  0  0  0  0  0
    5.1756    1.4015  -19.9290 H   0  0  0  0  0  0
   -1.7321    3.4569  -26.8549 H   0  0  0  0  0  0
    0.1833    2.0339  -20.7758 H   0  0  0  0  0  0
    6.9450    0.4885  -21.8024 H   0  0  0  0  0  0
   -3.1837    3.5929  -28.2716 H   0  0  0  0  0  0
    5.1610    9.8730  -22.3550 O   0  0  0  0  0  0
    4.4610    7.0380  -21.1600 N   0  0  1  0  0  0
    7.1060    8.9000  -21.6750 N   0  0  0  0  0  0
    5.7710    9.1020  -21.6280 C   0  0  0  0  0  0
    7.8370    7.9490  -20.8170 C   0  0  0  0  0  0
    7.9250    9.6700  -22.6200 C   0  0  0  0  0  0
    3.4950    7.2320  -22.2990 C   0  0  0  0  0  0
    5.0190    8.3090  -20.5790 C   0  0  0  0  0  0
    3.9670    6.5190  -20.3520 H   0  0  0  0  0  0
    8.9091    7.9830  -21.0610 H   0  0  0  0  0  0
    7.6930    8.2220  -19.7612 H   0  0  0  0  0  0
    7.4549    6.9316  -20.9871 H   0  0  0  0  0  0
    8.9795    9.3739  -22.5180 H   0  0  0  0  0  0
    7.5860    9.4690  -23.6470 H   0  0  0  0  0  0
    7.8229   10.7437  -22.4039 H   0  0  0  0  0  0
    4.0095    7.7296  -23.1343 H   0  0  0  0  0  0
    2.6689    7.8811  -21.9730 H   0  0  0  0  0  0
    5.6971    8.0650  -19.7479 H   0  0  0  0  0  0
    4.1961    8.9189  -20.1780 H   0  0  0  0  0  0
  1  2  2  0  0  0
  1  3  1  0  0  0
  1 34  1  0  0  0
  2  6  1  0  0  0
  2 35  1  0  0  0
  3  5  2  0  0  0
  3 27  1  0  0  0
  4  5  1  0  0  0
  4  6  2  0  0  0
  4 18  1  0  0  0
  5 24  1  0  0  0
  6 10  1  0  0  0
  7 10  2  0  0  0
  7 23  1  0  0  0
  7 33  1  0  0  0
  8 21  1  0  0  0
  8 22  1  0  0  0
  8 36  1  0  0  0
  8 37  1  0  0  0
  9 21  1  0  0  0
  9 31  1  0  0  0
  9 38  1  0  0  0
  9 39  1  0  0  0
 10 40  1  0  0  0
 11 12  1  0  0  0
 11 14  2  0  0  0
 11 15  1  0  0  0
 12 17  1  0  0  0
 12 28  2  0  0  0
 13 28  1  0  0  0
 13 29  2  0  0  0
 13 58  1  0  0  0
 14 29  1  0  0  0
 14 31  1  0  0  0
 15 30  2  0  0  0
 15 41  1  0  0  0
 16 17  2  0  0  0
 16 18  1  0  0  0
 16 30  1  0  0  0
 17 26  1  0  0  0
 18 23  2  0  0  0
 19 20  1  0  0  0
 19 31  1  0  0  0
 19 42  1  0  0  0
 19 43  1  0  0  0
 20 22  1  0  0  0
 20 32  1  0  0  0
 20 44  1  0  0  0
 21 32  1  0  0  0
 21 45  1  0  0  0
 22 46  1  0  0  0
 22 47  1  0  0  0
 23 48  1  0  0  0
 24 25  3  0  0  0
 25 49  1  0  0  0
 32 50  1  0  0  0
 33 51  1  0  0  0
 52 55  2  0  0  0
 53 58  1  0  0  0
 53 59  1  0  0  0
 53 60  1  0  0  0
 54 55  1  0  0  0
 54 56  1  0  0  0
 54 57  1  0  0  0
 55 59  1  0  0  0
 56 61  1  0  0  0
 56 62  1  0  0  0
 56 63  1  0  0  0
 57 64  1  0  0  0
 57 65  1  0  0  0
 57 66  1  0  0  0
 58 67  1  0  0  0
 58 68  1  0  0  0
 59 69  1  0  0  0
 59 70  1  0  0  0
M  END
> <s_m_entry_id>
427

> <s_m_entry_name>
000000269.1

> <s_m_Source_Path>
/Users/zaksoul/Documents/3r_UNI/2nd_SEMESTER/BSC/FRAG_RECON/RESULTS/2

> <s_m_Source_File>
000000269.mol2

> <i_m_Source_File_Index>
1

$$$$
No_0_287
                    3D
 Schrodinger Suite 2022-4.
 70 75  0  0  1  0            999 V2000
   -5.3110    3.5700  -22.0090 C   0  0  0  0  0  0
   -5.5810    3.7600  -23.3440 C   0  0  0  0  0  0
   -4.0740    3.3080  -21.6720 C   0  0  0  0  0  0
   -3.1890    3.4290  -23.8410 C   0  0  0  0  0  0
   -3.0250    3.1830  -22.4210 C   0  0  0  0  0  0
   -4.5360    3.7000  -24.3570 C   0  0  0  0  0  0
   -3.7890    3.7170  -26.5580 C   0  0  0  0  0  0
    5.9530    2.9170  -21.3270 C   0  0  0  0  0  0
    5.8070    3.0600  -23.8760 C   0  0  0  0  0  0
   -4.7920    3.8300  -25.6920 C   0  0  0  0  0  0
    2.0260    3.6340  -23.8800 C   0  0  0  0  0  0
    1.2130    4.7480  -23.5780 C   0  0  0  0  0  0
    3.0220    5.9310  -22.9040 C   0  0  0  0  0  0
    3.4290    3.8150  -23.5720 C   0  0  0  0  0  0
    1.4700    2.5210  -24.5390 C   0  0  0  0  0  0
   -0.6520    3.3480  -24.4210 C   0  0  0  0  0  0
   -0.1150    4.5650  -23.8240 C   0  0  0  0  0  0
   -2.1060    3.3640  -24.7710 C   0  0  0  0  0  0
    4.0180    1.3130  -23.2820 C   0  0  0  0  0  0
    4.9540    0.9510  -22.1390 C   0  0  2  0  0  0
    6.5550    2.4810  -22.6810 C   0  0  2  0  0  0
    4.9460    1.9520  -20.9710 C   0  0  0  0  0  0
   -2.4350    3.5260  -26.1970 C   0  0  0  0  0  0
   -1.6810    2.7610  -21.8270 C   0  0  0  0  0  0
   -0.6510    2.4060  -21.3250 C   0  0  0  0  0  0
   -0.9480    5.6160  -23.4760 F   0  0  0  0  0  0
   -3.8600    3.0640  -20.2910 F   0  0  0  0  0  0
    1.7000    5.9040  -23.0480 N   0  0  0  0  0  0
    3.9110    4.9630  -23.1270 N   0  0  0  0  0  0
    0.1620    2.4400  -24.8400 N   0  0  0  0  0  0
    4.3390    2.7610  -23.7520 N   0  0  0  0  0  0
    6.3590    1.0090  -22.6260 N   0  0  1  0  0  0
   -3.9660    3.7330  -27.9470 O   0  0  0  0  0  0
   -6.1098    3.6382  -21.2794 H   0  0  0  0  0  0
   -6.5954    3.9619  -23.6684 H   0  0  0  0  0  0
    5.4886    3.9083  -21.4350 H   0  0  0  0  0  0
    6.7418    2.9220  -20.5604 H   0  0  0  0  0  0
    6.1948    2.6126  -24.8031 H   0  0  0  0  0  0
    5.9573    4.1492  -23.9093 H   0  0  0  0  0  0
   -5.8024    4.0218  -26.0345 H   0  0  0  0  0  0
    2.1019    1.6875  -24.8238 H   0  0  0  0  0  0
    2.9761    1.2635  -22.9327 H   0  0  0  0  0  0
    4.1724    0.6146  -24.1177 H   0  0  0  0  0  0
    4.7239   -0.0593  -21.7696 H   0  0  0  0  0  0
    7.6249    2.7313  -22.7315 H   0  0  0  0  0  0
    3.9661    2.4495  -20.9246 H   0  0  0  0  0  0
    5.2469    1.4361  -20.0472 H   0  0  0  0  0  0
   -1.6682    3.5009  -26.9628 H   0  0  0  0  0  0
    0.2559    2.0940  -20.8830 H   0  0  0  0  0  0
    7.0060    0.5064  -21.9223 H   0  0  0  0  0  0
   -3.1234    3.6399  -28.3757 H   0  0  0  0  0  0
    4.9750   10.0610  -22.6120 O   0  0  0  0  0  0
    4.8490    7.0650  -21.6320 N   0  0  1  0  0  0
    7.0990    9.2360  -22.6040 N   0  0  0  0  0  0
    5.8190    9.2910  -22.1760 C   0  0  0  0  0  0
    8.1090    8.2880  -22.0970 C   0  0  0  0  0  0
    7.5630   10.1770  -23.6320 C   0  0  0  0  0  0
    3.5920    7.2670  -22.4380 C   0  0  0  0  0  0
    5.4500    8.3240  -21.0690 C   0  0  0  0  0  0
    4.6389    6.4198  -20.7918 H   0  0  0  0  0  0
    9.0648    8.4590  -22.6139 H   0  0  0  0  0  0
    8.2450    8.4400  -21.0161 H   0  0  0  0  0  0
    7.7710    7.2579  -22.2830 H   0  0  0  0  0  0
    8.6233    9.9859  -23.8541 H   0  0  0  0  0  0
    6.9678   10.0430  -24.5473 H   0  0  0  0  0  0
    7.4460   11.2077  -23.2661 H   0  0  0  0  0  0
    3.8152    7.8955  -23.3127 H   0  0  0  0  0  0
    2.8440    7.7900  -21.8240 H   0  0  0  0  0  0
    6.3493    8.0719  -20.4878 H   0  0  0  0  0  0
    4.7284    8.8024  -20.3904 H   0  0  0  0  0  0
  1  2  2  0  0  0
  1  3  1  0  0  0
  1 34  1  0  0  0
  2  6  1  0  0  0
  2 35  1  0  0  0
  3  5  2  0  0  0
  3 27  1  0  0  0
  4  5  1  0  0  0
  4  6  2  0  0  0
  4 18  1  0  0  0
  5 24  1  0  0  0
  6 10  1  0  0  0
  7 10  2  0  0  0
  7 23  1  0  0  0
  7 33  1  0  0  0
  8 21  1  0  0  0
  8 22  1  0  0  0
  8 36  1  0  0  0
  8 37  1  0  0  0
  9 21  1  0  0  0
  9 31  1  0  0  0
  9 38  1  0  0  0
  9 39  1  0  0  0
 10 40  1  0  0  0
 11 12  1  0  0  0
 11 14  2  0  0  0
 11 15  1  0  0  0
 12 17  1  0  0  0
 12 28  2  0  0  0
 13 28  1  0  0  0
 13 29  2  0  0  0
 13 58  1  0  0  0
 14 29  1  0  0  0
 14 31  1  0  0  0
 15 30  2  0  0  0
 15 41  1  0  0  0
 16 17  2  0  0  0
 16 18  1  0  0  0
 16 30  1  0  0  0
 17 26  1  0  0  0
 18 23  2  0  0  0
 19 20  1  0  0  0
 19 31  1  0  0  0
 19 42  1  0  0  0
 19 43  1  0  0  0
 20 22  1  0  0  0
 20 32  1  0  0  0
 20 44  1  0  0  0
 21 32  1  0  0  0
 21 45  1  0  0  0
 22 46  1  0  0  0
 22 47  1  0  0  0
 23 48  1  0  0  0
 24 25  3  0  0  0
 25 49  1  0  0  0
 32 50  1  0  0  0
 33 51  1  0  0  0
 52 55  2  0  0  0
 53 58  1  0  0  0
 53 59  1  0  0  0
 53 60  1  0  0  0
 54 55  1  0  0  0
 54 56  1  0  0  0
 54 57  1  0  0  0
 55 59  1  0  0  0
 56 61  1  0  0  0
 56 62  1  0  0  0
 56 63  1  0  0  0
 57 64  1  0  0  0
 57 65  1  0  0  0
 57 66  1  0  0  0
 58 67  1  0  0  0
 58 68  1  0  0  0
 59 69  1  0  0  0
 59 70  1  0  0  0
M  END
> <s_m_entry_id>
428

> <s_m_entry_name>
000000270.1

> <s_m_Source_Path>
/Users/zaksoul/Documents/3r_UNI/2nd_SEMESTER/BSC/FRAG_RECON/RESULTS/2

> <s_m_Source_File>
000000270.mol2

> <i_m_Source_File_Index>
1

$$$$
No_0_288
                    3D
 Schrodinger Suite 2022-4.
 71 77  0  0  1  0            999 V2000
   -4.9400    3.4080  -22.1100 C   0  0  0  0  0  0
   -5.1890    3.5930  -23.4490 C   0  0  0  0  0  0
   -3.7090    3.1380  -21.7540 C   0  0  0  0  0  0
   -2.7940    3.2360  -23.9110 C   0  0  0  0  0  0
   -2.6520    2.9980  -22.4880 C   0  0  0  0  0  0
   -4.1320    3.5170  -24.4480 C   0  0  0  0  0  0
   -3.3540    3.5130  -26.6380 C   0  0  0  0  0  0
    6.3080    2.6540  -21.2680 C   0  0  0  0  0  0
    6.1970    2.7830  -23.8200 C   0  0  0  0  0  0
   -4.3670    3.6400  -25.7870 C   0  0  0  0  0  0
    2.4230    3.3920  -23.8790 C   0  0  0  0  0  0
    1.6170    4.5150  -23.5950 C   0  0  0  0  0  0
    3.4270    5.6860  -22.9040 C   0  0  0  0  0  0
    3.8230    3.5620  -23.5530 C   0  0  0  0  0  0
    1.8650    2.2800  -24.5390 C   0  0  0  0  0  0
   -0.2500    3.1280  -24.4560 C   0  0  0  0  0  0
    0.2900    4.3430  -23.8590 C   0  0  0  0  0  0
   -1.6990    3.1550  -24.8250 C   0  0  0  0  0  0
    4.3850    1.0570  -23.2400 C   0  0  0  0  0  0
    5.3000    0.6930  -22.0810 C   0  0  2  0  0  0
    6.9240    2.2040  -22.6110 C   0  0  2  0  0  0
    5.2870    1.7010  -20.9210 C   0  0  0  0  0  0
   -2.0070    3.3110  -26.2570 C   0  0  0  0  0  0
   -1.3210    2.5660  -21.8730 C   0  0  0  0  0  0
   -0.3010    2.2050  -21.3540 C   0  0  0  0  0  0
   -0.5380    5.4040  -23.5290 F   0  0  0  0  0  0
   -3.5170    2.9000  -20.3690 F   0  0  0  0  0  0
    2.1070    5.6700  -23.0660 N   0  0  0  0  0  0
    4.3100    4.7080  -23.1090 N   0  0  0  0  0  0
    0.5610    2.2090  -24.8580 N   0  0  0  0  0  0
    4.7250    2.4980  -23.7140 N   0  0  0  0  0  0
    6.7130    0.7340  -22.5500 N   0  0  1  0  0  0
   -3.5120    3.5220  -28.0300 O   0  0  0  0  0  0
   -5.7477    3.4893  -21.3916 H   0  0  0  0  0  0
   -6.1969    3.8028  -23.7883 H   0  0  0  0  0  0
    5.8540    3.6487  -21.3881 H   0  0  0  0  0  0
    7.0863    2.6570  -20.4907 H   0  0  0  0  0  0
    6.5938    2.3266  -24.7388 H   0  0  0  0  0  0
    6.3584    3.8705  -23.8573 H   0  0  0  0  0  0
   -5.3707    3.8397  -26.1443 H   0  0  0  0  0  0
    2.4932    1.4391  -24.8099 H   0  0  0  0  0  0
    3.3379    1.0187  -22.9051 H   0  0  0  0  0  0
    4.5434    0.3508  -24.0683 H   0  0  0  0  0  0
    5.0558   -0.3132  -21.7096 H   0  0  0  0  0  0
    7.9968    2.4442  -22.6483 H   0  0  0  0  0  0
    4.3115    2.2084  -20.8897 H   0  0  0  0  0  0
    5.5695    1.1884  -19.9896 H   0  0  0  0  0  0
   -1.2305    3.2739  -27.0124 H   0  0  0  0  0  0
    0.5969    1.8870  -20.8981 H   0  0  0  0  0  0
    7.3450    0.2303  -21.8335 H   0  0  0  0  0  0
   -2.6644    3.4170  -28.4459 H   0  0  0  0  0  0
    3.3750    7.4660  -21.1430 N   0  3  0  0  0  0
    6.9580    7.4630  -21.1470 N   0  0  0  0  0  0
    7.9750    7.6350  -22.0280 N   0  0  0  0  0  0
    3.8450    8.7960  -20.6070 C   0  0  0  0  0  0
    4.0030    7.0190  -22.4380 C   0  0  0  0  0  0
    5.2210    8.7390  -19.9100 C   0  0  0  0  0  0
    6.4000    8.6100  -20.8520 C   0  0  0  0  0  0
    7.0600    9.6180  -21.5600 C   0  0  0  0  0  0
    8.0000    8.9720  -22.2540 C   0  0  0  0  0  0
    2.3728    7.4860  -21.2490 H   0  0  0  0  0  0
    3.5169    6.7564  -20.4413 H   0  0  0  0  0  0
    8.5141    6.8218  -22.3581 H   0  0  0  0  0  0
    3.0962    9.1919  -19.9052 H   0  0  0  0  0  0
    3.8820    9.5276  -21.4276 H   0  0  0  0  0  0
    5.0903    6.9210  -22.3030 H   0  0  0  0  0  0
    3.8309    7.7822  -23.2112 H   0  0  0  0  0  0
    5.2330    7.9035  -19.1946 H   0  0  0  0  0  0
    5.3500    9.6358  -19.2862 H   0  0  0  0  0  0
    6.7469   10.6502  -21.4520 H   0  0  0  0  0  0
    8.7309    9.3929  -22.9349 H   0  0  0  0  0  0
  1  2  2  0  0  0
  1  3  1  0  0  0
  1 34  1  0  0  0
  2  6  1  0  0  0
  2 35  1  0  0  0
  3  5  2  0  0  0
  3 27  1  0  0  0
  4  5  1  0  0  0
  4  6  2  0  0  0
  4 18  1  0  0  0
  5 24  1  0  0  0
  6 10  1  0  0  0
  7 10  2  0  0  0
  7 23  1  0  0  0
  7 33  1  0  0  0
  8 21  1  0  0  0
  8 22  1  0  0  0
  8 36  1  0  0  0
  8 37  1  0  0  0
  9 21  1  0  0  0
  9 31  1  0  0  0
  9 38  1  0  0  0
  9 39  1  0  0  0
 10 40  1  0  0  0
 11 12  1  0  0  0
 11 14  2  0  0  0
 11 15  1  0  0  0
 12 17  1  0  0  0
 12 28  2  0  0  0
 13 28  1  0  0  0
 13 29  2  0  0  0
 13 56  1  0  0  0
 14 29  1  0  0  0
 14 31  1  0  0  0
 15 30  2  0  0  0
 15 41  1  0  0  0
 16 17  2  0  0  0
 16 18  1  0  0  0
 16 30  1  0  0  0
 17 26  1  0  0  0
 18 23  2  0  0  0
 19 20  1  0  0  0
 19 31  1  0  0  0
 19 42  1  0  0  0
 19 43  1  0  0  0
 20 22  1  0  0  0
 20 32  1  0  0  0
 20 44  1  0  0  0
 21 32  1  0  0  0
 21 45  1  0  0  0
 22 46  1  0  0  0
 22 47  1  0  0  0
 23 48  1  0  0  0
 24 25  3  0  0  0
 25 49  1  0  0  0
 32 50  1  0  0  0
 33 51  1  0  0  0
 52 55  1  0  0  0
 52 56  1  0  0  0
 52 61  1  0  0  0
 52 62  1  0  0  0
 53 54  1  0  0  0
 53 58  2  0  0  0
 54 60  1  0  0  0
 54 63  1  0  0  0
 55 57  1  0  0  0
 55 64  1  0  0  0
 55 65  1  0  0  0
 56 66  1  0  0  0
 56 67  1  0  0  0
 57 58  1  0  0  0
 57 68  1  0  0  0
 57 69  1  0  0  0
 58 59  1  0  0  0
 59 60  2  0  0  0
 59 70  1  0  0  0
 60 71  1  0  0  0
M  CHG  1  52   1
M  END
> <s_m_entry_id>
429

> <s_m_entry_name>
000000271.1

> <s_m_Source_Path>
/Users/zaksoul/Documents/3r_UNI/2nd_SEMESTER/BSC/FRAG_RECON/RESULTS/2

> <s_m_Source_File>
000000271.mol2

> <i_m_Source_File_Index>
1

$$$$
No_0_289
                    3D
 Schrodinger Suite 2022-4.
 71 77  0  0  1  0            999 V2000
   -5.2600    3.6650  -21.8200 C   0  0  0  0  0  0
   -5.5380    3.8570  -23.1530 C   0  0  0  0  0  0
   -4.0210    3.3960  -21.4930 C   0  0  0  0  0  0
   -3.1520    3.5100  -23.6690 C   0  0  0  0  0  0
   -2.9790    3.2640  -22.2500 C   0  0  0  0  0  0
   -4.5020    3.7900  -24.1750 C   0  0  0  0  0  0
   -3.7710    3.8010  -26.3810 C   0  0  0  0  0  0
    6.0050    2.9420  -21.2240 C   0  0  0  0  0  0
    5.8400    3.0850  -23.7710 C   0  0  0  0  0  0
   -4.7660    3.9200  -25.5070 C   0  0  0  0  0  0
    2.0630    3.6820  -23.7470 C   0  0  0  0  0  0
    1.2600    4.8010  -23.4390 C   0  0  0  0  0  0
    3.0810    5.9740  -22.7800 C   0  0  0  0  0  0
    3.4690    3.8550  -23.4500 C   0  0  0  0  0  0
    1.4950    2.5720  -24.4020 C   0  0  0  0  0  0
   -0.6200    3.4130  -24.2680 C   0  0  0  0  0  0
   -0.0710    4.6270  -23.6750 C   0  0  0  0  0  0
   -2.0770    3.4380  -24.6060 C   0  0  0  0  0  0
    4.0460    1.3490  -23.1630 C   0  0  0  0  0  0
    4.9870    0.9820  -22.0270 C   0  0  2  0  0  0
    6.5940    2.5010  -22.5820 C   0  0  2  0  0  0
    4.9950    1.9840  -20.8600 C   0  0  0  0  0  0
   -2.4160    3.6010  -26.0300 C   0  0  0  0  0  0
   -1.6340    2.8330  -21.6660 C   0  0  0  0  0  0
   -0.6020    2.4720  -21.1710 C   0  0  0  0  0  0
   -0.8950    5.6830  -23.3220 F   0  0  0  0  0  0
   -3.7990    3.1510  -20.1130 F   0  0  0  0  0  0
    1.7580    5.9540  -22.9140 N   0  0  0  0  0  0
    3.9620    4.9990  -23.0100 N   0  0  0  0  0  0
    0.1840    2.4990  -24.6920 N   0  0  0  0  0  0
    4.3720    2.7950  -23.6360 N   0  0  0  0  0  0
    6.3890    1.0300  -22.5250 N   0  0  1  0  0  0
   -3.9590    3.8170  -27.7690 O   0  0  0  0  0  0
   -6.0533    3.7393  -21.0850 H   0  0  0  0  0  0
   -6.5536    4.0647  -23.4701 H   0  0  0  0  0  0
    5.5467    3.9364  -21.3290 H   0  0  0  0  0  0
    6.7998    2.9420  -20.4635 H   0  0  0  0  0  0
    6.2182    2.6352  -24.7009 H   0  0  0  0  0  0
    5.9975    4.1731  -23.8063 H   0  0  0  0  0  0
   -5.7777    4.1177  -25.8422 H   0  0  0  0  0  0
    2.1204    1.7348  -24.6901 H   0  0  0  0  0  0
    3.0064    1.3066  -22.8060 H   0  0  0  0  0  0
    4.1893    0.6484  -23.9988 H   0  0  0  0  0  0
    4.7539   -0.0269  -21.6557 H   0  0  0  0  0  0
    7.6652    2.7443  -22.6406 H   0  0  0  0  0  0
    4.0187    2.4878  -20.8055 H   0  0  0  0  0  0
    5.2986    1.4665  -19.9380 H   0  0  0  0  0  0
   -1.6553    3.5709  -26.8017 H   0  0  0  0  0  0
    0.3061    2.1540  -20.7359 H   0  0  0  0  0  0
    7.0381    0.5242  -21.8256 H   0  0  0  0  0  0
   -3.1202    3.7180  -28.2038 H   0  0  0  0  0  0
    3.3510    7.5680  -20.8670 N   0  3  0  0  0  0
    6.8100    7.9050  -21.7400 N   0  0  0  0  0  0
    7.5590    8.2540  -22.8160 N   0  0  0  0  0  0
    3.8480    8.8810  -20.3140 C   0  0  0  0  0  0
    3.6630    7.3060  -22.3190 C   0  0  0  0  0  0
    5.3560    8.8900  -19.9820 C   0  0  0  0  0  0
    6.2670    8.9610  -21.1900 C   0  0  0  0  0  0
    6.6570   10.0890  -21.9170 C   0  0  0  0  0  0
    7.4350    9.6030  -22.8870 C   0  0  0  0  0  0
    2.3553    7.5030  -20.7240 H   0  0  0  0  0  0
    3.7132    6.8125  -20.3066 H   0  0  0  0  0  0
    8.0522    7.5297  -23.3573 H   0  0  0  0  0  0
    3.2741    9.1370  -19.4112 H   0  0  0  0  0  0
    3.6279    9.6863  -21.0303 H   0  0  0  0  0  0
    4.7535    7.2990  -22.4629 H   0  0  0  0  0  0
    3.2508    8.1185  -22.9354 H   0  0  0  0  0  0
    5.6038    7.9957  -19.3914 H   0  0  0  0  0  0
    5.5760    9.7319  -19.3091 H   0  0  0  0  0  0
    6.3110   11.0721  -21.6190 H   0  0  0  0  0  0
    7.9411   10.1531  -23.6721 H   0  0  0  0  0  0
  1  2  2  0  0  0
  1  3  1  0  0  0
  1 34  1  0  0  0
  2  6  1  0  0  0
  2 35  1  0  0  0
  3  5  2  0  0  0
  3 27  1  0  0  0
  4  5  1  0  0  0
  4  6  2  0  0  0
  4 18  1  0  0  0
  5 24  1  0  0  0
  6 10  1  0  0  0
  7 10  2  0  0  0
  7 23  1  0  0  0
  7 33  1  0  0  0
  8 21  1  0  0  0
  8 22  1  0  0  0
  8 36  1  0  0  0
  8 37  1  0  0  0
  9 21  1  0  0  0
  9 31  1  0  0  0
  9 38  1  0  0  0
  9 39  1  0  0  0
 10 40  1  0  0  0
 11 12  1  0  0  0
 11 14  2  0  0  0
 11 15  1  0  0  0
 12 17  1  0  0  0
 12 28  2  0  0  0
 13 28  1  0  0  0
 13 29  2  0  0  0
 13 56  1  0  0  0
 14 29  1  0  0  0
 14 31  1  0  0  0
 15 30  2  0  0  0
 15 41  1  0  0  0
 16 17  2  0  0  0
 16 18  1  0  0  0
 16 30  1  0  0  0
 17 26  1  0  0  0
 18 23  2  0  0  0
 19 20  1  0  0  0
 19 31  1  0  0  0
 19 42  1  0  0  0
 19 43  1  0  0  0
 20 22  1  0  0  0
 20 32  1  0  0  0
 20 44  1  0  0  0
 21 32  1  0  0  0
 21 45  1  0  0  0
 22 46  1  0  0  0
 22 47  1  0  0  0
 23 48  1  0  0  0
 24 25  3  0  0  0
 25 49  1  0  0  0
 32 50  1  0  0  0
 33 51  1  0  0  0
 52 55  1  0  0  0
 52 56  1  0  0  0
 52 61  1  0  0  0
 52 62  1  0  0  0
 53 54  1  0  0  0
 53 58  2  0  0  0
 54 60  1  0  0  0
 54 63  1  0  0  0
 55 57  1  0  0  0
 55 64  1  0  0  0
 55 65  1  0  0  0
 56 66  1  0  0  0
 56 67  1  0  0  0
 57 58  1  0  0  0
 57 68  1  0  0  0
 57 69  1  0  0  0
 58 59  1  0  0  0
 59 60  2  0  0  0
 59 70  1  0  0  0
 60 71  1  0  0  0
M  CHG  1  52   1
M  END
> <s_m_entry_id>
430

> <s_m_entry_name>
000000272.1

> <s_m_Source_Path>
/Users/zaksoul/Documents/3r_UNI/2nd_SEMESTER/BSC/FRAG_RECON/RESULTS/2

> <s_m_Source_File>
000000272.mol2

> <i_m_Source_File_Index>
1

$$$$
No_0_290
                    3D
 Schrodinger Suite 2022-4.
 71 77  0  0  1  0            999 V2000
   -5.1490    3.5490  -22.0870 C   0  0  0  0  0  0
   -5.4140    3.7180  -23.4250 C   0  0  0  0  0  0
   -3.9060    3.3340  -21.7380 C   0  0  0  0  0  0
   -3.0080    3.4670  -23.9000 C   0  0  0  0  0  0
   -2.8470    3.2400  -22.4770 C   0  0  0  0  0  0
   -4.3590    3.6870  -24.4300 C   0  0  0  0  0  0
   -3.5940    3.7110  -26.6240 C   0  0  0  0  0  0
    6.1250    3.3000  -21.3070 C   0  0  0  0  0  0
    5.9950    3.4160  -23.8580 C   0  0  0  0  0  0
   -4.6080    3.7960  -25.7670 C   0  0  0  0  0  0
    2.1970    3.8560  -23.8980 C   0  0  0  0  0  0
    1.3430    4.9430  -23.6120 C   0  0  0  0  0  0
    3.1030    6.1950  -22.9340 C   0  0  0  0  0  0
    3.5900    4.0890  -23.5800 C   0  0  0  0  0  0
    1.6860    2.7180  -24.5520 C   0  0  0  0  0  0
   -0.4640    3.4710  -24.4590 C   0  0  0  0  0  0
    0.0250    4.7110  -23.8680 C   0  0  0  0  0  0
   -1.9150    3.4330  -24.8200 C   0  0  0  0  0  0
    4.2650    1.6120  -23.2630 C   0  0  0  0  0  0
    5.2020    1.2930  -22.1090 C   0  0  2  0  0  0
    6.7530    2.8740  -22.6510 C   0  0  2  0  0  0
    5.1500    2.3030  -20.9510 C   0  0  0  0  0  0
   -2.2380    3.5710  -26.2510 C   0  0  0  0  0  0
   -1.4950    2.8700  -21.8680 C   0  0  0  0  0  0
   -0.4570    2.5560  -21.3550 C   0  0  0  0  0  0
   -0.8480    5.7350  -23.5360 F   0  0  0  0  0  0
   -3.6950    3.1090  -20.3530 F   0  0  0  0  0  0
    1.7840    6.1200  -23.0880 N   0  0  0  0  0  0
    4.0280    5.2570  -23.1420 N   0  0  0  0  0  0
    0.3840    2.5890  -24.8630 N   0  0  0  0  0  0
    4.5380    3.0660  -23.7430 N   0  0  0  0  0  0
    6.6090    1.3960  -22.5850 N   0  0  1  0  0  0
   -3.7610    3.7090  -28.0150 O   0  0  0  0  0  0
   -5.9558    3.5952  -21.3645 H   0  0  0  0  0  0
   -6.4321    3.8817  -23.7593 H   0  0  0  0  0  0
    5.6271    4.2735  -21.4272 H   0  0  0  0  0  0
    6.9068    3.3393  -20.5342 H   0  0  0  0  0  0
    6.4069    2.9749  -24.7776 H   0  0  0  0  0  0
    6.1080    4.5094  -23.8994 H   0  0  0  0  0  0
   -5.6213    3.9486  -26.1205 H   0  0  0  0  0  0
    2.3494    1.9050  -24.8240 H   0  0  0  0  0  0
    3.2225    1.5292  -22.9219 H   0  0  0  0  0  0
    4.4507    0.9116  -24.0906 H   0  0  0  0  0  0
    5.0052    0.2779  -21.7336 H   0  0  0  0  0  0
    7.8141    3.1605  -22.6954 H   0  0  0  0  0  0
    4.1529    2.7662  -20.9167 H   0  0  0  0  0  0
    5.4598    1.8065  -20.0196 H   0  0  0  0  0  0
   -1.4640    3.5670  -27.0099 H   0  0  0  0  0  0
    0.4561    2.2800  -20.9020 H   0  0  0  0  0  0
    7.2671    0.9230  -21.8712 H   0  0  0  0  0  0
   -2.9117    3.6418  -28.4352 H   0  0  0  0  0  0
    3.6070    7.6680  -20.9720 N   0  3  0  0  0  0
    6.7340    8.5080  -22.5060 N   0  0  0  0  0  0
    7.1870    9.0280  -23.6740 N   0  0  0  0  0  0
    4.0650    8.9900  -20.4070 C   0  0  0  0  0  0
    3.6220    7.5540  -22.4750 C   0  0  0  0  0  0
    5.5990    9.1680  -20.3960 C   0  0  0  0  0  0
    6.2110    9.4430  -21.7540 C   0  0  0  0  0  0
    6.3080   10.6620  -22.4310 C   0  0  0  0  0  0
    6.9040   10.3510  -23.5850 C   0  0  0  0  0  0
    2.6800    7.4650  -20.6320 H   0  0  0  0  0  0
    4.1629    6.9262  -20.5761 H   0  0  0  0  0  0
    7.6276    8.4146  -24.3743 H   0  0  0  0  0  0
    3.6779    9.1040  -19.3837 H   0  0  0  0  0  0
    3.6069    9.8102  -20.9792 H   0  0  0  0  0  0
    4.6487    7.6970  -22.8429 H   0  0  0  0  0  0
    2.9990    8.3500  -22.9090 H   0  0  0  0  0  0
    6.0658    8.2724  -19.9602 H   0  0  0  0  0  0
    5.8670    9.9800  -19.7040 H   0  0  0  0  0  0
    5.9289   11.5683  -21.9728 H   0  0  0  0  0  0
    7.1630   11.0171  -24.4001 H   0  0  0  0  0  0
  1  2  2  0  0  0
  1  3  1  0  0  0
  1 34  1  0  0  0
  2  6  1  0  0  0
  2 35  1  0  0  0
  3  5  2  0  0  0
  3 27  1  0  0  0
  4  5  1  0  0  0
  4  6  2  0  0  0
  4 18  1  0  0  0
  5 24  1  0  0  0
  6 10  1  0  0  0
  7 10  2  0  0  0
  7 23  1  0  0  0
  7 33  1  0  0  0
  8 21  1  0  0  0
  8 22  1  0  0  0
  8 36  1  0  0  0
  8 37  1  0  0  0
  9 21  1  0  0  0
  9 31  1  0  0  0
  9 38  1  0  0  0
  9 39  1  0  0  0
 10 40  1  0  0  0
 11 12  1  0  0  0
 11 14  2  0  0  0
 11 15  1  0  0  0
 12 17  1  0  0  0
 12 28  2  0  0  0
 13 28  1  0  0  0
 13 29  2  0  0  0
 13 56  1  0  0  0
 14 29  1  0  0  0
 14 31  1  0  0  0
 15 30  2  0  0  0
 15 41  1  0  0  0
 16 17  2  0  0  0
 16 18  1  0  0  0
 16 30  1  0  0  0
 17 26  1  0  0  0
 18 23  2  0  0  0
 19 20  1  0  0  0
 19 31  1  0  0  0
 19 42  1  0  0  0
 19 43  1  0  0  0
 20 22  1  0  0  0
 20 32  1  0  0  0
 20 44  1  0  0  0
 21 32  1  0  0  0
 21 45  1  0  0  0
 22 46  1  0  0  0
 22 47  1  0  0  0
 23 48  1  0  0  0
 24 25  3  0  0  0
 25 49  1  0  0  0
 32 50  1  0  0  0
 33 51  1  0  0  0
 52 55  1  0  0  0
 52 56  1  0  0  0
 52 61  1  0  0  0
 52 62  1  0  0  0
 53 54  1  0  0  0
 53 58  2  0  0  0
 54 60  1  0  0  0
 54 63  1  0  0  0
 55 57  1  0  0  0
 55 64  1  0  0  0
 55 65  1  0  0  0
 56 66  1  0  0  0
 56 67  1  0  0  0
 57 58  1  0  0  0
 57 68  1  0  0  0
 57 69  1  0  0  0
 58 59  1  0  0  0
 59 60  2  0  0  0
 59 70  1  0  0  0
 60 71  1  0  0  0
M  CHG  1  52   1
M  END
> <s_m_entry_id>
431

> <s_m_entry_name>
000000273.1

> <s_m_Source_Path>
/Users/zaksoul/Documents/3r_UNI/2nd_SEMESTER/BSC/FRAG_RECON/RESULTS/2

> <s_m_Source_File>
000000273.mol2

> <i_m_Source_File_Index>
1

$$$$
No_0_291
                    3D
 Schrodinger Suite 2022-4.
 71 77  0  0  1  0            999 V2000
   -4.9820    3.7180  -22.0690 C   0  0  0  0  0  0
   -5.2510    3.9150  -23.4020 C   0  0  0  0  0  0
   -3.7430    3.4630  -21.7320 C   0  0  0  0  0  0
   -2.8560    3.6020  -23.8990 C   0  0  0  0  0  0
   -2.6920    3.3490  -22.4810 C   0  0  0  0  0  0
   -4.2050    3.8680  -24.4150 C   0  0  0  0  0  0
   -3.4550    3.9030  -26.6150 C   0  0  0  0  0  0
    6.2860    3.1360  -21.3770 C   0  0  0  0  0  0
    6.1420    3.2940  -23.9260 C   0  0  0  0  0  0
   -4.4600    4.0030  -25.7490 C   0  0  0  0  0  0
    2.3570    3.8420  -23.9310 C   0  0  0  0  0  0
    1.5370    4.9490  -23.6230 C   0  0  0  0  0  0
    3.3370    6.1400  -22.9400 C   0  0  0  0  0  0
    3.7580    4.0310  -23.6200 C   0  0  0  0  0  0
    1.8090    2.7290  -24.5970 C   0  0  0  0  0  0
   -0.3180    3.5420  -24.4770 C   0  0  0  0  0  0
    0.2100    4.7590  -23.8720 C   0  0  0  0  0  0
   -1.7720    3.5500  -24.8280 C   0  0  0  0  0  0
    4.3640    1.5310  -23.3440 C   0  0  0  0  0  0
    5.3010    1.1690  -22.2020 C   0  0  2  0  0  0
    6.8920    2.7130  -22.7330 C   0  0  2  0  0  0
    5.2850    2.1630  -21.0290 C   0  0  0  0  0  0
   -2.1010    3.7180  -26.2540 C   0  0  0  0  0  0
   -1.3470    2.9320  -21.8880 C   0  0  0  0  0  0
   -0.3150    2.5810  -21.3860 C   0  0  0  0  0  0
   -0.6310    5.8020  -23.5190 F   0  0  0  0  0  0
   -3.5290    3.2120  -20.3520 F   0  0  0  0  0  0
    2.0150    6.1050  -23.0850 N   0  0  0  0  0  0
    4.2320    5.1790  -23.1680 N   0  0  0  0  0  0
    0.5020    2.6410  -24.9000 N   0  0  0  0  0  0
    4.6760    2.9840  -23.8050 N   0  0  0  0  0  0
    6.7060    1.2390  -22.6870 N   0  0  1  0  0  0
   -3.6310    3.9260  -28.0040 O   0  0  0  0  0  0
   -5.7817    3.7762  -21.3395 H   0  0  0  0  0  0
   -6.2661    4.1118  -23.7273 H   0  0  0  0  0  0
    5.8157    4.1250  -21.4799 H   0  0  0  0  0  0
    7.0743    3.1421  -20.6099 H   0  0  0  0  0  0
    6.5339    2.8547  -24.8552 H   0  0  0  0  0  0
    6.2844    4.3844  -23.9523 H   0  0  0  0  0  0
   -5.4709    4.1907  -26.0923 H   0  0  0  0  0  0
    2.4474    1.9020  -24.8861 H   0  0  0  0  0  0
    3.3219    1.4734  -22.9966 H   0  0  0  0  0  0
    4.5245    0.8387  -24.1836 H   0  0  0  0  0  0
    5.0770    0.1548  -21.8397 H   0  0  0  0  0  0
    7.9604    2.9703  -22.7804 H   0  0  0  0  0  0
    4.3017    2.6536  -20.9795 H   0  0  0  0  0  0
    5.5877    1.6434  -20.1079 H   0  0  0  0  0  0
   -1.3331    3.7029  -27.0189 H   0  0  0  0  0  0
    0.5935    2.2722  -20.9452 H   0  0  0  0  0  0
    7.3552    0.7363  -21.9854 H   0  0  0  0  0  0
   -2.7876    3.8399  -28.4326 H   0  0  0  0  0  0
    4.2370    7.4390  -20.9970 N   0  3  0  0  0  0
    6.8730    8.6260  -23.1130 N   0  0  0  0  0  0
    7.0140    9.2880  -24.2900 N   0  0  0  0  0  0
    4.7660    8.7250  -20.4100 C   0  0  0  0  0  0
    3.8970    7.4770  -22.4650 C   0  0  0  0  0  0
    6.2500    8.9980  -20.7370 C   0  0  0  0  0  0
    6.5090    9.4460  -22.1600 C   0  0  0  0  0  0
    6.3940   10.7300  -22.7010 C   0  0  0  0  0  0
    6.7090   10.5740  -23.9890 C   0  0  0  0  0  0
    3.4265    7.1442  -20.4753 H   0  0  0  0  0  0
    4.8994    6.6985  -20.8269 H   0  0  0  0  0  0
    7.2982    8.7766  -25.1377 H   0  0  0  0  0  0
    4.6291    8.7110  -19.3186 H   0  0  0  0  0  0
    4.1530    9.5670  -20.7640 H   0  0  0  0  0  0
    4.8004    7.7211  -23.0432 H   0  0  0  0  0  0
    3.1578    8.2703  -22.6501 H   0  0  0  0  0  0
    6.8418    8.0953  -20.5251 H   0  0  0  0  0  0
    6.6430    9.7529  -20.0401 H   0  0  0  0  0  0
    6.1010   11.5599  -22.0681 H   0  0  0  0  0  0
    6.7410   11.3341  -24.7611 H   0  0  0  0  0  0
  1  2  2  0  0  0
  1  3  1  0  0  0
  1 34  1  0  0  0
  2  6  1  0  0  0
  2 35  1  0  0  0
  3  5  2  0  0  0
  3 27  1  0  0  0
  4  5  1  0  0  0
  4  6  2  0  0  0
  4 18  1  0  0  0
  5 24  1  0  0  0
  6 10  1  0  0  0
  7 10  2  0  0  0
  7 23  1  0  0  0
  7 33  1  0  0  0
  8 21  1  0  0  0
  8 22  1  0  0  0
  8 36  1  0  0  0
  8 37  1  0  0  0
  9 21  1  0  0  0
  9 31  1  0  0  0
  9 38  1  0  0  0
  9 39  1  0  0  0
 10 40  1  0  0  0
 11 12  1  0  0  0
 11 14  2  0  0  0
 11 15  1  0  0  0
 12 17  1  0  0  0
 12 28  2  0  0  0
 13 28  1  0  0  0
 13 29  2  0  0  0
 13 56  1  0  0  0
 14 29  1  0  0  0
 14 31  1  0  0  0
 15 30  2  0  0  0
 15 41  1  0  0  0
 16 17  2  0  0  0
 16 18  1  0  0  0
 16 30  1  0  0  0
 17 26  1  0  0  0
 18 23  2  0  0  0
 19 20  1  0  0  0
 19 31  1  0  0  0
 19 42  1  0  0  0
 19 43  1  0  0  0
 20 22  1  0  0  0
 20 32  1  0  0  0
 20 44  1  0  0  0
 21 32  1  0  0  0
 21 45  1  0  0  0
 22 46  1  0  0  0
 22 47  1  0  0  0
 23 48  1  0  0  0
 24 25  3  0  0  0
 25 49  1  0  0  0
 32 50  1  0  0  0
 33 51  1  0  0  0
 52 55  1  0  0  0
 52 56  1  0  0  0
 52 61  1  0  0  0
 52 62  1  0  0  0
 53 54  1  0  0  0
 53 58  2  0  0  0
 54 60  1  0  0  0
 54 63  1  0  0  0
 55 57  1  0  0  0
 55 64  1  0  0  0
 55 65  1  0  0  0
 56 66  1  0  0  0
 56 67  1  0  0  0
 57 58  1  0  0  0
 57 68  1  0  0  0
 57 69  1  0  0  0
 58 59  1  0  0  0
 59 60  2  0  0  0
 59 70  1  0  0  0
 60 71  1  0  0  0
M  CHG  1  52   1
M  END
> <s_m_entry_id>
432

> <s_m_entry_name>
000000274.1

> <s_m_Source_Path>
/Users/zaksoul/Documents/3r_UNI/2nd_SEMESTER/BSC/FRAG_RECON/RESULTS/2

> <s_m_Source_File>
000000274.mol2

> <i_m_Source_File_Index>
1

$$$$
No_0_292
                    3D
 Schrodinger Suite 2022-4.
 71 77  0  0  1  0            999 V2000
   -4.8840    3.7720  -21.8940 C   0  0  0  0  0  0
   -5.1630    3.9950  -23.2210 C   0  0  0  0  0  0
   -3.6420    3.5120  -21.5710 C   0  0  0  0  0  0
   -2.7710    3.6950  -23.7410 C   0  0  0  0  0  0
   -2.5970    3.4140  -22.3290 C   0  0  0  0  0  0
   -4.1240    3.9700  -24.2420 C   0  0  0  0  0  0
   -3.3890    4.0490  -26.4460 C   0  0  0  0  0  0
    6.3890    3.1910  -21.2920 C   0  0  0  0  0  0
    6.2270    3.3990  -23.8360 C   0  0  0  0  0  0
   -4.3880    4.1310  -25.5710 C   0  0  0  0  0  0
    2.4410    3.9430  -23.8030 C   0  0  0  0  0  0
    1.6220    5.0420  -23.4680 C   0  0  0  0  0  0
    3.4250    6.2220  -22.7740 C   0  0  0  0  0  0
    3.8440    4.1270  -23.4980 C   0  0  0  0  0  0
    1.8900    2.8420  -24.4880 C   0  0  0  0  0  0
   -0.2370    3.6500  -24.3370 C   0  0  0  0  0  0
    0.2940    4.8550  -23.7110 C   0  0  0  0  0  0
   -1.6930    3.6630  -24.6770 C   0  0  0  0  0  0
    4.4550    1.6230  -23.2770 C   0  0  0  0  0  0
    5.4000    1.2390  -22.1490 C   0  0  2  0  0  0
    6.9860    2.7950  -22.6600 C   0  0  2  0  0  0
    5.3920    2.2100  -20.9560 C   0  0  0  0  0  0
   -2.0320    3.8590  -26.0980 C   0  0  0  0  0  0
   -1.2470    2.9870  -21.7530 C   0  0  0  0  0  0
   -0.2110    2.6280  -21.2660 C   0  0  0  0  0  0
   -0.5450    5.8900  -23.3320 F   0  0  0  0  0  0
   -3.4190    3.2340  -20.1980 F   0  0  0  0  0  0
    2.1030    6.1870  -22.9110 N   0  0  0  0  0  0
    4.3210    5.2660  -23.0280 N   0  0  0  0  0  0
    0.5810    2.7590  -24.7840 N   0  0  0  0  0  0
    4.7620    3.0850  -23.7110 N   0  0  0  0  0  0
    6.8020    1.3200  -22.6430 N   0  0  1  0  0  0
   -3.5750    4.1000  -27.8330 O   0  0  0  0  0  0
   -5.6789    3.8152  -21.1583 H   0  0  0  0  0  0
   -6.1805    4.1977  -23.5351 H   0  0  0  0  0  0
    5.9166    4.1812  -21.3717 H   0  0  0  0  0  0
    7.1823    3.1819  -20.5300 H   0  0  0  0  0  0
    6.6129    2.9788  -24.7765 H   0  0  0  0  0  0
    6.3683    4.4899  -23.8421 H   0  0  0  0  0  0
   -5.4017    4.3237  -25.9032 H   0  0  0  0  0  0
    2.5274    2.0219  -24.7982 H   0  0  0  0  0  0
    3.4154    1.5564  -22.9237 H   0  0  0  0  0  0
    4.6105    0.9475  -24.1312 H   0  0  0  0  0  0
    5.1800    0.2177  -21.8048 H   0  0  0  0  0  0
    8.0538    3.0544  -22.7105 H   0  0  0  0  0  0
    4.4081    2.6974  -20.8904 H   0  0  0  0  0  0
    5.7018    1.6722  -20.0478 H   0  0  0  0  0  0
   -1.2690    3.8610  -26.8680 H   0  0  0  0  0  0
    0.7009    2.3110  -20.8381 H   0  0  0  0  0  0
    7.4563    0.8046  -21.9555 H   0  0  0  0  0  0
   -2.7341    4.0238  -28.2683 H   0  0  0  0  0  0
    4.6680    7.3910  -20.9400 N   0  3  0  0  0  0
    6.6360    9.0440  -23.4370 N   0  0  0  0  0  0
    6.4470    9.8360  -24.5220 N   0  0  0  0  0  0
    5.2300    8.6530  -20.3340 C   0  0  0  0  0  0
    3.9880    7.5490  -22.2760 C   0  0  0  0  0  0
    6.5710    9.1030  -20.9530 C   0  0  0  0  0  0
    6.4530    9.7200  -22.3310 C   0  0  0  0  0  0
    6.1230   11.0360  -22.6670 C   0  0  0  0  0  0
    6.1330   11.0480  -24.0020 C   0  0  0  0  0  0
    4.0268    6.9658  -20.2888 H   0  0  0  0  0  0
    5.4021    6.7049  -21.0200 H   0  0  0  0  0  0
    6.5569    9.4472  -25.4695 H   0  0  0  0  0  0
    5.3579    8.5121  -19.2506 H   0  0  0  0  0  0
    4.4931    9.4639  -20.4310 H   0  0  0  0  0  0
    4.7080    7.9400  -23.0100 H   0  0  0  0  0  0
    3.1723    8.2817  -22.1880 H   0  0  0  0  0  0
    7.2575    8.2446  -20.9970 H   0  0  0  0  0  0
    7.0651    9.8152  -20.2758 H   0  0  0  0  0  0
    5.9320   11.7630  -21.8860 H   0  0  0  0  0  0
    5.9270   11.8838  -24.6608 H   0  0  0  0  0  0
  1  2  2  0  0  0
  1  3  1  0  0  0
  1 34  1  0  0  0
  2  6  1  0  0  0
  2 35  1  0  0  0
  3  5  2  0  0  0
  3 27  1  0  0  0
  4  5  1  0  0  0
  4  6  2  0  0  0
  4 18  1  0  0  0
  5 24  1  0  0  0
  6 10  1  0  0  0
  7 10  2  0  0  0
  7 23  1  0  0  0
  7 33  1  0  0  0
  8 21  1  0  0  0
  8 22  1  0  0  0
  8 36  1  0  0  0
  8 37  1  0  0  0
  9 21  1  0  0  0
  9 31  1  0  0  0
  9 38  1  0  0  0
  9 39  1  0  0  0
 10 40  1  0  0  0
 11 12  1  0  0  0
 11 14  2  0  0  0
 11 15  1  0  0  0
 12 17  1  0  0  0
 12 28  2  0  0  0
 13 28  1  0  0  0
 13 29  2  0  0  0
 13 56  1  0  0  0
 14 29  1  0  0  0
 14 31  1  0  0  0
 15 30  2  0  0  0
 15 41  1  0  0  0
 16 17  2  0  0  0
 16 18  1  0  0  0
 16 30  1  0  0  0
 17 26  1  0  0  0
 18 23  2  0  0  0
 19 20  1  0  0  0
 19 31  1  0  0  0
 19 42  1  0  0  0
 19 43  1  0  0  0
 20 22  1  0  0  0
 20 32  1  0  0  0
 20 44  1  0  0  0
 21 32  1  0  0  0
 21 45  1  0  0  0
 22 46  1  0  0  0
 22 47  1  0  0  0
 23 48  1  0  0  0
 24 25  3  0  0  0
 25 49  1  0  0  0
 32 50  1  0  0  0
 33 51  1  0  0  0
 52 55  1  0  0  0
 52 56  1  0  0  0
 52 61  1  0  0  0
 52 62  1  0  0  0
 53 54  1  0  0  0
 53 58  2  0  0  0
 54 60  1  0  0  0
 54 63  1  0  0  0
 55 57  1  0  0  0
 55 64  1  0  0  0
 55 65  1  0  0  0
 56 66  1  0  0  0
 56 67  1  0  0  0
 57 58  1  0  0  0
 57 68  1  0  0  0
 57 69  1  0  0  0
 58 59  1  0  0  0
 59 60  2  0  0  0
 59 70  1  0  0  0
 60 71  1  0  0  0
M  CHG  1  52   1
M  END
> <s_m_entry_id>
433

> <s_m_entry_name>
000000275.1

> <s_m_Source_Path>
/Users/zaksoul/Documents/3r_UNI/2nd_SEMESTER/BSC/FRAG_RECON/RESULTS/2

> <s_m_Source_File>
000000275.mol2

> <i_m_Source_File_Index>
1

$$$$
No_0_293
                    3D
 Schrodinger Suite 2022-4.
 71 77  0  0  1  0            999 V2000
   -4.9910    3.6270  -22.1400 C   0  0  0  0  0  0
   -5.2500    3.8530  -23.4710 C   0  0  0  0  0  0
   -3.7510    3.3860  -21.7970 C   0  0  0  0  0  0
   -2.8450    3.5970  -23.9490 C   0  0  0  0  0  0
   -2.6910    3.3110  -22.5360 C   0  0  0  0  0  0
   -4.1930    3.8520  -24.4740 C   0  0  0  0  0  0
   -3.4200    3.9580  -26.6630 C   0  0  0  0  0  0
    6.2780    3.2340  -21.3390 C   0  0  0  0  0  0
    6.1570    3.4550  -23.8840 C   0  0  0  0  0  0
   -4.4350    4.0170  -25.8060 C   0  0  0  0  0  0
    2.3630    3.9340  -23.9170 C   0  0  0  0  0  0
    1.5190    5.0170  -23.5900 C   0  0  0  0  0  0
    3.2890    6.2230  -22.8560 C   0  0  0  0  0  0
    3.7570    4.1400  -23.5850 C   0  0  0  0  0  0
    1.8430    2.8290  -24.6180 C   0  0  0  0  0  0
   -0.3000    3.5990  -24.5000 C   0  0  0  0  0  0
    0.1990    4.8090  -23.8580 C   0  0  0  0  0  0
   -1.7500    3.5900  -24.8670 C   0  0  0  0  0  0
    4.4070    1.6460  -23.3680 C   0  0  0  0  0  0
    5.3380    1.2710  -22.2250 C   0  0  2  0  0  0
    6.9060    2.8570  -22.6980 C   0  0  2  0  0  0
    5.2920    2.2340  -21.0270 C   0  0  0  0  0  0
   -2.0660    3.7890  -26.2920 C   0  0  0  0  0  0
   -1.3440    2.9030  -21.9390 C   0  0  0  0  0  0
   -0.3110    2.5580  -21.4360 C   0  0  0  0  0  0
   -0.6640    5.8270  -23.4880 F   0  0  0  0  0  0
   -3.5470    3.1030  -20.4210 F   0  0  0  0  0  0
    1.9700    6.1670  -23.0170 N   0  0  0  0  0  0
    4.2050    5.2850  -23.0990 N   0  0  0  0  0  0
    0.5410    2.7250  -24.9370 N   0  0  0  0  0  0
    4.6960    3.1160  -23.7880 N   0  0  0  0  0  0
    6.7470    1.3790  -22.6930 N   0  0  1  0  0  0
   -3.5820    4.0140  -28.0530 O   0  0  0  0  0  0
   -5.8002    3.6521  -21.4192 H   0  0  0  0  0  0
   -6.2651    4.0398  -23.8023 H   0  0  0  0  0  0
    5.7895    4.2161  -21.4218 H   0  0  0  0  0  0
    7.0573    3.2340  -20.5627 H   0  0  0  0  0  0
    6.5679    3.0482  -24.8198 H   0  0  0  0  0  0
    6.2801    4.5481  -23.8810 H   0  0  0  0  0  0
   -5.4457    4.1946  -26.1553 H   0  0  0  0  0  0
    2.5001    2.0215  -24.9200 H   0  0  0  0  0  0
    3.3628    1.5592  -23.0331 H   0  0  0  0  0  0
    4.5887    0.9779  -24.2228 H   0  0  0  0  0  0
    5.1292    0.2439  -21.8911 H   0  0  0  0  0  0
    7.9697    3.1356  -22.7273 H   0  0  0  0  0  0
    4.2989    2.7043  -20.9765 H   0  0  0  0  0  0
    5.5936    1.6963  -20.1160 H   0  0  0  0  0  0
   -1.2901    3.8071  -27.0488 H   0  0  0  0  0  0
    0.5983    2.2549  -20.9928 H   0  0  0  0  0  0
    7.3981    0.8711  -21.9970 H   0  0  0  0  0  0
   -2.7326    3.9547  -28.4743 H   0  0  0  0  0  0
    4.6660    7.3710  -21.1060 N   0  3  0  0  0  0
    6.2060    9.3050  -23.7010 N   0  0  0  0  0  0
    5.8350   10.1430  -24.7020 N   0  0  0  0  0  0
    5.2130    8.6340  -20.4870 C   0  0  0  0  0  0
    3.8200    7.5570  -22.3410 C   0  0  0  0  0  0
    6.4370    9.2140  -21.2280 C   0  0  0  0  0  0
    6.1130    9.9010  -22.5390 C   0  0  0  0  0  0
    5.6600   11.2070  -22.7460 C   0  0  0  0  0  0
    5.5080   11.2970  -24.0690 C   0  0  0  0  0  0
    4.1369    6.8639  -20.4139 H   0  0  0  0  0  0
    5.4283    6.7458  -21.3161 H   0  0  0  0  0  0
    5.8550    9.8179  -25.6792 H   0  0  0  0  0  0
    5.4800    8.4390  -19.4379 H   0  0  0  0  0  0
    4.4185    9.3935  -20.4440 H   0  0  0  0  0  0
    4.4199    8.0409  -23.1258 H   0  0  0  0  0  0
    2.9750    8.2220  -22.1090 H   0  0  0  0  0  0
    7.1686    8.4123  -21.4071 H   0  0  0  0  0  0
    6.9610    9.9200  -20.5670 H   0  0  0  0  0  0
    5.5170   11.8709  -21.9011 H   0  0  0  0  0  0
    5.1700   12.1521  -24.6431 H   0  0  0  0  0  0
  1  2  2  0  0  0
  1  3  1  0  0  0
  1 34  1  0  0  0
  2  6  1  0  0  0
  2 35  1  0  0  0
  3  5  2  0  0  0
  3 27  1  0  0  0
  4  5  1  0  0  0
  4  6  2  0  0  0
  4 18  1  0  0  0
  5 24  1  0  0  0
  6 10  1  0  0  0
  7 10  2  0  0  0
  7 23  1  0  0  0
  7 33  1  0  0  0
  8 21  1  0  0  0
  8 22  1  0  0  0
  8 36  1  0  0  0
  8 37  1  0  0  0
  9 21  1  0  0  0
  9 31  1  0  0  0
  9 38  1  0  0  0
  9 39  1  0  0  0
 10 40  1  0  0  0
 11 12  1  0  0  0
 11 14  2  0  0  0
 11 15  1  0  0  0
 12 17  1  0  0  0
 12 28  2  0  0  0
 13 28  1  0  0  0
 13 29  2  0  0  0
 13 56  1  0  0  0
 14 29  1  0  0  0
 14 31  1  0  0  0
 15 30  2  0  0  0
 15 41  1  0  0  0
 16 17  2  0  0  0
 16 18  1  0  0  0
 16 30  1  0  0  0
 17 26  1  0  0  0
 18 23  2  0  0  0
 19 20  1  0  0  0
 19 31  1  0  0  0
 19 42  1  0  0  0
 19 43  1  0  0  0
 20 22  1  0  0  0
 20 32  1  0  0  0
 20 44  1  0  0  0
 21 32  1  0  0  0
 21 45  1  0  0  0
 22 46  1  0  0  0
 22 47  1  0  0  0
 23 48  1  0  0  0
 24 25  3  0  0  0
 25 49  1  0  0  0
 32 50  1  0  0  0
 33 51  1  0  0  0
 52 55  1  0  0  0
 52 56  1  0  0  0
 52 61  1  0  0  0
 52 62  1  0  0  0
 53 54  1  0  0  0
 53 58  2  0  0  0
 54 60  1  0  0  0
 54 63  1  0  0  0
 55 57  1  0  0  0
 55 64  1  0  0  0
 55 65  1  0  0  0
 56 66  1  0  0  0
 56 67  1  0  0  0
 57 58  1  0  0  0
 57 68  1  0  0  0
 57 69  1  0  0  0
 58 59  1  0  0  0
 59 60  2  0  0  0
 59 70  1  0  0  0
 60 71  1  0  0  0
M  CHG  1  52   1
M  END
> <s_m_entry_id>
434

> <s_m_entry_name>
000000276.1

> <s_m_Source_Path>
/Users/zaksoul/Documents/3r_UNI/2nd_SEMESTER/BSC/FRAG_RECON/RESULTS/2

> <s_m_Source_File>
000000276.mol2

> <i_m_Source_File_Index>
1

$$$$
No_0_294
                    3D
 Schrodinger Suite 2022-4.
 71 77  0  0  1  0            999 V2000
   -5.2620    3.6470  -21.8440 C   0  0  0  0  0  0
   -5.5100    3.8670  -23.1780 C   0  0  0  0  0  0
   -4.0270    3.3940  -21.4910 C   0  0  0  0  0  0
   -3.1050    3.5820  -23.6390 C   0  0  0  0  0  0
   -2.9630    3.3030  -22.2230 C   0  0  0  0  0  0
   -4.4460    3.8480  -24.1730 C   0  0  0  0  0  0
   -3.6590    3.9300  -26.3590 C   0  0  0  0  0  0
    5.9970    3.1340  -20.9680 C   0  0  0  0  0  0
    5.8950    3.3390  -23.5150 C   0  0  0  0  0  0
   -4.6790    4.0070  -25.5090 C   0  0  0  0  0  0
    2.1070    3.8600  -23.5750 C   0  0  0  0  0  0
    1.2730    4.9550  -23.2610 C   0  0  0  0  0  0
    3.0520    6.1460  -22.5240 C   0  0  0  0  0  0
    3.5010    4.0530  -23.2360 C   0  0  0  0  0  0
    1.5790    2.7560  -24.2720 C   0  0  0  0  0  0
   -0.5560    3.5510  -24.1730 C   0  0  0  0  0  0
   -0.0480    4.7600  -23.5360 C   0  0  0  0  0  0
   -2.0040    3.5550  -24.5490 C   0  0  0  0  0  0
    4.1210    1.5530  -22.9980 C   0  0  0  0  0  0
    5.0400    1.1750  -21.8470 C   0  0  2  0  0  0
    6.6290    2.7400  -22.3210 C   0  0  2  0  0  0
    4.9970    2.1470  -20.6550 C   0  0  0  0  0  0
   -2.3090    3.7490  -25.9770 C   0  0  0  0  0  0
   -1.6250    2.8840  -21.6150 C   0  0  0  0  0  0
   -0.5990    2.5310  -21.1020 C   0  0  0  0  0  0
   -0.9020    5.7900  -23.1780 F   0  0  0  0  0  0
   -3.8350    3.1190  -20.1120 F   0  0  0  0  0  0
    1.7330    6.1030  -22.6930 N   0  0  0  0  0  0
    3.9590    5.1960  -22.7550 N   0  0  0  0  0  0
    0.2780    2.6650  -24.5990 N   0  0  0  0  0  0
    4.4290    3.0160  -23.4260 N   0  0  0  0  0  0
    6.4530    1.2650  -22.3060 N   0  0  1  0  0  0
   -3.8110    3.9790  -27.7500 O   0  0  0  0  0  0
   -6.0746    3.6861  -21.1277 H   0  0  0  0  0  0
   -6.5209    4.0638  -23.5163 H   0  0  0  0  0  0
    5.5197    4.1208  -21.0598 H   0  0  0  0  0  0
    6.7713    3.1300  -20.1867 H   0  0  0  0  0  0
    6.3059    2.9210  -24.4458 H   0  0  0  0  0  0
    6.0302    4.4307  -23.5180 H   0  0  0  0  0  0
   -5.6856    4.1929  -25.8656 H   0  0  0  0  0  0
    2.2284    1.9390  -24.5651 H   0  0  0  0  0  0
    3.0735    1.4803  -22.6700 H   0  0  0  0  0  0
    4.3006    0.8779  -23.8477 H   0  0  0  0  0  0
    4.8180    0.1527  -21.5069 H   0  0  0  0  0  0
    7.6960    3.0065  -22.3452 H   0  0  0  0  0  0
    4.0094    2.6297  -20.6146 H   0  0  0  0  0  0
    5.2876    1.6122  -19.7388 H   0  0  0  0  0  0
   -1.5281    3.7540  -26.7288 H   0  0  0  0  0  0
    0.3041    2.2210  -20.6510 H   0  0  0  0  0  0
    7.0942    0.7542  -21.6029 H   0  0  0  0  0  0
   -2.9592    3.9078  -28.1645 H   0  0  0  0  0  0
    4.6010    7.2730  -20.9110 N   0  3  0  0  0  0
    5.7120    9.3900  -23.5800 N   0  0  0  0  0  0
    5.1810   10.2550  -24.4800 N   0  0  0  0  0  0
    5.1760    8.5290  -20.3040 C   0  0  0  0  0  0
    3.5940    7.4770  -22.0140 C   0  0  0  0  0  0
    6.2690    9.1970  -21.1660 C   0  0  0  0  0  0
    5.7500    9.9270  -22.3870 C   0  0  0  0  0  0
    5.2240   11.2200  -22.4660 C   0  0  0  0  0  0
    4.8960   11.3630  -23.7530 C   0  0  0  0  0  0
    4.1881    6.7111  -20.1831 H   0  0  0  0  0  0
    5.3530    6.6930  -21.2490 H   0  0  0  0  0  0
    5.0850    9.9770  -25.4671 H   0  0  0  0  0  0
    5.5858    8.2991  -19.3094 H   0  0  0  0  0  0
    4.3661    9.2500  -20.1190 H   0  0  0  0  0  0
    4.0663    8.0223  -22.8444 H   0  0  0  0  0  0
    2.7623    8.0928  -21.6411 H   0  0  0  0  0  0
    7.0010    8.4380  -21.4790 H   0  0  0  0  0  0
    6.8486    9.8945  -20.5434 H   0  0  0  0  0  0
    5.1680   11.8384  -21.5774 H   0  0  0  0  0  0
    4.4530   12.2281  -24.2330 H   0  0  0  0  0  0
  1  2  2  0  0  0
  1  3  1  0  0  0
  1 34  1  0  0  0
  2  6  1  0  0  0
  2 35  1  0  0  0
  3  5  2  0  0  0
  3 27  1  0  0  0
  4  5  1  0  0  0
  4  6  2  0  0  0
  4 18  1  0  0  0
  5 24  1  0  0  0
  6 10  1  0  0  0
  7 10  2  0  0  0
  7 23  1  0  0  0
  7 33  1  0  0  0
  8 21  1  0  0  0
  8 22  1  0  0  0
  8 36  1  0  0  0
  8 37  1  0  0  0
  9 21  1  0  0  0
  9 31  1  0  0  0
  9 38  1  0  0  0
  9 39  1  0  0  0
 10 40  1  0  0  0
 11 12  1  0  0  0
 11 14  2  0  0  0
 11 15  1  0  0  0
 12 17  1  0  0  0
 12 28  2  0  0  0
 13 28  1  0  0  0
 13 29  2  0  0  0
 13 56  1  0  0  0
 14 29  1  0  0  0
 14 31  1  0  0  0
 15 30  2  0  0  0
 15 41  1  0  0  0
 16 17  2  0  0  0
 16 18  1  0  0  0
 16 30  1  0  0  0
 17 26  1  0  0  0
 18 23  2  0  0  0
 19 20  1  0  0  0
 19 31  1  0  0  0
 19 42  1  0  0  0
 19 43  1  0  0  0
 20 22  1  0  0  0
 20 32  1  0  0  0
 20 44  1  0  0  0
 21 32  1  0  0  0
 21 45  1  0  0  0
 22 46  1  0  0  0
 22 47  1  0  0  0
 23 48  1  0  0  0
 24 25  3  0  0  0
 25 49  1  0  0  0
 32 50  1  0  0  0
 33 51  1  0  0  0
 52 55  1  0  0  0
 52 56  1  0  0  0
 52 61  1  0  0  0
 52 62  1  0  0  0
 53 54  1  0  0  0
 53 58  2  0  0  0
 54 60  1  0  0  0
 54 63  1  0  0  0
 55 57  1  0  0  0
 55 64  1  0  0  0
 55 65  1  0  0  0
 56 66  1  0  0  0
 56 67  1  0  0  0
 57 58  1  0  0  0
 57 68  1  0  0  0
 57 69  1  0  0  0
 58 59  1  0  0  0
 59 60  2  0  0  0
 59 70  1  0  0  0
 60 71  1  0  0  0
M  CHG  1  52   1
M  END
> <s_m_entry_id>
435

> <s_m_entry_name>
000000277.1

> <s_m_Source_Path>
/Users/zaksoul/Documents/3r_UNI/2nd_SEMESTER/BSC/FRAG_RECON/RESULTS/2

> <s_m_Source_File>
000000277.mol2

> <i_m_Source_File_Index>
1

$$$$
No_0_295
                    3D
 Schrodinger Suite 2022-4.
 73 79  0  0  1  0            999 V2000
   -5.1810    3.6090  -21.8530 C   0  0  0  0  0  0
   -5.4520    3.8050  -23.1860 C   0  0  0  0  0  0
   -3.9420    3.3510  -21.5190 C   0  0  0  0  0  0
   -3.0590    3.4860  -23.6870 C   0  0  0  0  0  0
   -2.8930    3.2340  -22.2690 C   0  0  0  0  0  0
   -4.4090    3.7540  -24.2010 C   0  0  0  0  0  0
   -3.6630    3.7850  -26.4030 C   0  0  0  0  0  0
    6.0870    3.0010  -21.1820 C   0  0  0  0  0  0
    5.9380    3.1560  -23.7310 C   0  0  0  0  0  0
   -4.6650    3.8890  -25.5350 C   0  0  0  0  0  0
    2.1540    3.7130  -23.7290 C   0  0  0  0  0  0
    1.3370    4.8230  -23.4210 C   0  0  0  0  0  0
    3.1410    6.0110  -22.7430 C   0  0  0  0  0  0
    3.5570    3.8990  -23.4210 C   0  0  0  0  0  0
    1.6030    2.6010  -24.3930 C   0  0  0  0  0  0
   -0.5220    3.4190  -24.2700 C   0  0  0  0  0  0
    0.0100    4.6350  -23.6670 C   0  0  0  0  0  0
   -1.9770    3.4300  -24.6180 C   0  0  0  0  0  0
    4.1570    1.3990  -23.1440 C   0  0  0  0  0  0
    5.0950    1.0350  -22.0030 C   0  0  2  0  0  0
    6.6890    2.5740  -22.5390 C   0  0  2  0  0  0
    5.0840    2.0310  -20.8310 C   0  0  0  0  0  0
   -2.3080    3.5970  -26.0440 C   0  0  0  0  0  0
   -1.5470    2.8150  -21.6780 C   0  0  0  0  0  0
   -0.5150    2.4620  -21.1780 C   0  0  0  0  0  0
   -0.8280    5.6800  -23.3140 F   0  0  0  0  0  0
   -3.7260    3.1020  -20.1390 F   0  0  0  0  0  0
    1.8200    5.9780  -22.8860 N   0  0  0  0  0  0
    4.0350    5.0470  -22.9720 N   0  0  0  0  0  0
    0.2950    2.5160  -24.6930 N   0  0  0  0  0  0
    4.4710    2.8500  -23.6070 N   0  0  0  0  0  0
    6.5000    1.1010  -22.4910 N   0  0  1  0  0  0
   -3.8410    3.8060  -27.7920 O   0  0  0  0  0  0
   -5.9796    3.6712  -21.1226 H   0  0  0  0  0  0
   -6.4675    4.0037  -23.5091 H   0  0  0  0  0  0
    5.6179    3.9906  -21.2849 H   0  0  0  0  0  0
    6.8763    3.0060  -20.4159 H   0  0  0  0  0  0
    6.3275    2.7150  -24.6604 H   0  0  0  0  0  0
    6.0833    4.2460  -23.7593 H   0  0  0  0  0  0
   -5.6765    4.0776  -25.8762 H   0  0  0  0  0  0
    2.2385    1.7718  -24.6821 H   0  0  0  0  0  0
    3.1157    1.3435  -22.7939 H   0  0  0  0  0  0
    4.3144    0.7047  -23.9826 H   0  0  0  0  0  0
    4.8700    0.0218  -21.6387 H   0  0  0  0  0  0
    7.7578    2.8293  -22.5885 H   0  0  0  0  0  0
    4.1018    2.5236  -20.7805 H   0  0  0  0  0  0
    5.3877    1.5123  -19.9097 H   0  0  0  0  0  0
   -1.5411    3.5789  -26.8099 H   0  0  0  0  0  0
    0.3934    2.1519  -20.7378 H   0  0  0  0  0  0
    7.1492    0.5983  -21.7894 H   0  0  0  0  0  0
   -2.9984    3.7179  -28.2217 H   0  0  0  0  0  0
    4.3760    7.2030  -20.9310 N   0  3  0  0  0  0
    9.1310    8.9690  -20.4720 N   0  0  0  0  0  0
    7.4170    7.7060  -20.9420 N   0  0  0  0  0  0
    8.0260    9.7560  -20.4470 N   0  0  0  0  0  0
    4.5700    8.4850  -20.1640 C   0  0  0  0  0  0
    3.7060    7.3460  -22.2710 C   0  0  0  0  0  0
    5.5850    9.4470  -20.8130 C   0  0  0  0  0  0
    7.0220    8.9770  -20.7310 C   0  0  0  0  0  0
    8.7260    7.7140  -20.7760 C   0  0  0  0  0  0
   10.4870    9.4460  -20.1860 C   0  0  0  0  0  0
    3.8531    6.5531  -20.3651 H   0  0  0  0  0  0
    5.2674    6.7478  -21.0501 H   0  0  0  0  0  0
    4.8922    8.2519  -19.1384 H   0  0  0  0  0  0
    3.6016    8.9952  -20.0550 H   0  0  0  0  0  0
    4.4350    7.7160  -23.0070 H   0  0  0  0  0  0
    2.8924    8.0826  -22.1970 H   0  0  0  0  0  0
    5.4981   10.4383  -20.3443 H   0  0  0  0  0  0
    5.3129    9.6081  -21.8666 H   0  0  0  0  0  0
    9.4530    6.9130  -20.8460 H   0  0  0  0  0  0
   11.1961    8.6098  -20.2750 H   0  0  0  0  0  0
   10.7582   10.2345  -20.9035 H   0  0  0  0  0  0
   10.5250    9.8510  -19.1640 H   0  0  0  0  0  0
  1  2  2  0  0  0
  1  3  1  0  0  0
  1 34  1  0  0  0
  2  6  1  0  0  0
  2 35  1  0  0  0
  3  5  2  0  0  0
  3 27  1  0  0  0
  4  5  1  0  0  0
  4  6  2  0  0  0
  4 18  1  0  0  0
  5 24  1  0  0  0
  6 10  1  0  0  0
  7 10  2  0  0  0
  7 23  1  0  0  0
  7 33  1  0  0  0
  8 21  1  0  0  0
  8 22  1  0  0  0
  8 36  1  0  0  0
  8 37  1  0  0  0
  9 21  1  0  0  0
  9 31  1  0  0  0
  9 38  1  0  0  0
  9 39  1  0  0  0
 10 40  1  0  0  0
 11 12  1  0  0  0
 11 14  2  0  0  0
 11 15  1  0  0  0
 12 17  1  0  0  0
 12 28  2  0  0  0
 13 28  1  0  0  0
 13 29  2  0  0  0
 13 57  1  0  0  0
 14 29  1  0  0  0
 14 31  1  0  0  0
 15 30  2  0  0  0
 15 41  1  0  0  0
 16 17  2  0  0  0
 16 18  1  0  0  0
 16 30  1  0  0  0
 17 26  1  0  0  0
 18 23  2  0  0  0
 19 20  1  0  0  0
 19 31  1  0  0  0
 19 42  1  0  0  0
 19 43  1  0  0  0
 20 22  1  0  0  0
 20 32  1  0  0  0
 20 44  1  0  0  0
 21 32  1  0  0  0
 21 45  1  0  0  0
 22 46  1  0  0  0
 22 47  1  0  0  0
 23 48  1  0  0  0
 24 25  3  0  0  0
 25 49  1  0  0  0
 32 50  1  0  0  0
 33 51  1  0  0  0
 52 56  1  0  0  0
 52 57  1  0  0  0
 52 62  1  0  0  0
 52 63  1  0  0  0
 53 55  1  0  0  0
 53 60  1  0  0  0
 53 61  1  0  0  0
 54 59  1  0  0  0
 54 60  2  0  0  0
 55 59  2  0  0  0
 56 58  1  0  0  0
 56 64  1  0  0  0
 56 65  1  0  0  0
 57 66  1  0  0  0
 57 67  1  0  0  0
 58 59  1  0  0  0
 58 68  1  0  0  0
 58 69  1  0  0  0
 60 70  1  0  0  0
 61 71  1  0  0  0
 61 72  1  0  0  0
 61 73  1  0  0  0
M  CHG  1  52   1
M  END
> <s_m_entry_id>
436

> <s_m_entry_name>
000000278.1

> <s_m_Source_Path>
/Users/zaksoul/Documents/3r_UNI/2nd_SEMESTER/BSC/FRAG_RECON/RESULTS/2

> <s_m_Source_File>
000000278.mol2

> <i_m_Source_File_Index>
1

$$$$
No_0_296
                    3D
 Schrodinger Suite 2022-4.
 74 80  0  0  1  0            999 V2000
   -4.8730    3.7490  -21.9100 C   0  0  0  0  0  0
   -5.1640    3.9490  -23.2380 C   0  0  0  0  0  0
   -3.6290    3.4930  -21.5940 C   0  0  0  0  0  0
   -2.7770    3.6400  -23.7740 C   0  0  0  0  0  0
   -2.5910    3.3830  -22.3580 C   0  0  0  0  0  0
   -4.1340    3.9070  -24.2680 C   0  0  0  0  0  0
   -3.4180    3.9490  -26.4790 C   0  0  0  0  0  0
    6.4040    3.1750  -21.3960 C   0  0  0  0  0  0
    6.2200    3.3400  -23.9410 C   0  0  0  0  0  0
   -4.4090    4.0460  -25.5970 C   0  0  0  0  0  0
    2.4350    3.8850  -23.8850 C   0  0  0  0  0  0
    1.6190    4.9900  -23.5610 C   0  0  0  0  0  0
    3.4280    6.1810  -22.9030 C   0  0  0  0  0  0
    3.8410    4.0740  -23.5960 C   0  0  0  0  0  0
    1.8780    2.7740  -24.5470 C   0  0  0  0  0  0
   -0.2480    3.5840  -24.3910 C   0  0  0  0  0  0
    0.2890    4.7990  -23.7900 C   0  0  0  0  0  0
   -1.7070    3.5920  -24.7190 C   0  0  0  0  0  0
    4.4530    1.5740  -23.3380 C   0  0  0  0  0  0
    5.4080    1.2090  -22.2120 C   0  0  2  0  0  0
    6.9900    2.7560  -22.7620 C   0  0  2  0  0  0
    5.4100    2.1990  -21.0350 C   0  0  0  0  0  0
   -2.0580    3.7650  -26.1390 C   0  0  0  0  0  0
   -1.2350    2.9650  -21.7880 C   0  0  0  0  0  0
   -0.1960    2.6140  -21.3040 C   0  0  0  0  0  0
   -0.5470    5.8410  -23.4210 F   0  0  0  0  0  0
   -3.3940    3.2380  -20.2180 F   0  0  0  0  0  0
    2.1050    6.1450  -23.0280 N   0  0  0  0  0  0
    4.3210    5.2210  -23.1480 N   0  0  0  0  0  0
    0.5660    2.6860  -24.8300 N   0  0  0  0  0  0
    4.7560    3.0290  -23.7990 N   0  0  0  0  0  0
    6.8050    1.2820  -22.7190 N   0  0  1  0  0  0
   -3.6160    3.9770  -27.8650 O   0  0  0  0  0  0
   -5.6617    3.8042  -21.1684 H   0  0  0  0  0  0
   -6.1842    4.1468  -23.5463 H   0  0  0  0  0  0
    5.9304    4.1636  -21.4879 H   0  0  0  0  0  0
    7.2042    3.1780  -20.6412 H   0  0  0  0  0  0
    6.5976    2.9048  -24.8780 H   0  0  0  0  0  0
    6.3612    4.4306  -23.9662 H   0  0  0  0  0  0
   -5.4256    4.2337  -25.9232 H   0  0  0  0  0  0
    2.5122    1.9481  -24.8481 H   0  0  0  0  0  0
    3.4168    1.5135  -22.9738 H   0  0  0  0  0  0
    4.6004    0.8843  -24.1822 H   0  0  0  0  0  0
    5.1912    0.1935  -21.8490 H   0  0  0  0  0  0
    8.0573    3.0145  -22.8256 H   0  0  0  0  0  0
    4.4271    2.6884  -20.9694 H   0  0  0  0  0  0
    5.7271    1.6770  -20.1202 H   0  0  0  0  0  0
   -1.3022    3.7530  -26.9159 H   0  0  0  0  0  0
    0.7194    2.3042  -20.8783 H   0  0  0  0  0  0
    7.4652    0.7778  -22.0289 H   0  0  0  0  0  0
   -2.7789    3.8939  -28.3063 H   0  0  0  0  0  0
    3.3940    7.9290  -21.1150 N   0  3  0  0  0  0
    6.2650    9.3290  -20.9130 N   0  0  0  0  0  0
    6.8120    8.1860  -21.3900 N   0  0  0  0  0  0
    3.7580    9.3070  -20.6230 C   0  0  0  0  0  0
    3.9950    7.5160  -22.4320 C   0  0  0  0  0  0
    5.1490    9.3790  -19.9620 C   0  0  0  0  0  0
    6.9660   10.3370  -21.4970 C   0  0  0  0  0  0
    7.7830    8.4720  -22.2170 C   0  0  0  0  0  0
    7.9140    9.8600  -22.3110 C   0  0  0  0  0  0
    6.6900   11.8050  -21.2370 C   0  0  0  0  0  0
    2.3906    7.8480  -21.1670 H   0  0  0  0  0  0
    3.6388    7.2497  -20.4117 H   0  0  0  0  0  0
    2.9963    9.6519  -19.9083 H   0  0  0  0  0  0
    3.7160   10.0171  -21.4621 H   0  0  0  0  0  0
    5.0869    7.4340  -22.3270 H   0  0  0  0  0  0
    3.7871    8.2887  -23.1867 H   0  0  0  0  0  0
    5.2210   10.2981  -19.3619 H   0  0  0  0  0  0
    5.2510    8.5580  -19.2370 H   0  0  0  0  0  0
    8.3358    7.6743  -22.6998 H   0  0  0  0  0  0
    8.5579   10.5439  -22.8519 H   0  0  0  0  0  0
    7.3874   12.4194  -21.8254 H   0  0  0  0  0  0
    5.6563   12.0409  -21.5299 H   0  0  0  0  0  0
    6.8251   12.0191  -20.1665 H   0  0  0  0  0  0
  1  2  2  0  0  0
  1  3  1  0  0  0
  1 34  1  0  0  0
  2  6  1  0  0  0
  2 35  1  0  0  0
  3  5  2  0  0  0
  3 27  1  0  0  0
  4  5  1  0  0  0
  4  6  2  0  0  0
  4 18  1  0  0  0
  5 24  1  0  0  0
  6 10  1  0  0  0
  7 10  2  0  0  0
  7 23  1  0  0  0
  7 33  1  0  0  0
  8 21  1  0  0  0
  8 22  1  0  0  0
  8 36  1  0  0  0
  8 37  1  0  0  0
  9 21  1  0  0  0
  9 31  1  0  0  0
  9 38  1  0  0  0
  9 39  1  0  0  0
 10 40  1  0  0  0
 11 12  1  0  0  0
 11 14  2  0  0  0
 11 15  1  0  0  0
 12 17  1  0  0  0
 12 28  2  0  0  0
 13 28  1  0  0  0
 13 29  2  0  0  0
 13 56  1  0  0  0
 14 29  1  0  0  0
 14 31  1  0  0  0
 15 30  2  0  0  0
 15 41  1  0  0  0
 16 17  2  0  0  0
 16 18  1  0  0  0
 16 30  1  0  0  0
 17 26  1  0  0  0
 18 23  2  0  0  0
 19 20  1  0  0  0
 19 31  1  0  0  0
 19 42  1  0  0  0
 19 43  1  0  0  0
 20 22  1  0  0  0
 20 32  1  0  0  0
 20 44  1  0  0  0
 21 32  1  0  0  0
 21 45  1  0  0  0
 22 46  1  0  0  0
 22 47  1  0  0  0
 23 48  1  0  0  0
 24 25  3  0  0  0
 25 49  1  0  0  0
 32 50  1  0  0  0
 33 51  1  0  0  0
 52 55  1  0  0  0
 52 56  1  0  0  0
 52 62  1  0  0  0
 52 63  1  0  0  0
 53 54  1  0  0  0
 53 57  1  0  0  0
 53 58  1  0  0  0
 54 59  2  0  0  0
 55 57  1  0  0  0
 55 64  1  0  0  0
 55 65  1  0  0  0
 56 66  1  0  0  0
 56 67  1  0  0  0
 57 68  1  0  0  0
 57 69  1  0  0  0
 58 60  2  0  0  0
 58 61  1  0  0  0
 59 60  1  0  0  0
 59 70  1  0  0  0
 60 71  1  0  0  0
 61 72  1  0  0  0
 61 73  1  0  0  0
 61 74  1  0  0  0
M  CHG  1  52   1
M  END
> <s_m_entry_id>
437

> <s_m_entry_name>
000000279.1

> <s_m_Source_Path>
/Users/zaksoul/Documents/3r_UNI/2nd_SEMESTER/BSC/FRAG_RECON/RESULTS/2

> <s_m_Source_File>
000000279.mol2

> <i_m_Source_File_Index>
1

$$$$
No_0_297
                    3D
 Schrodinger Suite 2022-4.
 74 80  0  0  1  0            999 V2000
   -5.1230    3.5570  -22.1330 C   0  0  0  0  0  0
   -5.3810    3.7420  -23.4710 C   0  0  0  0  0  0
   -3.8900    3.2900  -21.7850 C   0  0  0  0  0  0
   -2.9870    3.3950  -23.9470 C   0  0  0  0  0  0
   -2.8360    3.1550  -22.5250 C   0  0  0  0  0  0
   -4.3290    3.6710  -24.4760 C   0  0  0  0  0  0
   -3.5630    3.6720  -26.6710 C   0  0  0  0  0  0
    6.1310    2.8440  -21.3560 C   0  0  0  0  0  0
    6.0060    2.9750  -23.9070 C   0  0  0  0  0  0
   -4.5720    3.7950  -25.8130 C   0  0  0  0  0  0
    2.2290    3.5700  -23.9440 C   0  0  0  0  0  0
    1.4200    4.6900  -23.6550 C   0  0  0  0  0  0
    3.2300    5.8670  -22.9720 C   0  0  0  0  0  0
    3.6300    3.7450  -23.6260 C   0  0  0  0  0  0
    1.6720    2.4560  -24.6030 C   0  0  0  0  0  0
   -0.4460    3.2970  -24.5060 C   0  0  0  0  0  0
    0.0930    4.5130  -23.9110 C   0  0  0  0  0  0
   -1.8970    3.3190  -24.8670 C   0  0  0  0  0  0
    4.2030    1.2410  -23.3180 C   0  0  0  0  0  0
    5.1270    0.8800  -22.1650 C   0  0  2  0  0  0
    6.7410    2.3980  -22.7020 C   0  0  2  0  0  0
    5.1160    1.8870  -21.0040 C   0  0  0  0  0  0
   -2.2140    3.4750  -26.2980 C   0  0  0  0  0  0
   -1.5000    2.7280  -21.9180 C   0  0  0  0  0  0
   -0.4760    2.3710  -21.4050 C   0  0  0  0  0  0
   -0.7370    5.5710  -23.5760 F   0  0  0  0  0  0
   -3.6890    3.0520  -20.4010 F   0  0  0  0  0  0
    1.9090    5.8460  -23.1270 N   0  0  0  0  0  0
    4.1160    4.8920  -23.1840 N   0  0  0  0  0  0
    0.3660    2.3810  -24.9140 N   0  0  0  0  0  0
    4.5360    2.6850  -23.7930 N   0  0  0  0  0  0
    6.5370    0.9270  -22.6420 N   0  0  1  0  0  0
   -3.7300    3.6820  -28.0610 O   0  0  0  0  0  0
   -5.9276    3.6342  -21.4107 H   0  0  0  0  0  0
   -6.3913    3.9487  -23.8051 H   0  0  0  0  0  0
    5.6736    3.8375  -21.4731 H   0  0  0  0  0  0
    6.9138    2.8480  -20.5832 H   0  0  0  0  0  0
    6.3996    2.5209  -24.8284 H   0  0  0  0  0  0
    6.1635    4.0630  -23.9443 H   0  0  0  0  0  0
   -5.5784    3.9907  -26.1652 H   0  0  0  0  0  0
    2.3017    1.6174  -24.8772 H   0  0  0  0  0  0
    3.1581    1.1996  -22.9768 H   0  0  0  0  0  0
    4.3604    0.5368  -24.1483 H   0  0  0  0  0  0
    4.8889   -0.1277  -21.7938 H   0  0  0  0  0  0
    7.8129    2.6412  -22.7454 H   0  0  0  0  0  0
    4.1386    2.3903  -20.9667 H   0  0  0  0  0  0
    5.4056    1.3745  -20.0748 H   0  0  0  0  0  0
   -1.4409    3.4419  -27.0571 H   0  0  0  0  0  0
    0.4250    2.0550  -20.9540 H   0  0  0  0  0  0
    7.1744    0.4243  -21.9297 H   0  0  0  0  0  0
   -2.8845    3.5811  -28.4823 H   0  0  0  0  0  0
    3.4670    7.4660  -21.0650 N   0  3  0  0  0  0
    6.2310    9.0590  -21.3220 N   0  0  0  0  0  0
    6.7330    8.0000  -22.0010 N   0  0  0  0  0  0
    3.8440    8.8270  -20.5350 C   0  0  0  0  0  0
    3.8040    7.2010  -22.5080 C   0  0  0  0  0  0
    5.3360    8.9520  -20.1650 C   0  0  0  0  0  0
    6.7360   10.1570  -21.9440 C   0  0  0  0  0  0
    7.4930    8.4190  -22.9780 C   0  0  0  0  0  0
    7.5200    9.8160  -22.9710 C   0  0  0  0  0  0
    6.4350   11.5760  -21.5020 C   0  0  0  0  0  0
    2.4808    7.3150  -20.9210 H   0  0  0  0  0  0
    3.8911    6.7559  -20.4889 H   0  0  0  0  0  0
    3.2285    9.0592  -19.6533 H   0  0  0  0  0  0
    3.5879    9.5934  -21.2814 H   0  0  0  0  0  0
    4.8967    7.1930  -22.6340 H   0  0  0  0  0  0
    3.4000    8.0110  -23.1330 H   0  0  0  0  0  0
    5.4770    9.8268  -19.5132 H   0  0  0  0  0  0
    5.6332    8.0886  -19.5517 H   0  0  0  0  0  0
    7.9790    7.7040  -23.6320 H   0  0  0  0  0  0
    7.9966   10.5854  -23.5675 H   0  0  0  0  0  0
    6.9587   12.2846  -22.1606 H   0  0  0  0  0  0
    5.3515   11.7571  -21.5590 H   0  0  0  0  0  0
    6.7769   11.7190  -20.4663 H   0  0  0  0  0  0
  1  2  2  0  0  0
  1  3  1  0  0  0
  1 34  1  0  0  0
  2  6  1  0  0  0
  2 35  1  0  0  0
  3  5  2  0  0  0
  3 27  1  0  0  0
  4  5  1  0  0  0
  4  6  2  0  0  0
  4 18  1  0  0  0
  5 24  1  0  0  0
  6 10  1  0  0  0
  7 10  2  0  0  0
  7 23  1  0  0  0
  7 33  1  0  0  0
  8 21  1  0  0  0
  8 22  1  0  0  0
  8 36  1  0  0  0
  8 37  1  0  0  0
  9 21  1  0  0  0
  9 31  1  0  0  0
  9 38  1  0  0  0
  9 39  1  0  0  0
 10 40  1  0  0  0
 11 12  1  0  0  0
 11 14  2  0  0  0
 11 15  1  0  0  0
 12 17  1  0  0  0
 12 28  2  0  0  0
 13 28  1  0  0  0
 13 29  2  0  0  0
 13 56  1  0  0  0
 14 29  1  0  0  0
 14 31  1  0  0  0
 15 30  2  0  0  0
 15 41  1  0  0  0
 16 17  2  0  0  0
 16 18  1  0  0  0
 16 30  1  0  0  0
 17 26  1  0  0  0
 18 23  2  0  0  0
 19 20  1  0  0  0
 19 31  1  0  0  0
 19 42  1  0  0  0
 19 43  1  0  0  0
 20 22  1  0  0  0
 20 32  1  0  0  0
 20 44  1  0  0  0
 21 32  1  0  0  0
 21 45  1  0  0  0
 22 46  1  0  0  0
 22 47  1  0  0  0
 23 48  1  0  0  0
 24 25  3  0  0  0
 25 49  1  0  0  0
 32 50  1  0  0  0
 33 51  1  0  0  0
 52 55  1  0  0  0
 52 56  1  0  0  0
 52 62  1  0  0  0
 52 63  1  0  0  0
 53 54  1  0  0  0
 53 57  1  0  0  0
 53 58  1  0  0  0
 54 59  2  0  0  0
 55 57  1  0  0  0
 55 64  1  0  0  0
 55 65  1  0  0  0
 56 66  1  0  0  0
 56 67  1  0  0  0
 57 68  1  0  0  0
 57 69  1  0  0  0
 58 60  2  0  0  0
 58 61  1  0  0  0
 59 60  1  0  0  0
 59 70  1  0  0  0
 60 71  1  0  0  0
 61 72  1  0  0  0
 61 73  1  0  0  0
 61 74  1  0  0  0
M  CHG  1  52   1
M  END
> <s_m_entry_id>
438

> <s_m_entry_name>
000000280.1

> <s_m_Source_Path>
/Users/zaksoul/Documents/3r_UNI/2nd_SEMESTER/BSC/FRAG_RECON/RESULTS/2

> <s_m_Source_File>
000000280.mol2

> <i_m_Source_File_Index>
1

$$$$
No_0_298
                    3D
 Schrodinger Suite 2022-4.
 74 80  0  0  1  0            999 V2000
   -5.3080    3.6420  -21.7950 C   0  0  0  0  0  0
   -5.5930    3.7880  -23.1320 C   0  0  0  0  0  0
   -4.0650    3.4000  -21.4630 C   0  0  0  0  0  0
   -3.2040    3.4570  -23.6440 C   0  0  0  0  0  0
   -3.0240    3.2580  -22.2190 C   0  0  0  0  0  0
   -4.5590    3.7020  -24.1540 C   0  0  0  0  0  0
   -3.8350    3.6540  -26.3620 C   0  0  0  0  0  0
    5.9680    3.0900  -21.2140 C   0  0  0  0  0  0
    5.7930    3.1510  -23.7640 C   0  0  0  0  0  0
   -4.8290    3.7870  -25.4890 C   0  0  0  0  0  0
    2.0080    3.6970  -23.7460 C   0  0  0  0  0  0
    1.1910    4.8150  -23.4710 C   0  0  0  0  0  0
    2.9980    6.0320  -22.8550 C   0  0  0  0  0  0
    3.4130    3.8980  -23.4590 C   0  0  0  0  0  0
    1.4530    2.5590  -24.3630 C   0  0  0  0  0  0
   -0.6730    3.3760  -24.2490 C   0  0  0  0  0  0
   -0.1390    4.6150  -23.6970 C   0  0  0  0  0  0
   -2.1310    3.3700  -24.5830 C   0  0  0  0  0  0
    4.0240    1.4110  -23.0950 C   0  0  0  0  0  0
    4.9740    1.0920  -21.9510 C   0  0  2  0  0  0
    6.5580    2.6150  -22.5590 C   0  0  2  0  0  0
    4.9720    2.1310  -20.8170 C   0  0  0  0  0  0
   -2.4760    3.4830  -26.0100 C   0  0  0  0  0  0
   -1.6710    2.8650  -21.6260 C   0  0  0  0  0  0
   -0.6330    2.5330  -21.1240 C   0  0  0  0  0  0
   -0.9760    5.6700  -23.3740 F   0  0  0  0  0  0
   -3.8350    3.2020  -20.0770 F   0  0  0  0  0  0
    1.6740    5.9900  -22.9840 N   0  0  0  0  0  0
    3.8910    5.0630  -23.0570 N   0  0  0  0  0  0
    0.1430    2.4600  -24.6470 N   0  0  0  0  0  0
    4.3290    2.8450  -23.6150 N   0  0  0  0  0  0
    6.3730    1.1440  -22.4550 N   0  0  1  0  0  0
   -4.0280    3.6240  -27.7490 O   0  0  0  0  0  0
   -6.0996    3.7283  -21.0595 H   0  0  0  0  0  0
   -6.6126    3.9716  -23.4511 H   0  0  0  0  0  0
    5.4947    4.0739  -21.3482 H   0  0  0  0  0  0
    6.7644    3.1253  -20.4560 H   0  0  0  0  0  0
    6.1744    2.6767  -24.6803 H   0  0  0  0  0  0
    5.9344    4.2396  -23.8347 H   0  0  0  0  0  0
   -5.8442    3.9605  -25.8271 H   0  0  0  0  0  0
    2.0886    1.7216  -24.6271 H   0  0  0  0  0  0
    2.9860    1.3656  -22.7339 H   0  0  0  0  0  0
    4.1743    0.6867  -23.9091 H   0  0  0  0  0  0
    4.7549    0.0925  -21.5472 H   0  0  0  0  0  0
    7.6254    2.8713  -22.6296 H   0  0  0  0  0  0
    3.9887    2.6222  -20.7746 H   0  0  0  0  0  0
    5.2847    1.6469  -19.8800 H   0  0  0  0  0  0
   -1.7172    3.4398  -26.7829 H   0  0  0  0  0  0
    0.2809    2.2420  -20.6821 H   0  0  0  0  0  0
    7.0317    0.6692  -21.7429 H   0  0  0  0  0  0
   -3.1892    3.5221  -28.1832 H   0  0  0  0  0  0
    3.5770    7.5310  -20.9390 N   0  3  0  0  0  0
    6.0550    9.3940  -21.7320 N   0  0  0  0  0  0
    6.4530    8.4300  -22.5950 N   0  0  0  0  0  0
    3.9670    8.8880  -20.4090 C   0  0  0  0  0  0
    3.5630    7.3860  -22.4380 C   0  0  0  0  0  0
    5.4890    9.1340  -20.4040 C   0  0  0  0  0  0
    6.3020   10.5710  -22.3660 C   0  0  0  0  0  0
    6.9100    8.9780  -23.6910 C   0  0  0  0  0  0
    6.8290   10.3680  -23.5780 C   0  0  0  0  0  0
    6.0100   11.9260  -21.7510 C   0  0  0  0  0  0
    2.6732    7.2770  -20.5721 H   0  0  0  0  0  0
    4.1859    6.8321  -20.5430 H   0  0  0  0  0  0
    3.5742    9.0069  -19.3884 H   0  0  0  0  0  0
    3.4731    9.6689  -21.0059 H   0  0  0  0  0  0
    4.5870    7.4900  -22.8260 H   0  0  0  0  0  0
    2.9527    8.1884  -22.8782 H   0  0  0  0  0  0
    5.7201    9.9774  -19.7367 H   0  0  0  0  0  0
    5.9969    8.2682  -19.9541 H   0  0  0  0  0  0
    7.2721    8.3529  -24.4992 H   0  0  0  0  0  0
    7.0799   11.2138  -24.2078 H   0  0  0  0  0  0
    6.2959   12.7188  -22.4579 H   0  0  0  0  0  0
    4.9359   12.0040  -21.5270 H   0  0  0  0  0  0
    6.5873   12.0391  -20.8215 H   0  0  0  0  0  0
  1  2  2  0  0  0
  1  3  1  0  0  0
  1 34  1  0  0  0
  2  6  1  0  0  0
  2 35  1  0  0  0
  3  5  2  0  0  0
  3 27  1  0  0  0
  4  5  1  0  0  0
  4  6  2  0  0  0
  4 18  1  0  0  0
  5 24  1  0  0  0
  6 10  1  0  0  0
  7 10  2  0  0  0
  7 23  1  0  0  0
  7 33  1  0  0  0
  8 21  1  0  0  0
  8 22  1  0  0  0
  8 36  1  0  0  0
  8 37  1  0  0  0
  9 21  1  0  0  0
  9 31  1  0  0  0
  9 38  1  0  0  0
  9 39  1  0  0  0
 10 40  1  0  0  0
 11 12  1  0  0  0
 11 14  2  0  0  0
 11 15  1  0  0  0
 12 17  1  0  0  0
 12 28  2  0  0  0
 13 28  1  0  0  0
 13 29  2  0  0  0
 13 56  1  0  0  0
 14 29  1  0  0  0
 14 31  1  0  0  0
 15 30  2  0  0  0
 15 41  1  0  0  0
 16 17  2  0  0  0
 16 18  1  0  0  0
 16 30  1  0  0  0
 17 26  1  0  0  0
 18 23  2  0  0  0
 19 20  1  0  0  0
 19 31  1  0  0  0
 19 42  1  0  0  0
 19 43  1  0  0  0
 20 22  1  0  0  0
 20 32  1  0  0  0
 20 44  1  0  0  0
 21 32  1  0  0  0
 21 45  1  0  0  0
 22 46  1  0  0  0
 22 47  1  0  0  0
 23 48  1  0  0  0
 24 25  3  0  0  0
 25 49  1  0  0  0
 32 50  1  0  0  0
 33 51  1  0  0  0
 52 55  1  0  0  0
 52 56  1  0  0  0
 52 62  1  0  0  0
 52 63  1  0  0  0
 53 54  1  0  0  0
 53 57  1  0  0  0
 53 58  1  0  0  0
 54 59  2  0  0  0
 55 57  1  0  0  0
 55 64  1  0  0  0
 55 65  1  0  0  0
 56 66  1  0  0  0
 56 67  1  0  0  0
 57 68  1  0  0  0
 57 69  1  0  0  0
 58 60  2  0  0  0
 58 61  1  0  0  0
 59 60  1  0  0  0
 59 70  1  0  0  0
 60 71  1  0  0  0
 61 72  1  0  0  0
 61 73  1  0  0  0
 61 74  1  0  0  0
M  CHG  1  52   1
M  END
> <s_m_entry_id>
439

> <s_m_entry_name>
000000281.1

> <s_m_Source_Path>
/Users/zaksoul/Documents/3r_UNI/2nd_SEMESTER/BSC/FRAG_RECON/RESULTS/2

> <s_m_Source_File>
000000281.mol2

> <i_m_Source_File_Index>
1

$$$$
No_0_299
                    3D
 Schrodinger Suite 2022-4.
 74 80  0  0  1  0            999 V2000
   -5.1140    3.6290  -21.6510 C   0  0  0  0  0  0
   -5.4110    3.8190  -22.9800 C   0  0  0  0  0  0
   -3.8640    3.3960  -21.3380 C   0  0  0  0  0  0
   -3.0210    3.5480  -23.5210 C   0  0  0  0  0  0
   -2.8260    3.3000  -22.1050 C   0  0  0  0  0  0
   -4.3840    3.7890  -24.0120 C   0  0  0  0  0  0
   -3.6760    3.8340  -26.2260 C   0  0  0  0  0  0
    6.1740    3.2460  -21.1690 C   0  0  0  0  0  0
    5.9790    3.3970  -23.7140 C   0  0  0  0  0  0
   -4.6650    3.9180  -25.3410 C   0  0  0  0  0  0
    2.1860    3.8790  -23.6500 C   0  0  0  0  0  0
    1.3520    4.9720  -23.3280 C   0  0  0  0  0  0
    3.1430    6.1960  -22.6800 C   0  0  0  0  0  0
    3.5890    4.0930  -23.3650 C   0  0  0  0  0  0
    1.6450    2.7550  -24.3050 C   0  0  0  0  0  0
   -0.4930    3.5310  -24.1450 C   0  0  0  0  0  0
    0.0250    4.7580  -23.5520 C   0  0  0  0  0  0
   -1.9530    3.5130  -24.4690 C   0  0  0  0  0  0
    4.2440    1.6050  -23.0980 C   0  0  0  0  0  0
    5.2070    1.2600  -21.9730 C   0  0  2  0  0  0
    6.7620    2.8310  -22.5350 C   0  0  2  0  0  0
    5.1970    2.2550  -20.8010 C   0  0  0  0  0  0
   -2.3110    3.6740  -25.8890 C   0  0  0  0  0  0
   -1.4630    2.9070  -21.5370 C   0  0  0  0  0  0
   -0.4160    2.5750  -21.0550 C   0  0  0  0  0  0
   -0.8280    5.7860  -23.1840 F   0  0  0  0  0  0
   -3.6210    3.1510  -19.9610 F   0  0  0  0  0  0
    1.8200    6.1360  -22.8010 N   0  0  0  0  0  0
    4.0510    5.2500  -22.9240 N   0  0  0  0  0  0
    0.3340    2.6450  -24.5830 N   0  0  0  0  0  0
    4.5210    3.0620  -23.5660 N   0  0  0  0  0  0
    6.6020    1.3540  -22.4840 N   0  0  1  0  0  0
   -3.8780    3.8520  -27.6110 O   0  0  0  0  0  0
   -5.9011    3.6752  -20.9071 H   0  0  0  0  0  0
   -6.4355    3.9976  -23.2860 H   0  0  0  0  0  0
    5.6835    4.2260  -21.2639 H   0  0  0  0  0  0
    6.9755    3.2662  -20.4159 H   0  0  0  0  0  0
    6.3614    2.9642  -24.6502 H   0  0  0  0  0  0
    6.1021    4.4896  -23.7453 H   0  0  0  0  0  0
   -5.6856    4.0866  -25.6651 H   0  0  0  0  0  0
    2.2926    1.9388  -24.6042 H   0  0  0  0  0  0
    3.2099    1.5283  -22.7308 H   0  0  0  0  0  0
    4.4005    0.9134  -23.9390 H   0  0  0  0  0  0
    5.0082    0.2428  -21.6047 H   0  0  0  0  0  0
    7.8247    3.1065  -22.6036 H   0  0  0  0  0  0
    4.2062    2.7282  -20.7344 H   0  0  0  0  0  0
    5.5251    1.7431  -19.8843 H   0  0  0  0  0  0
   -1.5582    3.6710  -26.6689 H   0  0  0  0  0  0
    0.5057    2.2831  -20.6302 H   0  0  0  0  0  0
    7.2735    0.8643  -21.7943 H   0  0  0  0  0  0
   -3.0412    3.7808  -28.0551 H   0  0  0  0  0  0
    4.0550    7.5080  -20.7570 N   0  3  0  0  0  0
    6.1200    9.7060  -21.8260 N   0  0  0  0  0  0
    6.3690    8.9000  -22.8850 N   0  0  0  0  0  0
    4.4580    8.8260  -20.1440 C   0  0  0  0  0  0
    3.6890    7.5420  -22.2170 C   0  0  0  0  0  0
    5.9130    9.2300  -20.4540 C   0  0  0  0  0  0
    6.1170   10.9700  -22.3270 C   0  0  0  0  0  0
    6.5050    9.6200  -23.9680 C   0  0  0  0  0  0
    6.3490   10.9700  -23.6440 C   0  0  0  0  0  0
    5.8820   12.2030  -21.4770 C   0  0  0  0  0  0
    3.2884    7.1182  -20.2313 H   0  0  0  0  0  0
    4.7923    6.8357  -20.6139 H   0  0  0  0  0  0
    4.3160    8.7800  -19.0542 H   0  0  0  0  0  0
    3.7769    9.6152  -20.4951 H   0  0  0  0  0  0
    4.5779    7.8010  -22.8109 H   0  0  0  0  0  0
    2.9321    8.3219  -22.3870 H   0  0  0  0  0  0
    6.2341   10.0081  -19.7459 H   0  0  0  0  0  0
    6.5782    8.3757  -20.2599 H   0  0  0  0  0  0
    6.7060    9.1380  -24.9179 H   0  0  0  0  0  0
    6.3760   11.9067  -24.1888 H   0  0  0  0  0  0
    5.9270   13.1005  -22.1114 H   0  0  0  0  0  0
    4.8910   12.1390  -21.0040 H   0  0  0  0  0  0
    6.6566   12.2650  -20.6984 H   0  0  0  0  0  0
  1  2  2  0  0  0
  1  3  1  0  0  0
  1 34  1  0  0  0
  2  6  1  0  0  0
  2 35  1  0  0  0
  3  5  2  0  0  0
  3 27  1  0  0  0
  4  5  1  0  0  0
  4  6  2  0  0  0
  4 18  1  0  0  0
  5 24  1  0  0  0
  6 10  1  0  0  0
  7 10  2  0  0  0
  7 23  1  0  0  0
  7 33  1  0  0  0
  8 21  1  0  0  0
  8 22  1  0  0  0
  8 36  1  0  0  0
  8 37  1  0  0  0
  9 21  1  0  0  0
  9 31  1  0  0  0
  9 38  1  0  0  0
  9 39  1  0  0  0
 10 40  1  0  0  0
 11 12  1  0  0  0
 11 14  2  0  0  0
 11 15  1  0  0  0
 12 17  1  0  0  0
 12 28  2  0  0  0
 13 28  1  0  0  0
 13 29  2  0  0  0
 13 56  1  0  0  0
 14 29  1  0  0  0
 14 31  1  0  0  0
 15 30  2  0  0  0
 15 41  1  0  0  0
 16 17  2  0  0  0
 16 18  1  0  0  0
 16 30  1  0  0  0
 17 26  1  0  0  0
 18 23  2  0  0  0
 19 20  1  0  0  0
 19 31  1  0  0  0
 19 42  1  0  0  0
 19 43  1  0  0  0
 20 22  1  0  0  0
 20 32  1  0  0  0
 20 44  1  0  0  0
 21 32  1  0  0  0
 21 45  1  0  0  0
 22 46  1  0  0  0
 22 47  1  0  0  0
 23 48  1  0  0  0
 24 25  3  0  0  0
 25 49  1  0  0  0
 32 50  1  0  0  0
 33 51  1  0  0  0
 52 55  1  0  0  0
 52 56  1  0  0  0
 52 62  1  0  0  0
 52 63  1  0  0  0
 53 54  1  0  0  0
 53 57  1  0  0  0
 53 58  1  0  0  0
 54 59  2  0  0  0
 55 57  1  0  0  0
 55 64  1  0  0  0
 55 65  1  0  0  0
 56 66  1  0  0  0
 56 67  1  0  0  0
 57 68  1  0  0  0
 57 69  1  0  0  0
 58 60  2  0  0  0
 58 61  1  0  0  0
 59 60  1  0  0  0
 59 70  1  0  0  0
 60 71  1  0  0  0
 61 72  1  0  0  0
 61 73  1  0  0  0
 61 74  1  0  0  0
M  CHG  1  52   1
M  END
> <s_m_entry_id>
440

> <s_m_entry_name>
000000282.1

> <s_m_Source_Path>
/Users/zaksoul/Documents/3r_UNI/2nd_SEMESTER/BSC/FRAG_RECON/RESULTS/2

> <s_m_Source_File>
000000282.mol2

> <i_m_Source_File_Index>
1

$$$$
No_0_300
                    3D
 Schrodinger Suite 2022-4.
 71 77  0  0  1  0            999 V2000
   -5.2660    3.5300  -21.8090 C   0  0  0  0  0  0
   -5.5640    3.6930  -23.1410 C   0  0  0  0  0  0
   -4.0180    3.2970  -21.4920 C   0  0  0  0  0  0
   -3.1760    3.3960  -23.6780 C   0  0  0  0  0  0
   -2.9810    3.1780  -22.2580 C   0  0  0  0  0  0
   -4.5380    3.6340  -24.1730 C   0  0  0  0  0  0
   -3.8320    3.6270  -26.3880 C   0  0  0  0  0  0
    6.0200    3.0940  -21.3310 C   0  0  0  0  0  0
    5.8230    3.1910  -23.8780 C   0  0  0  0  0  0
   -4.8200    3.7360  -25.5050 C   0  0  0  0  0  0
    2.0320    3.6950  -23.8200 C   0  0  0  0  0  0
    1.2050    4.7990  -23.5210 C   0  0  0  0  0  0
    3.0040    6.0270  -22.9020 C   0  0  0  0  0  0
    3.4370    3.9070  -23.5410 C   0  0  0  0  0  0
    1.4850    2.5610  -24.4500 C   0  0  0  0  0  0
   -0.6490    3.3520  -24.3050 C   0  0  0  0  0  0
   -0.1240    4.5880  -23.7390 C   0  0  0  0  0  0
   -2.1100    3.3350  -24.6270 C   0  0  0  0  0  0
    4.0780    1.4220  -23.2210 C   0  0  0  0  0  0
    5.0410    1.0960  -22.0900 C   0  0  2  0  0  0
    6.6040    2.6460  -22.6880 C   0  0  2  0  0  0
    5.0370    2.1170  -20.9400 C   0  0  0  0  0  0
   -2.4690    3.4670  -26.0500 C   0  0  0  0  0  0
   -1.6190    2.7900  -21.6830 C   0  0  0  0  0  0
   -0.5730    2.4630  -21.1950 C   0  0  0  0  0  0
   -0.9700    5.6290  -23.3930 F   0  0  0  0  0  0
   -3.7740    3.0800  -20.1110 F   0  0  0  0  0  0
    1.6800    5.9730  -23.0200 N   0  0  0  0  0  0
    3.9060    5.0710  -23.1260 N   0  0  0  0  0  0
    0.1730    2.4510  -24.7240 N   0  0  0  0  0  0
    4.3630    2.8670  -23.7220 N   0  0  0  0  0  0
    6.4360    1.1710  -22.6050 N   0  0  1  0  0  0
   -4.0360    3.6160  -27.7740 O   0  0  0  0  0  0
   -6.0519    3.5962  -21.0653 H   0  0  0  0  0  0
   -6.5880    3.8707  -23.4492 H   0  0  0  0  0  0
    5.5344    4.0743  -21.4461 H   0  0  0  0  0  0
    6.8223    3.1263  -20.5792 H   0  0  0  0  0  0
    6.2012    2.7351  -24.8049 H   0  0  0  0  0  0
    5.9522    4.2820  -23.9325 H   0  0  0  0  0  0
   -5.8402    3.9035  -25.8310 H   0  0  0  0  0  0
    2.1275    1.7348  -24.7321 H   0  0  0  0  0  0
    3.0437    1.3594  -22.8517 H   0  0  0  0  0  0
    4.2303    0.7119  -24.0471 H   0  0  0  0  0  0
    4.8371    0.0877  -21.7004 H   0  0  0  0  0  0
    7.6681    2.9145  -22.7627 H   0  0  0  0  0  0
    4.0491    2.5973  -20.8825 H   0  0  0  0  0  0
    5.3640    1.6224  -20.0135 H   0  0  0  0  0  0
   -1.7164    3.4429  -26.8297 H   0  0  0  0  0  0
    0.3474    2.1749  -20.7648 H   0  0  0  0  0  0
    7.1052    0.6932  -21.9048 H   0  0  0  0  0  0
   -3.1996    3.5309  -28.2164 H   0  0  0  0  0  0
    3.9250    7.3760  -21.0070 N   0  0  1  0  0  0
    6.4030    9.7460  -21.6670 N   0  0  0  0  0  0
    6.9170    8.2410  -20.1910 N   0  0  0  0  0  0
    4.4540    8.6820  -20.4720 C   0  0  0  0  0  0
    3.5580    7.3800  -22.4690 C   0  0  0  0  0  0
    5.9240    8.8890  -20.7830 C   0  0  3  0  0  0
    8.6830   10.5010  -22.5340 C   0  0  0  0  0  0
    8.0730    8.7410  -20.7530 C   0  0  0  0  0  0
    7.7720    9.6660  -21.6600 C   0  0  0  0  0  0
    4.6720    6.6060  -20.8820 H   0  0  0  0  0  0
    5.7602   10.3318  -22.2188 H   0  0  0  0  0  0
    6.7119    7.5318  -19.4728 H   0  0  0  0  0  0
    4.3030    8.7180  -19.3830 H   0  0  0  0  0  0
    3.8697    9.5134  -20.8932 H   0  0  0  0  0  0
    4.4476    7.6212  -23.0694 H   0  0  0  0  0  0
    2.8050    8.1600  -22.6550 H   0  0  0  0  0  0
    9.7312   10.2379  -22.3290 H   0  0  0  0  0  0
    8.4571   10.3060  -23.5927 H   0  0  0  0  0  0
    8.5241   11.5674  -22.3161 H   0  0  0  0  0  0
    9.0381    8.3660  -20.4320 H   0  0  0  0  0  0
  1  2  2  0  0  0
  1  3  1  0  0  0
  1 34  1  0  0  0
  2  6  1  0  0  0
  2 35  1  0  0  0
  3  5  2  0  0  0
  3 27  1  0  0  0
  4  5  1  0  0  0
  4  6  2  0  0  0
  4 18  1  0  0  0
  5 24  1  0  0  0
  6 10  1  0  0  0
  7 10  2  0  0  0
  7 23  1  0  0  0
  7 33  1  0  0  0
  8 21  1  0  0  0
  8 22  1  0  0  0
  8 36  1  0  0  0
  8 37  1  0  0  0
  9 21  1  0  0  0
  9 31  1  0  0  0
  9 38  1  0  0  0
  9 39  1  0  0  0
 10 40  1  0  0  0
 11 12  2  0  0  0
 11 14  1  0  0  0
 11 15  1  0  0  0
 12 17  1  0  0  0
 12 28  1  0  0  0
 13 28  2  0  0  0
 13 29  1  0  0  0
 13 56  1  0  0  0
 14 29  2  0  0  0
 14 31  1  0  0  0
 15 30  2  0  0  0
 15 41  1  0  0  0
 16 17  2  0  0  0
 16 18  1  0  0  0
 16 30  1  0  0  0
 17 26  1  0  0  0
 18 23  2  0  0  0
 19 20  1  0  0  0
 19 31  1  0  0  0
 19 42  1  0  0  0
 19 43  1  0  0  0
 20 22  1  0  0  0
 20 32  1  0  0  0
 20 44  1  0  0  0
 21 32  1  0  0  0
 21 45  1  0  0  0
 22 46  1  0  0  0
 22 47  1  0  0  0
 23 48  1  0  0  0
 24 25  3  0  0  0
 25 49  1  0  0  0
 32 50  1  0  0  0
 33 51  1  0  0  0
 52 55  1  0  0  0
 52 56  1  0  0  0
 52 61  1  0  0  0
 53 57  1  0  0  0
 53 60  1  0  0  0
 53 62  1  0  0  0
 54 57  1  0  0  0
 54 59  1  0  0  0
 54 63  1  0  0  0
 55 57  1  0  0  0
 55 64  1  0  0  0
 55 65  1  0  0  0
 56 66  1  0  0  0
 56 67  1  0  0  0
 58 60  1  0  0  0
 58 68  1  0  0  0
 58 69  1  0  0  0
 58 70  1  0  0  0
 59 60  2  0  0  0
 59 71  1  0  0  0
M  END
> <s_m_entry_id>
441

> <s_m_entry_name>
000000283.1

> <s_m_Source_Path>
/Users/zaksoul/Documents/3r_UNI/2nd_SEMESTER/BSC/FRAG_RECON/RESULTS/2

> <s_m_Source_File>
000000283.mol2

> <i_m_Source_File_Index>
1

$$$$
No_0_301
                    3D
 Schrodinger Suite 2022-4.
 75 81  0  0  1  0            999 V2000
   -5.2530    3.4850  -21.8950 C   0  0  0  0  0  0
   -5.5200    3.6450  -23.2340 C   0  0  0  0  0  0
   -4.0180    3.2190  -21.5520 C   0  0  0  0  0  0
   -3.1320    3.2770  -23.7230 C   0  0  0  0  0  0
   -2.9700    3.0650  -22.2970 C   0  0  0  0  0  0
   -4.4770    3.5500  -24.2460 C   0  0  0  0  0  0
   -3.7290    3.5040  -26.4470 C   0  0  0  0  0  0
    6.0050    2.7350  -21.1950 C   0  0  0  0  0  0
    5.8590    2.8170  -23.7470 C   0  0  0  0  0  0
   -4.7310    3.6480  -25.5840 C   0  0  0  0  0  0
    2.0850    3.4280  -23.7660 C   0  0  0  0  0  0
    1.2830    4.5580  -23.4920 C   0  0  0  0  0  0
    3.1040    5.7390  -22.8470 C   0  0  0  0  0  0
    3.4890    3.6030  -23.4620 C   0  0  0  0  0  0
    1.5170    2.3050  -24.3980 C   0  0  0  0  0  0
   -0.5960    3.1570  -24.3000 C   0  0  0  0  0  0
   -0.0460    4.3820  -23.7330 C   0  0  0  0  0  0
   -2.0500    3.1790  -24.6500 C   0  0  0  0  0  0
    4.0530    1.1030  -23.1100 C   0  0  0  0  0  0
    4.9850    0.7600  -21.9580 C   0  0  2  0  0  0
    6.6020    2.2600  -22.5380 C   0  0  2  0  0  0
    4.9880    1.7900  -20.8160 C   0  0  0  0  0  0
   -2.3780    3.3080  -26.0810 C   0  0  0  0  0  0
   -1.6310    2.6440  -21.6930 C   0  0  0  0  0  0
   -0.6050    2.2910  -21.1820 C   0  0  0  0  0  0
   -0.8690    5.4500  -23.4120 F   0  0  0  0  0  0
   -3.8060    3.0070  -20.1650 F   0  0  0  0  0  0
    1.7820    5.7210  -22.9900 N   0  0  0  0  0  0
    3.9830    4.7560  -23.0460 N   0  0  0  0  0  0
    0.2080    2.2300  -24.6960 N   0  0  0  0  0  0
    4.3890    2.5360  -23.6160 N   0  0  0  0  0  0
    6.3910    0.7910  -22.4470 N   0  0  1  0  0  0
   -3.9070    3.4880  -27.8360 O   0  0  0  0  0  0
   -6.0514    3.5794  -21.1679 H   0  0  0  0  0  0
   -6.5321    3.8496  -23.5640 H   0  0  0  0  0  0
    5.5501    3.7276  -21.3282 H   0  0  0  0  0  0
    6.7938    2.7512  -20.4285 H   0  0  0  0  0  0
    6.2425    2.3427  -24.6624 H   0  0  0  0  0  0
    6.0205    3.9034  -23.8076 H   0  0  0  0  0  0
   -5.7393    3.8418  -25.9315 H   0  0  0  0  0  0
    2.1414    1.4588  -24.6610 H   0  0  0  0  0  0
    3.0107    1.0727  -22.7599 H   0  0  0  0  0  0
    4.2003    0.3827  -23.9282 H   0  0  0  0  0  0
    4.7449   -0.2388  -21.5645 H   0  0  0  0  0  0
    7.6746    2.4973  -22.5946 H   0  0  0  0  0  0
    4.0132    2.2986  -20.7817 H   0  0  0  0  0  0
    5.2826    1.2936  -19.8796 H   0  0  0  0  0  0
   -1.6113    3.2568  -26.8456 H   0  0  0  0  0  0
    0.2987    1.9811  -20.7321 H   0  0  0  0  0  0
    7.0327    0.3001  -21.7304 H   0  0  0  0  0  0
   -3.0651    3.3752  -28.2614 H   0  0  0  0  0  0
    4.0280    7.0810  -20.9460 N   0  0  1  0  0  0
    8.3870    8.0790  -20.4030 N   0  0  0  0  0  0
    6.7930    6.9740  -19.0990 N   0  0  0  0  0  0
    4.5940    8.3730  -20.4110 C   0  0  0  0  0  0
    6.0710    8.5810  -20.7670 C   0  0  0  0  0  0
    7.0800    7.8780  -20.0900 C   0  0  0  0  0  0
    3.6880    7.0800  -22.4140 C   0  0  0  0  0  0
    6.4450    9.4610  -21.7500 C   0  0  3  0  0  0
    5.4670   10.3000  -22.5600 C   0  0  0  0  0  0
    8.7470    8.9560  -21.3860 C   0  0  0  0  0  0
    7.7990    9.6420  -22.0560 C   0  0  0  0  0  0
    4.7440    6.2860  -20.7990 H   0  0  0  0  0  0
    9.1226    7.5662  -19.8962 H   0  0  0  0  0  0
    5.8143    6.7941  -18.8331 H   0  0  0  0  0  0
    7.5561    6.4739  -18.6209 H   0  0  0  0  0  0
    4.4761    8.3990  -19.3176 H   0  0  0  0  0  0
    4.0039    9.2181  -20.7951 H   0  0  0  0  0  0
    4.5945    7.2911  -23.0003 H   0  0  0  0  0  0
    2.9621    7.8799  -22.6220 H   0  0  0  0  0  0
    6.0229   10.9199  -23.2789 H   0  0  0  0  0  0
    4.7781    9.6371  -23.1039 H   0  0  0  0  0  0
    4.8920   10.9500  -21.8840 H   0  0  0  0  0  0
    9.7940    9.1000  -21.6270 H   0  0  0  0  0  0
    8.0899   10.3367  -22.8357 H   0  0  0  0  0  0
  1  2  2  0  0  0
  1  3  1  0  0  0
  1 34  1  0  0  0
  2  6  1  0  0  0
  2 35  1  0  0  0
  3  5  2  0  0  0
  3 27  1  0  0  0
  4  5  1  0  0  0
  4  6  2  0  0  0
  4 18  1  0  0  0
  5 24  1  0  0  0
  6 10  1  0  0  0
  7 10  2  0  0  0
  7 23  1  0  0  0
  7 33  1  0  0  0
  8 21  1  0  0  0
  8 22  1  0  0  0
  8 36  1  0  0  0
  8 37  1  0  0  0
  9 21  1  0  0  0
  9 31  1  0  0  0
  9 38  1  0  0  0
  9 39  1  0  0  0
 10 40  1  0  0  0
 11 12  2  0  0  0
 11 14  1  0  0  0
 11 15  1  0  0  0
 12 17  1  0  0  0
 12 28  1  0  0  0
 13 28  2  0  0  0
 13 29  1  0  0  0
 13 58  1  0  0  0
 14 29  2  0  0  0
 14 31  1  0  0  0
 15 30  2  0  0  0
 15 41  1  0  0  0
 16 17  2  0  0  0
 16 18  1  0  0  0
 16 30  1  0  0  0
 17 26  1  0  0  0
 18 23  2  0  0  0
 19 20  1  0  0  0
 19 31  1  0  0  0
 19 42  1  0  0  0
 19 43  1  0  0  0
 20 22  1  0  0  0
 20 32  1  0  0  0
 20 44  1  0  0  0
 21 32  1  0  0  0
 21 45  1  0  0  0
 22 46  1  0  0  0
 22 47  1  0  0  0
 23 48  1  0  0  0
 24 25  3  0  0  0
 25 49  1  0  0  0
 32 50  1  0  0  0
 33 51  1  0  0  0
 52 55  1  0  0  0
 52 58  1  0  0  0
 52 63  1  0  0  0
 53 57  1  0  0  0
 53 61  1  0  0  0
 53 64  1  0  0  0
 54 57  1  0  0  0
 54 65  1  0  0  0
 54 66  1  0  0  0
 55 56  1  0  0  0
 55 67  1  0  0  0
 55 68  1  0  0  0
 56 57  2  0  0  0
 56 59  1  0  0  0
 58 69  1  0  0  0
 58 70  1  0  0  0
 59 60  1  0  0  0
 59 62  1  0  0  0
 60 71  1  0  0  0
 60 72  1  0  0  0
 60 73  1  0  0  0
 61 62  2  0  0  0
 61 74  1  0  0  0
 62 75  1  0  0  0
M  END
> <s_m_entry_id>
442

> <s_m_entry_name>
000000284.1

> <s_m_Source_Path>
/Users/zaksoul/Documents/3r_UNI/2nd_SEMESTER/BSC/FRAG_RECON/RESULTS/2

> <s_m_Source_File>
000000284.mol2

> <i_m_Source_File_Index>
1

$$$$
No_0_302
                    3D
 Schrodinger Suite 2022-4.
 75 81  0  0  1  0            999 V2000
   -5.1460    3.4840  -22.1700 C   0  0  0  0  0  0
   -5.3970    3.6640  -23.5090 C   0  0  0  0  0  0
   -3.9120    3.2320  -21.8130 C   0  0  0  0  0  0
   -2.9970    3.3410  -23.9700 C   0  0  0  0  0  0
   -2.8520    3.1070  -22.5460 C   0  0  0  0  0  0
   -4.3380    3.6020  -24.5080 C   0  0  0  0  0  0
   -3.5590    3.6070  -26.6970 C   0  0  0  0  0  0
    6.1100    2.8960  -21.3200 C   0  0  0  0  0  0
    6.0000    3.0210  -23.8720 C   0  0  0  0  0  0
   -4.5750    3.7200  -25.8470 C   0  0  0  0  0  0
    2.2170    3.5740  -23.9350 C   0  0  0  0  0  0
    1.3940    4.6860  -23.6520 C   0  0  0  0  0  0
    3.1870    5.8840  -22.9610 C   0  0  0  0  0  0
    3.6140    3.7650  -23.6070 C   0  0  0  0  0  0
    1.6760    2.4530  -24.5940 C   0  0  0  0  0  0
   -0.4510    3.2700  -24.5130 C   0  0  0  0  0  0
    0.0710    4.4940  -23.9160 C   0  0  0  0  0  0
   -1.9000    3.2760  -24.8830 C   0  0  0  0  0  0
    4.2120    1.2680  -23.2910 C   0  0  0  0  0  0
    5.1330    0.9190  -22.1320 C   0  0  2  0  0  0
    6.7340    2.4540  -22.6620 C   0  0  2  0  0  0
    5.1030    1.9290  -20.9720 C   0  0  0  0  0  0
   -2.2100    3.4260  -26.3150 C   0  0  0  0  0  0
   -1.5150    2.6960  -21.9300 C   0  0  0  0  0  0
   -0.4910    2.3500  -21.4100 C   0  0  0  0  0  0
   -0.7730    5.5430  -23.5890 F   0  0  0  0  0  0
   -3.7170    2.9990  -20.4270 F   0  0  0  0  0  0
    1.8670    5.8480  -23.1240 N   0  0  0  0  0  0
    4.0840    4.9180  -23.1650 N   0  0  0  0  0  0
    0.3730    2.3630  -24.9130 N   0  0  0  0  0  0
    4.5320    2.7150  -23.7670 N   0  0  0  0  0  0
    6.5450    0.9810  -22.5990 N   0  0  1  0  0  0
   -3.7170    3.6120  -28.0890 O   0  0  0  0  0  0
   -5.9557    3.5532  -21.4526 H   0  0  0  0  0  0
   -6.4075    3.8577  -23.8502 H   0  0  0  0  0  0
    5.6426    3.8843  -21.4421 H   0  0  0  0  0  0
    6.8877    2.9111  -20.5423 H   0  0  0  0  0  0
    6.4039    2.5687  -24.7898 H   0  0  0  0  0  0
    6.1453    4.1107  -23.9103 H   0  0  0  0  0  0
   -5.5812    3.9048  -26.2055 H   0  0  0  0  0  0
    2.3164    1.6208  -24.8630 H   0  0  0  0  0  0
    3.1653    1.2155  -22.9569 H   0  0  0  0  0  0
    4.3826    0.5642  -24.1190 H   0  0  0  0  0  0
    4.9028   -0.0897  -21.7584 H   0  0  0  0  0  0
    7.8033    2.7095  -22.6984 H   0  0  0  0  0  0
    4.1199    2.4216  -20.9427 H   0  0  0  0  0  0
    5.3927    1.4212  -20.0402 H   0  0  0  0  0  0
   -1.4323    3.3999  -27.0697 H   0  0  0  0  0  0
    0.4111    2.0460  -20.9529 H   0  0  0  0  0  0
    7.1838    0.4867  -21.8821 H   0  0  0  0  0  0
   -2.8676    3.5200  -28.5043 H   0  0  0  0  0  0
    4.3300    7.1260  -21.1120 N   0  0  1  0  0  0
    8.6390    8.4370  -21.1980 N   0  0  0  0  0  0
    7.3730    7.0900  -19.7670 N   0  0  0  0  0  0
    4.8900    8.4090  -20.5500 C   0  0  0  0  0  0
    6.2660    8.7720  -21.1220 C   0  0  0  0  0  0
    7.4220    8.1000  -20.6950 C   0  0  0  0  0  0
    3.7430    7.2250  -22.4960 C   0  0  0  0  0  0
    6.4030    9.7640  -22.0580 C   0  0  3  0  0  0
    5.2450   10.5850  -22.6060 C   0  0  0  0  0  0
    8.7630    9.4250  -22.1320 C   0  0  0  0  0  0
    7.6690   10.0850  -22.5640 C   0  0  0  0  0  0
    5.1129    6.3841  -21.1670 H   0  0  0  0  0  0
    9.4843    7.9458  -20.8739 H   0  0  0  0  0  0
    6.4691    6.8060  -19.3630 H   0  0  0  0  0  0
    8.2398    6.6166  -19.4747 H   0  0  0  0  0  0
    4.9600    8.3280  -19.4552 H   0  0  0  0  0  0
    4.1856    9.2315  -20.7431 H   0  0  0  0  0  0
    4.5176    7.5638  -23.1997 H   0  0  0  0  0  0
    2.9391    7.9759  -22.5000 H   0  0  0  0  0  0
    5.6247   11.3105  -23.3405 H   0  0  0  0  0  0
    4.5200    9.9170  -23.0940 H   0  0  0  0  0  0
    4.7529   11.1221  -21.7818 H   0  0  0  0  0  0
    9.7400    9.6790  -22.5270 H   0  0  0  0  0  0
    7.7730   10.8687  -23.3057 H   0  0  0  0  0  0
  1  2  2  0  0  0
  1  3  1  0  0  0
  1 34  1  0  0  0
  2  6  1  0  0  0
  2 35  1  0  0  0
  3  5  2  0  0  0
  3 27  1  0  0  0
  4  5  1  0  0  0
  4  6  2  0  0  0
  4 18  1  0  0  0
  5 24  1  0  0  0
  6 10  1  0  0  0
  7 10  2  0  0  0
  7 23  1  0  0  0
  7 33  1  0  0  0
  8 21  1  0  0  0
  8 22  1  0  0  0
  8 36  1  0  0  0
  8 37  1  0  0  0
  9 21  1  0  0  0
  9 31  1  0  0  0
  9 38  1  0  0  0
  9 39  1  0  0  0
 10 40  1  0  0  0
 11 12  2  0  0  0
 11 14  1  0  0  0
 11 15  1  0  0  0
 12 17  1  0  0  0
 12 28  1  0  0  0
 13 28  2  0  0  0
 13 29  1  0  0  0
 13 58  1  0  0  0
 14 29  2  0  0  0
 14 31  1  0  0  0
 15 30  2  0  0  0
 15 41  1  0  0  0
 16 17  2  0  0  0
 16 18  1  0  0  0
 16 30  1  0  0  0
 17 26  1  0  0  0
 18 23  2  0  0  0
 19 20  1  0  0  0
 19 31  1  0  0  0
 19 42  1  0  0  0
 19 43  1  0  0  0
 20 22  1  0  0  0
 20 32  1  0  0  0
 20 44  1  0  0  0
 21 32  1  0  0  0
 21 45  1  0  0  0
 22 46  1  0  0  0
 22 47  1  0  0  0
 23 48  1  0  0  0
 24 25  3  0  0  0
 25 49  1  0  0  0
 32 50  1  0  0  0
 33 51  1  0  0  0
 52 55  1  0  0  0
 52 58  1  0  0  0
 52 63  1  0  0  0
 53 57  1  0  0  0
 53 61  1  0  0  0
 53 64  1  0  0  0
 54 57  1  0  0  0
 54 65  1  0  0  0
 54 66  1  0  0  0
 55 56  1  0  0  0
 55 67  1  0  0  0
 55 68  1  0  0  0
 56 57  2  0  0  0
 56 59  1  0  0  0
 58 69  1  0  0  0
 58 70  1  0  0  0
 59 60  1  0  0  0
 59 62  1  0  0  0
 60 71  1  0  0  0
 60 72  1  0  0  0
 60 73  1  0  0  0
 61 62  2  0  0  0
 61 74  1  0  0  0
 62 75  1  0  0  0
M  END
> <s_m_entry_id>
443

> <s_m_entry_name>
000000285.1

> <s_m_Source_Path>
/Users/zaksoul/Documents/3r_UNI/2nd_SEMESTER/BSC/FRAG_RECON/RESULTS/2

> <s_m_Source_File>
000000285.mol2

> <i_m_Source_File_Index>
1

$$$$
No_0_303
                    3D
 Schrodinger Suite 2022-4.
 75 81  0  0  1  0            999 V2000
   -5.3880    3.5400  -21.8450 C   0  0  0  0  0  0
   -5.6480    3.7180  -23.1830 C   0  0  0  0  0  0
   -4.1500    3.2940  -21.4960 C   0  0  0  0  0  0
   -3.2480    3.4110  -23.6580 C   0  0  0  0  0  0
   -3.0940    3.1760  -22.2350 C   0  0  0  0  0  0
   -4.5940    3.6640  -24.1870 C   0  0  0  0  0  0
   -3.8280    3.6750  -26.3820 C   0  0  0  0  0  0
    5.8770    3.0190  -21.0610 C   0  0  0  0  0  0
    5.7510    3.1440  -23.6120 C   0  0  0  0  0  0
   -4.8390    3.7820  -25.5250 C   0  0  0  0  0  0
    1.9640    3.6750  -23.6520 C   0  0  0  0  0  0
    1.1370    4.7820  -23.3650 C   0  0  0  0  0  0
    2.9260    5.9900  -22.6830 C   0  0  0  0  0  0
    3.3620    3.8740  -23.3330 C   0  0  0  0  0  0
    1.4260    2.5510  -24.3090 C   0  0  0  0  0  0
   -0.7050    3.3550  -24.2150 C   0  0  0  0  0  0
   -0.1870    4.5820  -23.6210 C   0  0  0  0  0  0
   -2.1560    3.3520  -24.5770 C   0  0  0  0  0  0
    3.9770    1.3810  -23.0220 C   0  0  0  0  0  0
    4.9070    1.0370  -21.8680 C   0  0  2  0  0  0
    6.4950    2.5810  -22.4060 C   0  0  2  0  0  0
    4.8780    2.0450  -20.7080 C   0  0  0  0  0  0
   -2.4750    3.5010  -26.0080 C   0  0  0  0  0  0
   -1.7510    2.7730  -21.6270 C   0  0  0  0  0  0
   -0.7210    2.4330  -21.1130 C   0  0  0  0  0  0
   -1.0350    5.6250  -23.2880 F   0  0  0  0  0  0
   -3.9460    3.0620  -20.1110 F   0  0  0  0  0  0
    1.6060    5.9460  -22.8380 N   0  0  0  0  0  0
    3.8280    5.0300  -22.8920 N   0  0  0  0  0  0
    0.1220    2.4540  -24.6210 N   0  0  0  0  0  0
    4.2860    2.8290  -23.4990 N   0  0  0  0  0  0
    6.3150    1.1070  -22.3440 N   0  0  1  0  0  0
   -3.9930    3.6800  -27.7720 O   0  0  0  0  0  0
   -6.1942    3.6033  -21.1231 H   0  0  0  0  0  0
   -6.6615    3.9066  -23.5182 H   0  0  0  0  0  0
    5.4025    4.0043  -21.1791 H   0  0  0  0  0  0
    6.6587    3.0382  -20.2873 H   0  0  0  0  0  0
    6.1528    2.6958  -24.5327 H   0  0  0  0  0  0
    5.8892    4.2346  -23.6503 H   0  0  0  0  0  0
   -5.8487    3.9596  -25.8773 H   0  0  0  0  0  0
    2.0703    1.7231  -24.5820 H   0  0  0  0  0  0
    2.9326    1.3215  -22.6819 H   0  0  0  0  0  0
    4.1475    0.6788  -23.8513 H   0  0  0  0  0  0
    4.6851    0.0263  -21.4948 H   0  0  0  0  0  0
    7.5624    2.8433  -22.4494 H   0  0  0  0  0  0
    3.8920    2.5314  -20.6727 H   0  0  0  0  0  0
    5.1757    1.5394  -19.7775 H   0  0  0  0  0  0
   -1.7012    3.4799  -26.7668 H   0  0  0  0  0  0
    0.1852    2.1339  -20.6609 H   0  0  0  0  0  0
    6.9617    0.6174  -21.6310 H   0  0  0  0  0  0
   -3.1457    3.5929  -28.1927 H   0  0  0  0  0  0
    4.2630    7.1950  -20.9420 N   0  0  1  0  0  0
    8.4440    8.7560  -21.5580 N   0  0  0  0  0  0
    7.4660    7.2630  -20.0480 N   0  0  0  0  0  0
    4.8350    8.4760  -20.3870 C   0  0  0  0  0  0
    6.0920    8.9480  -21.1260 C   0  0  0  0  0  0
    7.3300    8.3220  -20.9090 C   0  0  0  0  0  0
    3.4770    7.3340  -22.2200 C   0  0  0  0  0  0
    6.0440    9.9950  -22.0090 C   0  0  3  0  0  0
    4.7790   10.7760  -22.3370 C   0  0  0  0  0  0
    8.3810    9.7970  -22.4380 C   0  0  0  0  0  0
    7.2050   10.4160  -22.6690 C   0  0  0  0  0  0
    5.0654    6.5036  -21.1531 H   0  0  0  0  0  0
    9.3504    8.2968  -21.3889 H   0  0  0  0  0  0
    6.6459    6.9050  -19.5379 H   0  0  0  0  0  0
    8.3881    6.8250  -19.9110 H   0  0  0  0  0  0
    5.0672    8.3409  -19.3203 H   0  0  0  0  0  0
    4.0703    9.2657  -20.4280 H   0  0  0  0  0  0
    4.1237    7.7538  -23.0046 H   0  0  0  0  0  0
    2.6448    8.0363  -22.0642 H   0  0  0  0  0  0
    5.0121   11.5612  -23.0712 H   0  0  0  0  0  0
    4.0248   10.0938  -22.7561 H   0  0  0  0  0  0
    4.3858   11.2382  -21.4195 H   0  0  0  0  0  0
    9.2768   10.1279  -22.9509 H   0  0  0  0  0  0
    7.1620   11.2423  -23.3693 H   0  0  0  0  0  0
  1  2  2  0  0  0
  1  3  1  0  0  0
  1 34  1  0  0  0
  2  6  1  0  0  0
  2 35  1  0  0  0
  3  5  2  0  0  0
  3 27  1  0  0  0
  4  5  1  0  0  0
  4  6  2  0  0  0
  4 18  1  0  0  0
  5 24  1  0  0  0
  6 10  1  0  0  0
  7 10  2  0  0  0
  7 23  1  0  0  0
  7 33  1  0  0  0
  8 21  1  0  0  0
  8 22  1  0  0  0
  8 36  1  0  0  0
  8 37  1  0  0  0
  9 21  1  0  0  0
  9 31  1  0  0  0
  9 38  1  0  0  0
  9 39  1  0  0  0
 10 40  1  0  0  0
 11 12  2  0  0  0
 11 14  1  0  0  0
 11 15  1  0  0  0
 12 17  1  0  0  0
 12 28  1  0  0  0
 13 28  2  0  0  0
 13 29  1  0  0  0
 13 58  1  0  0  0
 14 29  2  0  0  0
 14 31  1  0  0  0
 15 30  2  0  0  0
 15 41  1  0  0  0
 16 17  2  0  0  0
 16 18  1  0  0  0
 16 30  1  0  0  0
 17 26  1  0  0  0
 18 23  2  0  0  0
 19 20  1  0  0  0
 19 31  1  0  0  0
 19 42  1  0  0  0
 19 43  1  0  0  0
 20 22  1  0  0  0
 20 32  1  0  0  0
 20 44  1  0  0  0
 21 32  1  0  0  0
 21 45  1  0  0  0
 22 46  1  0  0  0
 22 47  1  0  0  0
 23 48  1  0  0  0
 24 25  3  0  0  0
 25 49  1  0  0  0
 32 50  1  0  0  0
 33 51  1  0  0  0
 52 55  1  0  0  0
 52 58  1  0  0  0
 52 63  1  0  0  0
 53 57  1  0  0  0
 53 61  1  0  0  0
 53 64  1  0  0  0
 54 57  1  0  0  0
 54 65  1  0  0  0
 54 66  1  0  0  0
 55 56  1  0  0  0
 55 67  1  0  0  0
 55 68  1  0  0  0
 56 57  2  0  0  0
 56 59  1  0  0  0
 58 69  1  0  0  0
 58 70  1  0  0  0
 59 60  1  0  0  0
 59 62  1  0  0  0
 60 71  1  0  0  0
 60 72  1  0  0  0
 60 73  1  0  0  0
 61 62  2  0  0  0
 61 74  1  0  0  0
 62 75  1  0  0  0
M  END
> <s_m_entry_id>
444

> <s_m_entry_name>
000000286.1

> <s_m_Source_Path>
/Users/zaksoul/Documents/3r_UNI/2nd_SEMESTER/BSC/FRAG_RECON/RESULTS/2

> <s_m_Source_File>
000000286.mol2

> <i_m_Source_File_Index>
1

$$$$
No_0_304
                    3D
 Schrodinger Suite 2022-4.
 73 79  0  0  1  0            999 V2000
   -5.1810    3.6090  -21.8530 C   0  0  0  0  0  0
   -5.4520    3.8050  -23.1860 C   0  0  0  0  0  0
   -3.9420    3.3510  -21.5190 C   0  0  0  0  0  0
   -3.0590    3.4860  -23.6870 C   0  0  0  0  0  0
   -2.8930    3.2340  -22.2690 C   0  0  0  0  0  0
   -4.4090    3.7540  -24.2010 C   0  0  0  0  0  0
   -3.6630    3.7850  -26.4030 C   0  0  0  0  0  0
    6.0870    3.0010  -21.1820 C   0  0  0  0  0  0
    5.9380    3.1560  -23.7310 C   0  0  0  0  0  0
   -4.6650    3.8890  -25.5350 C   0  0  0  0  0  0
    2.1540    3.7130  -23.7290 C   0  0  0  0  0  0
    1.3370    4.8230  -23.4210 C   0  0  0  0  0  0
    3.1410    6.0110  -22.7430 C   0  0  0  0  0  0
    3.5570    3.8990  -23.4210 C   0  0  0  0  0  0
    1.6030    2.6010  -24.3930 C   0  0  0  0  0  0
   -0.5220    3.4190  -24.2700 C   0  0  0  0  0  0
    0.0100    4.6350  -23.6670 C   0  0  0  0  0  0
   -1.9770    3.4300  -24.6180 C   0  0  0  0  0  0
    4.1570    1.3990  -23.1440 C   0  0  0  0  0  0
    5.0950    1.0350  -22.0030 C   0  0  2  0  0  0
    6.6890    2.5740  -22.5390 C   0  0  2  0  0  0
    5.0840    2.0310  -20.8310 C   0  0  0  0  0  0
   -2.3080    3.5970  -26.0440 C   0  0  0  0  0  0
   -1.5470    2.8150  -21.6780 C   0  0  0  0  0  0
   -0.5150    2.4620  -21.1780 C   0  0  0  0  0  0
   -0.8280    5.6800  -23.3140 F   0  0  0  0  0  0
   -3.7260    3.1020  -20.1390 F   0  0  0  0  0  0
    1.8200    5.9780  -22.8860 N   0  0  0  0  0  0
    4.0350    5.0470  -22.9720 N   0  0  0  0  0  0
    0.2950    2.5160  -24.6930 N   0  0  0  0  0  0
    4.4710    2.8500  -23.6070 N   0  0  0  0  0  0
    6.5000    1.1010  -22.4910 N   0  0  1  0  0  0
   -3.8410    3.8060  -27.7920 O   0  0  0  0  0  0
   -5.9796    3.6712  -21.1226 H   0  0  0  0  0  0
   -6.4675    4.0037  -23.5091 H   0  0  0  0  0  0
    5.6179    3.9906  -21.2849 H   0  0  0  0  0  0
    6.8763    3.0060  -20.4159 H   0  0  0  0  0  0
    6.3275    2.7150  -24.6604 H   0  0  0  0  0  0
    6.0833    4.2460  -23.7593 H   0  0  0  0  0  0
   -5.6765    4.0776  -25.8762 H   0  0  0  0  0  0
    2.2385    1.7718  -24.6821 H   0  0  0  0  0  0
    3.1157    1.3435  -22.7939 H   0  0  0  0  0  0
    4.3144    0.7047  -23.9826 H   0  0  0  0  0  0
    4.8700    0.0218  -21.6387 H   0  0  0  0  0  0
    7.7578    2.8293  -22.5885 H   0  0  0  0  0  0
    4.1018    2.5236  -20.7805 H   0  0  0  0  0  0
    5.3877    1.5123  -19.9097 H   0  0  0  0  0  0
   -1.5411    3.5789  -26.8099 H   0  0  0  0  0  0
    0.3934    2.1519  -20.7378 H   0  0  0  0  0  0
    7.1492    0.5983  -21.7894 H   0  0  0  0  0  0
   -2.9984    3.7179  -28.2217 H   0  0  0  0  0  0
    3.7040    7.4310  -20.7670 N   0  0  1  0  0  0
    6.4820    9.6460  -21.1640 N   0  0  0  0  0  0
    7.7940    9.3390  -21.1570 N   0  0  0  0  0  0
    5.8800    8.6740  -20.4280 C   0  0  0  0  0  0
    4.3770    8.6470  -20.1830 C   0  0  0  0  0  0
    3.7060    7.3460  -22.2710 C   0  0  0  0  0  0
    6.5340    6.5440  -19.1090 C   0  0  0  0  0  0
    5.9080   10.8080  -21.8510 C   0  0  0  0  0  0
    7.9810    8.2500  -20.4600 C   0  0  0  0  0  0
    6.7620    7.7770  -19.9600 C   0  0  0  0  0  0
    4.1988    6.5394  -20.4112 H   0  0  0  0  0  0
    4.1830    8.6870  -19.1010 H   0  0  0  0  0  0
    3.9206    9.5548  -20.6044 H   0  0  0  0  0  0
    4.7348    7.4610  -22.6429 H   0  0  0  0  0  0
    3.1010    8.1661  -22.6850 H   0  0  0  0  0  0
    7.4968    6.0471  -18.9190 H   0  0  0  0  0  0
    6.0789    6.8381  -18.1517 H   0  0  0  0  0  0
    5.8618    5.8518  -19.6372 H   0  0  0  0  0  0
    4.8187   10.8250  -21.6990 H   0  0  0  0  0  0
    6.3490   11.7299  -21.4440 H   0  0  0  0  0  0
    6.1258   10.7430  -22.9273 H   0  0  0  0  0  0
    8.9801    7.8460  -20.3430 H   0  0  0  0  0  0
  1  2  2  0  0  0
  1  3  1  0  0  0
  1 34  1  0  0  0
  2  6  1  0  0  0
  2 35  1  0  0  0
  3  5  2  0  0  0
  3 27  1  0  0  0
  4  5  1  0  0  0
  4  6  2  0  0  0
  4 18  1  0  0  0
  5 24  1  0  0  0
  6 10  1  0  0  0
  7 10  2  0  0  0
  7 23  1  0  0  0
  7 33  1  0  0  0
  8 21  1  0  0  0
  8 22  1  0  0  0
  8 36  1  0  0  0
  8 37  1  0  0  0
  9 21  1  0  0  0
  9 31  1  0  0  0
  9 38  1  0  0  0
  9 39  1  0  0  0
 10 40  1  0  0  0
 11 12  1  0  0  0
 11 14  2  0  0  0
 11 15  1  0  0  0
 12 17  1  0  0  0
 12 28  2  0  0  0
 13 28  1  0  0  0
 13 29  2  0  0  0
 13 57  1  0  0  0
 14 29  1  0  0  0
 14 31  1  0  0  0
 15 30  2  0  0  0
 15 41  1  0  0  0
 16 17  2  0  0  0
 16 18  1  0  0  0
 16 30  1  0  0  0
 17 26  1  0  0  0
 18 23  2  0  0  0
 19 20  1  0  0  0
 19 31  1  0  0  0
 19 42  1  0  0  0
 19 43  1  0  0  0
 20 22  1  0  0  0
 20 32  1  0  0  0
 20 44  1  0  0  0
 21 32  1  0  0  0
 21 45  1  0  0  0
 22 46  1  0  0  0
 22 47  1  0  0  0
 23 48  1  0  0  0
 24 25  3  0  0  0
 25 49  1  0  0  0
 32 50  1  0  0  0
 33 51  1  0  0  0
 52 56  1  0  0  0
 52 57  1  0  0  0
 52 62  1  0  0  0
 53 54  1  0  0  0
 53 55  1  0  0  0
 53 59  1  0  0  0
 54 60  2  0  0  0
 55 56  1  0  0  0
 55 61  2  0  0  0
 56 63  1  0  0  0
 56 64  1  0  0  0
 57 65  1  0  0  0
 57 66  1  0  0  0
 58 61  1  0  0  0
 58 67  1  0  0  0
 58 68  1  0  0  0
 58 69  1  0  0  0
 59 70  1  0  0  0
 59 71  1  0  0  0
 59 72  1  0  0  0
 60 61  1  0  0  0
 60 73  1  0  0  0
M  END
> <s_m_entry_id>
445

> <s_m_entry_name>
000000287.1

> <s_m_Source_Path>
/Users/zaksoul/Documents/3r_UNI/2nd_SEMESTER/BSC/FRAG_RECON/RESULTS/2

> <s_m_Source_File>
000000287.mol2

> <i_m_Source_File_Index>
1

$$$$
No_0_305
                    3D
 Schrodinger Suite 2022-4.
 73 79  0  0  1  0            999 V2000
   -5.1810    3.6090  -21.8530 C   0  0  0  0  0  0
   -5.4520    3.8050  -23.1860 C   0  0  0  0  0  0
   -3.9420    3.3510  -21.5190 C   0  0  0  0  0  0
   -3.0590    3.4860  -23.6870 C   0  0  0  0  0  0
   -2.8930    3.2340  -22.2690 C   0  0  0  0  0  0
   -4.4090    3.7540  -24.2010 C   0  0  0  0  0  0
   -3.6630    3.7850  -26.4030 C   0  0  0  0  0  0
    6.0870    3.0010  -21.1820 C   0  0  0  0  0  0
    5.9380    3.1560  -23.7310 C   0  0  0  0  0  0
   -4.6650    3.8890  -25.5350 C   0  0  0  0  0  0
    2.1540    3.7130  -23.7290 C   0  0  0  0  0  0
    1.3370    4.8230  -23.4210 C   0  0  0  0  0  0
    3.1410    6.0110  -22.7430 C   0  0  0  0  0  0
    3.5570    3.8990  -23.4210 C   0  0  0  0  0  0
    1.6030    2.6010  -24.3930 C   0  0  0  0  0  0
   -0.5220    3.4190  -24.2700 C   0  0  0  0  0  0
    0.0100    4.6350  -23.6670 C   0  0  0  0  0  0
   -1.9770    3.4300  -24.6180 C   0  0  0  0  0  0
    4.1570    1.3990  -23.1440 C   0  0  0  0  0  0
    5.0950    1.0350  -22.0030 C   0  0  2  0  0  0
    6.6890    2.5740  -22.5390 C   0  0  2  0  0  0
    5.0840    2.0310  -20.8310 C   0  0  0  0  0  0
   -2.3080    3.5970  -26.0440 C   0  0  0  0  0  0
   -1.5470    2.8150  -21.6780 C   0  0  0  0  0  0
   -0.5150    2.4620  -21.1780 C   0  0  0  0  0  0
   -0.8280    5.6800  -23.3140 F   0  0  0  0  0  0
   -3.7260    3.1020  -20.1390 F   0  0  0  0  0  0
    1.8200    5.9780  -22.8860 N   0  0  0  0  0  0
    4.0350    5.0470  -22.9720 N   0  0  0  0  0  0
    0.2950    2.5160  -24.6930 N   0  0  0  0  0  0
    4.4710    2.8500  -23.6070 N   0  0  0  0  0  0
    6.5000    1.1010  -22.4910 N   0  0  1  0  0  0
   -3.8410    3.8060  -27.7920 O   0  0  0  0  0  0
   -5.9796    3.6712  -21.1226 H   0  0  0  0  0  0
   -6.4675    4.0037  -23.5091 H   0  0  0  0  0  0
    5.6179    3.9906  -21.2849 H   0  0  0  0  0  0
    6.8763    3.0060  -20.4159 H   0  0  0  0  0  0
    6.3275    2.7150  -24.6604 H   0  0  0  0  0  0
    6.0833    4.2460  -23.7593 H   0  0  0  0  0  0
   -5.6765    4.0776  -25.8762 H   0  0  0  0  0  0
    2.2385    1.7718  -24.6821 H   0  0  0  0  0  0
    3.1157    1.3435  -22.7939 H   0  0  0  0  0  0
    4.3144    0.7047  -23.9826 H   0  0  0  0  0  0
    4.8700    0.0218  -21.6387 H   0  0  0  0  0  0
    7.7578    2.8293  -22.5885 H   0  0  0  0  0  0
    4.1018    2.5236  -20.7805 H   0  0  0  0  0  0
    5.3877    1.5123  -19.9097 H   0  0  0  0  0  0
   -1.5411    3.5789  -26.8099 H   0  0  0  0  0  0
    0.3934    2.1519  -20.7378 H   0  0  0  0  0  0
    7.1492    0.5983  -21.7894 H   0  0  0  0  0  0
   -2.9984    3.7179  -28.2217 H   0  0  0  0  0  0
    4.0450    7.2990  -20.8030 N   0  0  1  0  0  0
    6.4960    9.7850  -21.5750 N   0  0  0  0  0  0
    7.7930    9.5990  -21.8930 N   0  0  0  0  0  0
    6.1490    8.7020  -20.8290 C   0  0  0  0  0  0
    4.7490    8.5170  -20.2600 C   0  0  0  0  0  0
    3.7060    7.3460  -22.2710 C   0  0  0  0  0  0
    7.2360    6.5350  -19.9210 C   0  0  0  0  0  0
    5.7010   10.9450  -21.9910 C   0  0  0  0  0  0
    8.2100    8.4760  -21.3730 C   0  0  0  0  0  0
    7.1750    7.8520  -20.6670 C   0  0  0  0  0  0
    4.6691    6.4288  -20.6630 H   0  0  0  0  0  0
    4.8070    8.4461  -19.1638 H   0  0  0  0  0  0
    4.1459    9.4122  -20.4720 H   0  0  0  0  0  0
    4.6112    7.5860  -22.8481 H   0  0  0  0  0  0
    2.9672    8.1408  -22.4510 H   0  0  0  0  0  0
    8.2481    6.1120  -20.0030 H   0  0  0  0  0  0
    6.9940    6.7020  -18.8610 H   0  0  0  0  0  0
    6.5096    5.8326  -20.3556 H   0  0  0  0  0  0
    4.6777   10.8490  -21.5989 H   0  0  0  0  0  0
    6.1601   11.8641  -21.5979 H   0  0  0  0  0  0
    5.6690   10.9930  -23.0895 H   0  0  0  0  0  0
    9.2347    8.1561  -21.5240 H   0  0  0  0  0  0
  1  2  2  0  0  0
  1  3  1  0  0  0
  1 34  1  0  0  0
  2  6  1  0  0  0
  2 35  1  0  0  0
  3  5  2  0  0  0
  3 27  1  0  0  0
  4  5  1  0  0  0
  4  6  2  0  0  0
  4 18  1  0  0  0
  5 24  1  0  0  0
  6 10  1  0  0  0
  7 10  2  0  0  0
  7 23  1  0  0  0
  7 33  1  0  0  0
  8 21  1  0  0  0
  8 22  1  0  0  0
  8 36  1  0  0  0
  8 37  1  0  0  0
  9 21  1  0  0  0
  9 31  1  0  0  0
  9 38  1  0  0  0
  9 39  1  0  0  0
 10 40  1  0  0  0
 11 12  1  0  0  0
 11 14  2  0  0  0
 11 15  1  0  0  0
 12 17  1  0  0  0
 12 28  2  0  0  0
 13 28  1  0  0  0
 13 29  2  0  0  0
 13 57  1  0  0  0
 14 29  1  0  0  0
 14 31  1  0  0  0
 15 30  2  0  0  0
 15 41  1  0  0  0
 16 17  2  0  0  0
 16 18  1  0  0  0
 16 30  1  0  0  0
 17 26  1  0  0  0
 18 23  2  0  0  0
 19 20  1  0  0  0
 19 31  1  0  0  0
 19 42  1  0  0  0
 19 43  1  0  0  0
 20 22  1  0  0  0
 20 32  1  0  0  0
 20 44  1  0  0  0
 21 32  1  0  0  0
 21 45  1  0  0  0
 22 46  1  0  0  0
 22 47  1  0  0  0
 23 48  1  0  0  0
 24 25  3  0  0  0
 25 49  1  0  0  0
 32 50  1  0  0  0
 33 51  1  0  0  0
 52 56  1  0  0  0
 52 57  1  0  0  0
 52 62  1  0  0  0
 53 54  1  0  0  0
 53 55  1  0  0  0
 53 59  1  0  0  0
 54 60  2  0  0  0
 55 56  1  0  0  0
 55 61  2  0  0  0
 56 63  1  0  0  0
 56 64  1  0  0  0
 57 65  1  0  0  0
 57 66  1  0  0  0
 58 61  1  0  0  0
 58 67  1  0  0  0
 58 68  1  0  0  0
 58 69  1  0  0  0
 59 70  1  0  0  0
 59 71  1  0  0  0
 59 72  1  0  0  0
 60 61  1  0  0  0
 60 73  1  0  0  0
M  END
> <s_m_entry_id>
446

> <s_m_entry_name>
000000288.1

> <s_m_Source_Path>
/Users/zaksoul/Documents/3r_UNI/2nd_SEMESTER/BSC/FRAG_RECON/RESULTS/2

> <s_m_Source_File>
000000288.mol2

> <i_m_Source_File_Index>
1

$$$$
No_0_306
                    3D
 Schrodinger Suite 2022-4.
 73 79  0  0  1  0            999 V2000
   -5.1700    3.7640  -22.0680 C   0  0  0  0  0  0
   -5.4110    3.9950  -23.4010 C   0  0  0  0  0  0
   -3.9420    3.4770  -21.7150 C   0  0  0  0  0  0
   -3.0150    3.6470  -23.8630 C   0  0  0  0  0  0
   -2.8810    3.3600  -22.4480 C   0  0  0  0  0  0
   -4.3490    3.9500  -24.3970 C   0  0  0  0  0  0
   -3.5590    4.0180  -26.5820 C   0  0  0  0  0  0
    6.0710    2.9480  -21.1930 C   0  0  0  0  0  0
    5.9750    3.1640  -23.7390 C   0  0  0  0  0  0
   -4.5770    4.1190  -25.7320 C   0  0  0  0  0  0
    2.2020    3.7860  -23.7980 C   0  0  0  0  0  0
    1.3980    4.9020  -23.4800 C   0  0  0  0  0  0
    3.2070    6.0430  -22.7400 C   0  0  0  0  0  0
    3.6010    3.9410  -23.4580 C   0  0  0  0  0  0
    1.6450    2.6990  -24.4990 C   0  0  0  0  0  0
   -0.4680    3.5500  -24.3970 C   0  0  0  0  0  0
    0.0720    4.7420  -23.7560 C   0  0  0  0  0  0
   -1.9150    3.5940  -24.7730 C   0  0  0  0  0  0
    4.1540    1.4250  -23.2280 C   0  0  0  0  0  0
    5.0630    1.0190  -22.0780 C   0  0  2  0  0  0
    6.6930    2.5430  -22.5470 C   0  0  2  0  0  0
    5.0460    1.9870  -20.8830 C   0  0  0  0  0  0
   -2.2150    3.7990  -26.2010 C   0  0  0  0  0  0
   -1.5540    2.9040  -21.8410 C   0  0  0  0  0  0
   -0.5380    2.5220  -21.3290 C   0  0  0  0  0  0
   -0.7550    5.7940  -23.3950 F   0  0  0  0  0  0
   -3.7580    3.1920  -20.3380 F   0  0  0  0  0  0
    1.8880    6.0360  -22.9090 N   0  0  0  0  0  0
    4.0890    5.0690  -22.9730 N   0  0  0  0  0  0
    0.3420    2.6430  -24.8260 N   0  0  0  0  0  0
    4.5010    2.8810  -23.6510 N   0  0  0  0  0  0
    6.4780    1.0720  -22.5370 N   0  0  1  0  0  0
   -3.7100    4.0750  -27.9730 O   0  0  0  0  0  0
   -5.9816    3.8222  -21.3517 H   0  0  0  0  0  0
   -6.4163    4.2187  -23.7391 H   0  0  0  0  0  0
    5.6210    3.9478  -21.2818 H   0  0  0  0  0  0
    6.8451    2.9218  -20.4119 H   0  0  0  0  0  0
    6.3757    2.7380  -24.6707 H   0  0  0  0  0  0
    6.1395    4.2516  -23.7390 H   0  0  0  0  0  0
   -5.5784    4.3329  -26.0876 H   0  0  0  0  0  0
    2.2724    1.8658  -24.7941 H   0  0  0  0  0  0
    3.1051    1.3786  -22.8999 H   0  0  0  0  0  0
    4.3165    0.7468  -24.0787 H   0  0  0  0  0  0
    4.8137    0.0017  -21.7419 H   0  0  0  0  0  0
    7.7669    2.7802  -22.5702 H   0  0  0  0  0  0
    4.0715    2.4954  -20.8406 H   0  0  0  0  0  0
    5.3216    1.4418  -19.9683 H   0  0  0  0  0  0
   -1.4341    3.7860  -26.9528 H   0  0  0  0  0  0
    0.3562    2.1859  -20.8789 H   0  0  0  0  0  0
    7.1046    0.5427  -21.8345 H   0  0  0  0  0  0
   -2.8603    3.9820  -28.3875 H   0  0  0  0  0  0
    4.4900    7.1580  -20.9090 N   0  0  1  0  0  0
    6.4930    9.9570  -21.8750 N   0  0  0  0  0  0
    7.6750    9.9460  -22.5230 N   0  0  0  0  0  0
    6.4200    8.7580  -21.2370 C   0  0  0  0  0  0
    5.2270    8.3600  -20.3780 C   0  0  0  0  0  0
    3.7850    7.3570  -22.2260 C   0  0  0  0  0  0
    7.8430    6.6140  -20.9550 C   0  0  0  0  0  0
    5.5440   11.0740  -21.9070 C   0  0  0  0  0  0
    8.2840    8.8130  -22.2940 C   0  0  0  0  0  0
    7.5070    8.0020  -21.4580 C   0  0  0  0  0  0
    5.1848    6.3443  -21.0559 H   0  0  0  0  0  0
    5.5679    8.1560  -19.3522 H   0  0  0  0  0  0
    4.5331    9.2099  -20.3000 H   0  0  0  0  0  0
    4.4949    7.7589  -22.9639 H   0  0  0  0  0  0
    2.9734    8.0887  -22.1001 H   0  0  0  0  0  0
    8.8263    6.3099  -21.3431 H   0  0  0  0  0  0
    7.8700    6.6180  -19.8553 H   0  0  0  0  0  0
    7.0777    5.9027  -21.2991 H   0  0  0  0  0  0
    4.6634   10.8261  -21.2962 H   0  0  0  0  0  0
    6.0260   11.9769  -21.5040 H   0  0  0  0  0  0
    5.2288   11.2591  -22.9445 H   0  0  0  0  0  0
    9.2550    8.6210  -22.7360 H   0  0  0  0  0  0
  1  2  2  0  0  0
  1  3  1  0  0  0
  1 34  1  0  0  0
  2  6  1  0  0  0
  2 35  1  0  0  0
  3  5  2  0  0  0
  3 27  1  0  0  0
  4  5  1  0  0  0
  4  6  2  0  0  0
  4 18  1  0  0  0
  5 24  1  0  0  0
  6 10  1  0  0  0
  7 10  2  0  0  0
  7 23  1  0  0  0
  7 33  1  0  0  0
  8 21  1  0  0  0
  8 22  1  0  0  0
  8 36  1  0  0  0
  8 37  1  0  0  0
  9 21  1  0  0  0
  9 31  1  0  0  0
  9 38  1  0  0  0
  9 39  1  0  0  0
 10 40  1  0  0  0
 11 12  1  0  0  0
 11 14  2  0  0  0
 11 15  1  0  0  0
 12 17  1  0  0  0
 12 28  2  0  0  0
 13 28  1  0  0  0
 13 29  2  0  0  0
 13 57  1  0  0  0
 14 29  1  0  0  0
 14 31  1  0  0  0
 15 30  2  0  0  0
 15 41  1  0  0  0
 16 17  2  0  0  0
 16 18  1  0  0  0
 16 30  1  0  0  0
 17 26  1  0  0  0
 18 23  2  0  0  0
 19 20  1  0  0  0
 19 31  1  0  0  0
 19 42  1  0  0  0
 19 43  1  0  0  0
 20 22  1  0  0  0
 20 32  1  0  0  0
 20 44  1  0  0  0
 21 32  1  0  0  0
 21 45  1  0  0  0
 22 46  1  0  0  0
 22 47  1  0  0  0
 23 48  1  0  0  0
 24 25  3  0  0  0
 25 49  1  0  0  0
 32 50  1  0  0  0
 33 51  1  0  0  0
 52 56  1  0  0  0
 52 57  1  0  0  0
 52 62  1  0  0  0
 53 54  1  0  0  0
 53 55  1  0  0  0
 53 59  1  0  0  0
 54 60  2  0  0  0
 55 56  1  0  0  0
 55 61  2  0  0  0
 56 63  1  0  0  0
 56 64  1  0  0  0
 57 65  1  0  0  0
 57 66  1  0  0  0
 58 61  1  0  0  0
 58 67  1  0  0  0
 58 68  1  0  0  0
 58 69  1  0  0  0
 59 70  1  0  0  0
 59 71  1  0  0  0
 59 72  1  0  0  0
 60 61  1  0  0  0
 60 73  1  0  0  0
M  END
> <s_m_entry_id>
447

> <s_m_entry_name>
000000289.1

> <s_m_Source_Path>
/Users/zaksoul/Documents/3r_UNI/2nd_SEMESTER/BSC/FRAG_RECON/RESULTS/2

> <s_m_Source_File>
000000289.mol2

> <i_m_Source_File_Index>
1

$$$$
No_0_307
                    3D
 Schrodinger Suite 2022-4.
 69 75  0  0  1  0            999 V2000
   -5.1810    3.6090  -21.8530 C   0  0  0  0  0  0
   -5.4520    3.8050  -23.1860 C   0  0  0  0  0  0
   -3.9420    3.3510  -21.5190 C   0  0  0  0  0  0
   -3.0590    3.4860  -23.6870 C   0  0  0  0  0  0
   -2.8930    3.2340  -22.2690 C   0  0  0  0  0  0
   -4.4090    3.7540  -24.2010 C   0  0  0  0  0  0
   -3.6630    3.7850  -26.4030 C   0  0  0  0  0  0
    6.0870    3.0010  -21.1820 C   0  0  0  0  0  0
    5.9380    3.1560  -23.7310 C   0  0  0  0  0  0
   -4.6650    3.8890  -25.5350 C   0  0  0  0  0  0
    2.1540    3.7130  -23.7290 C   0  0  0  0  0  0
    1.3370    4.8230  -23.4210 C   0  0  0  0  0  0
    3.1410    6.0110  -22.7430 C   0  0  0  0  0  0
    3.5570    3.8990  -23.4210 C   0  0  0  0  0  0
    1.6030    2.6010  -24.3930 C   0  0  0  0  0  0
   -0.5220    3.4190  -24.2700 C   0  0  0  0  0  0
    0.0100    4.6350  -23.6670 C   0  0  0  0  0  0
   -1.9770    3.4300  -24.6180 C   0  0  0  0  0  0
    4.1570    1.3990  -23.1440 C   0  0  0  0  0  0
    5.0950    1.0350  -22.0030 C   0  0  2  0  0  0
    6.6890    2.5740  -22.5390 C   0  0  2  0  0  0
    5.0840    2.0310  -20.8310 C   0  0  0  0  0  0
   -2.3080    3.5970  -26.0440 C   0  0  0  0  0  0
   -1.5470    2.8150  -21.6780 C   0  0  0  0  0  0
   -0.5150    2.4620  -21.1780 C   0  0  0  0  0  0
   -0.8280    5.6800  -23.3140 F   0  0  0  0  0  0
   -3.7260    3.1020  -20.1390 F   0  0  0  0  0  0
    1.8200    5.9780  -22.8860 N   0  0  0  0  0  0
    4.0350    5.0470  -22.9720 N   0  0  0  0  0  0
    0.2950    2.5160  -24.6930 N   0  0  0  0  0  0
    4.4710    2.8500  -23.6070 N   0  0  0  0  0  0
    6.5000    1.1010  -22.4910 N   0  0  1  0  0  0
   -3.8410    3.8060  -27.7920 O   0  0  0  0  0  0
   -5.9796    3.6712  -21.1226 H   0  0  0  0  0  0
   -6.4675    4.0037  -23.5091 H   0  0  0  0  0  0
    5.6179    3.9906  -21.2849 H   0  0  0  0  0  0
    6.8763    3.0060  -20.4159 H   0  0  0  0  0  0
    6.3275    2.7150  -24.6604 H   0  0  0  0  0  0
    6.0833    4.2460  -23.7593 H   0  0  0  0  0  0
   -5.6765    4.0776  -25.8762 H   0  0  0  0  0  0
    2.2385    1.7718  -24.6821 H   0  0  0  0  0  0
    3.1157    1.3435  -22.7939 H   0  0  0  0  0  0
    4.3144    0.7047  -23.9826 H   0  0  0  0  0  0
    4.8700    0.0218  -21.6387 H   0  0  0  0  0  0
    7.7578    2.8293  -22.5885 H   0  0  0  0  0  0
    4.1018    2.5236  -20.7805 H   0  0  0  0  0  0
    5.3877    1.5123  -19.9097 H   0  0  0  0  0  0
   -1.5411    3.5789  -26.8099 H   0  0  0  0  0  0
    0.3934    2.1519  -20.7378 H   0  0  0  0  0  0
    7.1492    0.5983  -21.7894 H   0  0  0  0  0  0
   -2.9984    3.7179  -28.2217 H   0  0  0  0  0  0
    7.5300    9.4620  -22.9460 O   0  0  0  0  0  0
    4.4410    7.1980  -20.9650 N   0  0  1  0  0  0
    6.2090    9.1860  -22.5290 N   0  0  0  0  0  0
    5.0950    8.4550  -20.4530 C   0  0  0  0  0  0
    3.7060    7.3460  -22.2710 C   0  0  0  0  0  0
    6.3080    8.8400  -21.2810 C   0  0  0  0  0  0
    8.1930    8.5340  -19.4530 C   0  0  0  0  0  0
    8.3270    9.2560  -21.8980 C   0  0  0  0  0  0
    7.6500    8.8690  -20.8270 C   0  0  0  0  0  0
    5.1929    6.4381  -21.1190 H   0  0  0  0  0  0
    5.3981    8.3099  -19.4056 H   0  0  0  0  0  0
    4.3662    9.2788  -20.4680 H   0  0  0  0  0  0
    4.3917    7.7438  -23.0336 H   0  0  0  0  0  0
    2.8850    8.0680  -22.1500 H   0  0  0  0  0  0
    9.2853    8.6640  -19.4480 H   0  0  0  0  0  0
    7.7420    9.2050  -18.7070 H   0  0  0  0  0  0
    7.9459    7.4915  -19.2039 H   0  0  0  0  0  0
    9.4088    9.3701  -21.8470 H   0  0  0  0  0  0
  1  2  2  0  0  0
  1  3  1  0  0  0
  1 34  1  0  0  0
  2  6  1  0  0  0
  2 35  1  0  0  0
  3  5  2  0  0  0
  3 27  1  0  0  0
  4  5  1  0  0  0
  4  6  2  0  0  0
  4 18  1  0  0  0
  5 24  1  0  0  0
  6 10  1  0  0  0
  7 10  2  0  0  0
  7 23  1  0  0  0
  7 33  1  0  0  0
  8 21  1  0  0  0
  8 22  1  0  0  0
  8 36  1  0  0  0
  8 37  1  0  0  0
  9 21  1  0  0  0
  9 31  1  0  0  0
  9 38  1  0  0  0
  9 39  1  0  0  0
 10 40  1  0  0  0
 11 12  1  0  0  0
 11 14  2  0  0  0
 11 15  1  0  0  0
 12 17  1  0  0  0
 12 28  2  0  0  0
 13 28  1  0  0  0
 13 29  2  0  0  0
 13 56  1  0  0  0
 14 29  1  0  0  0
 14 31  1  0  0  0
 15 30  2  0  0  0
 15 41  1  0  0  0
 16 17  2  0  0  0
 16 18  1  0  0  0
 16 30  1  0  0  0
 17 26  1  0  0  0
 18 23  2  0  0  0
 19 20  1  0  0  0
 19 31  1  0  0  0
 19 42  1  0  0  0
 19 43  1  0  0  0
 20 22  1  0  0  0
 20 32  1  0  0  0
 20 44  1  0  0  0
 21 32  1  0  0  0
 21 45  1  0  0  0
 22 46  1  0  0  0
 22 47  1  0  0  0
 23 48  1  0  0  0
 24 25  3  0  0  0
 25 49  1  0  0  0
 32 50  1  0  0  0
 33 51  1  0  0  0
 52 54  1  0  0  0
 52 59  1  0  0  0
 53 55  1  0  0  0
 53 56  1  0  0  0
 53 61  1  0  0  0
 54 57  2  0  0  0
 55 57  1  0  0  0
 55 62  1  0  0  0
 55 63  1  0  0  0
 56 64  1  0  0  0
 56 65  1  0  0  0
 57 60  1  0  0  0
 58 60  1  0  0  0
 58 66  1  0  0  0
 58 67  1  0  0  0
 58 68  1  0  0  0
 59 60  2  0  0  0
 59 69  1  0  0  0
M  END
> <s_m_entry_id>
448

> <s_m_entry_name>
000000290.1

> <s_m_Source_Path>
/Users/zaksoul/Documents/3r_UNI/2nd_SEMESTER/BSC/FRAG_RECON/RESULTS/2

> <s_m_Source_File>
000000290.mol2

> <i_m_Source_File_Index>
1

$$$$
No_0_308
                    3D
 Schrodinger Suite 2022-4.
 69 75  0  0  1  0            999 V2000
   -5.1810    3.6090  -21.8530 C   0  0  0  0  0  0
   -5.4520    3.8050  -23.1860 C   0  0  0  0  0  0
   -3.9420    3.3510  -21.5190 C   0  0  0  0  0  0
   -3.0590    3.4860  -23.6870 C   0  0  0  0  0  0
   -2.8930    3.2340  -22.2690 C   0  0  0  0  0  0
   -4.4090    3.7540  -24.2010 C   0  0  0  0  0  0
   -3.6630    3.7850  -26.4030 C   0  0  0  0  0  0
    6.0870    3.0010  -21.1820 C   0  0  0  0  0  0
    5.9380    3.1560  -23.7310 C   0  0  0  0  0  0
   -4.6650    3.8890  -25.5350 C   0  0  0  0  0  0
    2.1540    3.7130  -23.7290 C   0  0  0  0  0  0
    1.3370    4.8230  -23.4210 C   0  0  0  0  0  0
    3.1410    6.0110  -22.7430 C   0  0  0  0  0  0
    3.5570    3.8990  -23.4210 C   0  0  0  0  0  0
    1.6030    2.6010  -24.3930 C   0  0  0  0  0  0
   -0.5220    3.4190  -24.2700 C   0  0  0  0  0  0
    0.0100    4.6350  -23.6670 C   0  0  0  0  0  0
   -1.9770    3.4300  -24.6180 C   0  0  0  0  0  0
    4.1570    1.3990  -23.1440 C   0  0  0  0  0  0
    5.0950    1.0350  -22.0030 C   0  0  2  0  0  0
    6.6890    2.5740  -22.5390 C   0  0  2  0  0  0
    5.0840    2.0310  -20.8310 C   0  0  0  0  0  0
   -2.3080    3.5970  -26.0440 C   0  0  0  0  0  0
   -1.5470    2.8150  -21.6780 C   0  0  0  0  0  0
   -0.5150    2.4620  -21.1780 C   0  0  0  0  0  0
   -0.8280    5.6800  -23.3140 F   0  0  0  0  0  0
   -3.7260    3.1020  -20.1390 F   0  0  0  0  0  0
    1.8200    5.9780  -22.8860 N   0  0  0  0  0  0
    4.0350    5.0470  -22.9720 N   0  0  0  0  0  0
    0.2950    2.5160  -24.6930 N   0  0  0  0  0  0
    4.4710    2.8500  -23.6070 N   0  0  0  0  0  0
    6.5000    1.1010  -22.4910 N   0  0  1  0  0  0
   -3.8410    3.8060  -27.7920 O   0  0  0  0  0  0
   -5.9796    3.6712  -21.1226 H   0  0  0  0  0  0
   -6.4675    4.0037  -23.5091 H   0  0  0  0  0  0
    5.6179    3.9906  -21.2849 H   0  0  0  0  0  0
    6.8763    3.0060  -20.4159 H   0  0  0  0  0  0
    6.3275    2.7150  -24.6604 H   0  0  0  0  0  0
    6.0833    4.2460  -23.7593 H   0  0  0  0  0  0
   -5.6765    4.0776  -25.8762 H   0  0  0  0  0  0
    2.2385    1.7718  -24.6821 H   0  0  0  0  0  0
    3.1157    1.3435  -22.7939 H   0  0  0  0  0  0
    4.3144    0.7047  -23.9826 H   0  0  0  0  0  0
    4.8700    0.0218  -21.6387 H   0  0  0  0  0  0
    7.7578    2.8293  -22.5885 H   0  0  0  0  0  0
    4.1018    2.5236  -20.7805 H   0  0  0  0  0  0
    5.3877    1.5123  -19.9097 H   0  0  0  0  0  0
   -1.5411    3.5789  -26.8099 H   0  0  0  0  0  0
    0.3934    2.1519  -20.7378 H   0  0  0  0  0  0
    7.1492    0.5983  -21.7894 H   0  0  0  0  0  0
   -2.9984    3.7179  -28.2217 H   0  0  0  0  0  0
    7.1150    9.8530  -23.5540 O   0  0  0  0  0  0
    4.7310    7.1530  -21.1840 N   0  0  1  0  0  0
    5.9490    9.4220  -22.8850 N   0  0  0  0  0  0
    5.3970    8.4150  -20.7020 C   0  0  0  0  0  0
    3.7060    7.3460  -22.2710 C   0  0  0  0  0  0
    6.3570    8.9800  -21.7340 C   0  0  0  0  0  0
    8.6290    8.6900  -20.4140 C   0  0  0  0  0  0
    8.1450    9.6300  -22.7380 C   0  0  0  0  0  0
    7.7620    9.0910  -21.5900 C   0  0  0  0  0  0
    5.4777    6.4812  -21.5809 H   0  0  0  0  0  0
    5.9423    8.2079  -19.7694 H   0  0  0  0  0  0
    4.6292    9.1668  -20.4671 H   0  0  0  0  0  0
    4.1681    7.8691  -23.1212 H   0  0  0  0  0  0
    2.8875    7.9773  -21.8948 H   0  0  0  0  0  0
    9.6811    8.9180  -20.6400 H   0  0  0  0  0  0
    8.3170    9.2500  -19.5201 H   0  0  0  0  0  0
    8.5190    7.6114  -20.2281 H   0  0  0  0  0  0
    9.1989    9.8370  -22.9180 H   0  0  0  0  0  0
  1  2  2  0  0  0
  1  3  1  0  0  0
  1 34  1  0  0  0
  2  6  1  0  0  0
  2 35  1  0  0  0
  3  5  2  0  0  0
  3 27  1  0  0  0
  4  5  1  0  0  0
  4  6  2  0  0  0
  4 18  1  0  0  0
  5 24  1  0  0  0
  6 10  1  0  0  0
  7 10  2  0  0  0
  7 23  1  0  0  0
  7 33  1  0  0  0
  8 21  1  0  0  0
  8 22  1  0  0  0
  8 36  1  0  0  0
  8 37  1  0  0  0
  9 21  1  0  0  0
  9 31  1  0  0  0
  9 38  1  0  0  0
  9 39  1  0  0  0
 10 40  1  0  0  0
 11 12  1  0  0  0
 11 14  2  0  0  0
 11 15  1  0  0  0
 12 17  1  0  0  0
 12 28  2  0  0  0
 13 28  1  0  0  0
 13 29  2  0  0  0
 13 56  1  0  0  0
 14 29  1  0  0  0
 14 31  1  0  0  0
 15 30  2  0  0  0
 15 41  1  0  0  0
 16 17  2  0  0  0
 16 18  1  0  0  0
 16 30  1  0  0  0
 17 26  1  0  0  0
 18 23  2  0  0  0
 19 20  1  0  0  0
 19 31  1  0  0  0
 19 42  1  0  0  0
 19 43  1  0  0  0
 20 22  1  0  0  0
 20 32  1  0  0  0
 20 44  1  0  0  0
 21 32  1  0  0  0
 21 45  1  0  0  0
 22 46  1  0  0  0
 22 47  1  0  0  0
 23 48  1  0  0  0
 24 25  3  0  0  0
 25 49  1  0  0  0
 32 50  1  0  0  0
 33 51  1  0  0  0
 52 54  1  0  0  0
 52 59  1  0  0  0
 53 55  1  0  0  0
 53 56  1  0  0  0
 53 61  1  0  0  0
 54 57  2  0  0  0
 55 57  1  0  0  0
 55 62  1  0  0  0
 55 63  1  0  0  0
 56 64  1  0  0  0
 56 65  1  0  0  0
 57 60  1  0  0  0
 58 60  1  0  0  0
 58 66  1  0  0  0
 58 67  1  0  0  0
 58 68  1  0  0  0
 59 60  2  0  0  0
 59 69  1  0  0  0
M  END
> <s_m_entry_id>
449

> <s_m_entry_name>
000000291.1

> <s_m_Source_Path>
/Users/zaksoul/Documents/3r_UNI/2nd_SEMESTER/BSC/FRAG_RECON/RESULTS/2

> <s_m_Source_File>
000000291.mol2

> <i_m_Source_File_Index>
1

$$$$
No_0_309
                    3D
 Schrodinger Suite 2022-4.
 69 75  0  0  1  0            999 V2000
   -5.2450    3.5110  -21.7960 C   0  0  0  0  0  0
   -5.5180    3.7100  -23.1280 C   0  0  0  0  0  0
   -4.0060    3.2510  -21.4640 C   0  0  0  0  0  0
   -3.1270    3.3890  -23.6330 C   0  0  0  0  0  0
   -2.9590    3.1350  -22.2150 C   0  0  0  0  0  0
   -4.4760    3.6600  -24.1450 C   0  0  0  0  0  0
   -3.7330    3.6940  -26.3470 C   0  0  0  0  0  0
    6.0230    2.8900  -21.1410 C   0  0  0  0  0  0
    5.8700    3.0500  -23.6890 C   0  0  0  0  0  0
   -4.7340    3.7970  -25.4780 C   0  0  0  0  0  0
    2.0880    3.6110  -23.6810 C   0  0  0  0  0  0
    1.2720    4.7210  -23.3700 C   0  0  0  0  0  0
    3.0780    5.9060  -22.6930 C   0  0  0  0  0  0
    3.4900    3.7950  -23.3750 C   0  0  0  0  0  0
    1.5340    2.5010  -24.3470 C   0  0  0  0  0  0
   -0.5900    3.3210  -24.2190 C   0  0  0  0  0  0
   -0.0560    4.5350  -23.6150 C   0  0  0  0  0  0
   -2.0450    3.3340  -24.5650 C   0  0  0  0  0  0
    4.0890    1.2930  -23.1030 C   0  0  0  0  0  0
    5.0270    0.9270  -21.9640 C   0  0  2  0  0  0
    6.6230    2.4650  -22.4990 C   0  0  2  0  0  0
    5.0200    1.9200  -20.7900 C   0  0  0  0  0  0
   -2.3780    3.5040  -25.9900 C   0  0  0  0  0  0
   -1.6130    2.7130  -21.6270 C   0  0  0  0  0  0
   -0.5800    2.3580  -21.1290 C   0  0  0  0  0  0
   -0.8920    5.5810  -23.2590 F   0  0  0  0  0  0
   -3.7890    2.9990  -20.0840 F   0  0  0  0  0  0
    1.7560    5.8750  -22.8340 N   0  0  0  0  0  0
    3.9700    4.9410  -22.9240 N   0  0  0  0  0  0
    0.2250    2.4180  -24.6460 N   0  0  0  0  0  0
    4.4040    2.7450  -23.5640 N   0  0  0  0  0  0
    6.4320    0.9920  -22.4540 N   0  0  1  0  0  0
   -3.9140    3.7190  -27.7360 O   0  0  0  0  0  0
   -6.0427    3.5722  -21.0645 H   0  0  0  0  0  0
   -6.5337    3.9107  -23.4492 H   0  0  0  0  0  0
    5.5550    3.8804  -21.2419 H   0  0  0  0  0  0
    6.8138    2.8930  -20.3764 H   0  0  0  0  0  0
    6.2576    2.6099  -24.6196 H   0  0  0  0  0  0
    6.0173    4.1398  -23.7152 H   0  0  0  0  0  0
   -5.7457    3.9877  -25.8173 H   0  0  0  0  0  0
    2.1681    1.6713  -24.6379 H   0  0  0  0  0  0
    3.0479    1.2385  -22.7519 H   0  0  0  0  0  0
    4.2434    0.6006  -23.9437 H   0  0  0  0  0  0
    4.8020   -0.0870  -21.6018 H   0  0  0  0  0  0
    7.6919    2.7194  -22.5505 H   0  0  0  0  0  0
    4.0383    2.4134  -20.7375 H   0  0  0  0  0  0
    5.3239    1.3990  -19.8701 H   0  0  0  0  0  0
   -1.6131    3.4869  -26.7579 H   0  0  0  0  0  0
    0.3286    2.0458  -20.6907 H   0  0  0  0  0  0
    7.0814    0.4870  -21.7543 H   0  0  0  0  0  0
   -3.0718    3.6299  -28.1665 H   0  0  0  0  0  0
    6.4860   10.1490  -23.9560 O   0  0  0  0  0  0
    4.9050    7.0440  -21.4160 N   0  0  1  0  0  0
    5.5380    9.5560  -23.0930 N   0  0  0  0  0  0
    5.5760    8.3140  -20.9620 C   0  0  0  0  0  0
    3.6450    7.2400  -22.2180 C   0  0  0  0  0  0
    6.2310    9.0530  -22.1170 C   0  0  0  0  0  0
    8.7610    8.8540  -21.3780 C   0  0  0  0  0  0
    7.6890    9.9490  -23.4200 C   0  0  0  0  0  0
    7.6200    9.2770  -22.2800 C   0  0  0  0  0  0
    5.5831    6.4799  -22.0391 H   0  0  0  0  0  0
    6.3362    8.0749  -20.2038 H   0  0  0  0  0  0
    4.8345    8.9694  -20.4817 H   0  0  0  0  0  0
    3.8610    7.8761  -23.0891 H   0  0  0  0  0  0
    2.8947    7.7582  -21.6028 H   0  0  0  0  0  0
    9.7148    9.1949  -21.8069 H   0  0  0  0  0  0
    8.6270    9.3010  -20.3819 H   0  0  0  0  0  0
    8.7710    7.7577  -21.2880 H   0  0  0  0  0  0
    8.6562   10.2651  -23.8081 H   0  0  0  0  0  0
  1  2  2  0  0  0
  1  3  1  0  0  0
  1 34  1  0  0  0
  2  6  1  0  0  0
  2 35  1  0  0  0
  3  5  2  0  0  0
  3 27  1  0  0  0
  4  5  1  0  0  0
  4  6  2  0  0  0
  4 18  1  0  0  0
  5 24  1  0  0  0
  6 10  1  0  0  0
  7 10  2  0  0  0
  7 23  1  0  0  0
  7 33  1  0  0  0
  8 21  1  0  0  0
  8 22  1  0  0  0
  8 36  1  0  0  0
  8 37  1  0  0  0
  9 21  1  0  0  0
  9 31  1  0  0  0
  9 38  1  0  0  0
  9 39  1  0  0  0
 10 40  1  0  0  0
 11 12  1  0  0  0
 11 14  2  0  0  0
 11 15  1  0  0  0
 12 17  1  0  0  0
 12 28  2  0  0  0
 13 28  1  0  0  0
 13 29  2  0  0  0
 13 56  1  0  0  0
 14 29  1  0  0  0
 14 31  1  0  0  0
 15 30  2  0  0  0
 15 41  1  0  0  0
 16 17  2  0  0  0
 16 18  1  0  0  0
 16 30  1  0  0  0
 17 26  1  0  0  0
 18 23  2  0  0  0
 19 20  1  0  0  0
 19 31  1  0  0  0
 19 42  1  0  0  0
 19 43  1  0  0  0
 20 22  1  0  0  0
 20 32  1  0  0  0
 20 44  1  0  0  0
 21 32  1  0  0  0
 21 45  1  0  0  0
 22 46  1  0  0  0
 22 47  1  0  0  0
 23 48  1  0  0  0
 24 25  3  0  0  0
 25 49  1  0  0  0
 32 50  1  0  0  0
 33 51  1  0  0  0
 52 54  1  0  0  0
 52 59  1  0  0  0
 53 55  1  0  0  0
 53 56  1  0  0  0
 53 61  1  0  0  0
 54 57  2  0  0  0
 55 57  1  0  0  0
 55 62  1  0  0  0
 55 63  1  0  0  0
 56 64  1  0  0  0
 56 65  1  0  0  0
 57 60  1  0  0  0
 58 60  1  0  0  0
 58 66  1  0  0  0
 58 67  1  0  0  0
 58 68  1  0  0  0
 59 60  2  0  0  0
 59 69  1  0  0  0
M  END
> <s_m_entry_id>
450

> <s_m_entry_name>
000000292.1

> <s_m_Source_Path>
/Users/zaksoul/Documents/3r_UNI/2nd_SEMESTER/BSC/FRAG_RECON/RESULTS/2

> <s_m_Source_File>
000000292.mol2

> <i_m_Source_File_Index>
1

$$$$
No_0_310
                    3D
 Schrodinger Suite 2022-4.
 73 79  0  0  1  0            999 V2000
   -4.9260    3.5110  -22.1810 C   0  0  0  0  0  0
   -5.1930    3.7090  -23.5150 C   0  0  0  0  0  0
   -3.6880    3.2510  -21.8430 C   0  0  0  0  0  0
   -2.7990    3.3870  -24.0090 C   0  0  0  0  0  0
   -2.6380    3.1330  -22.5900 C   0  0  0  0  0  0
   -4.1460    3.6580  -24.5260 C   0  0  0  0  0  0
   -3.3930    3.6900  -26.7250 C   0  0  0  0  0  0
    6.3390    2.8820  -21.4760 C   0  0  0  0  0  0
    6.1980    3.0400  -24.0240 C   0  0  0  0  0  0
   -4.3980    3.7950  -25.8610 C   0  0  0  0  0  0
    2.4150    3.6050  -24.0340 C   0  0  0  0  0  0
    1.6000    4.7150  -23.7270 C   0  0  0  0  0  0
    3.4040    5.8990  -23.0420 C   0  0  0  0  0  0
    3.8170    3.7870  -23.7210 C   0  0  0  0  0  0
    1.8640    2.4940  -24.7010 C   0  0  0  0  0  0
   -0.2600    3.3160  -24.5830 C   0  0  0  0  0  0
    0.2730    4.5300  -23.9770 C   0  0  0  0  0  0
   -1.7130    3.3300  -24.9360 C   0  0  0  0  0  0
    4.4120    1.2850  -23.4450 C   0  0  0  0  0  0
    5.3460    0.9180  -22.3020 C   0  0  2  0  0  0
    6.9450    2.4560  -22.8310 C   0  0  2  0  0  0
    5.3330    1.9130  -21.1290 C   0  0  0  0  0  0
   -2.0400    3.5000  -26.3620 C   0  0  0  0  0  0
   -1.2940    2.7100  -21.9950 C   0  0  0  0  0  0
   -0.2650    2.3550  -21.4930 C   0  0  0  0  0  0
   -0.5640    5.5770  -23.6250 F   0  0  0  0  0  0
   -3.4770    2.9990  -20.4620 F   0  0  0  0  0  0
    2.0820    5.8680  -23.1890 N   0  0  0  0  0  0
    4.2960    4.9330  -23.2690 N   0  0  0  0  0  0
    0.5560    2.4120  -25.0050 N   0  0  0  0  0  0
    4.7300    2.7370  -23.9060 N   0  0  0  0  0  0
    6.7520    0.9820  -22.7850 N   0  0  1  0  0  0
   -3.5680    3.7140  -28.1150 O   0  0  0  0  0  0
   -5.7265    3.5732  -21.4527 H   0  0  0  0  0  0
   -6.2071    3.9108  -23.8403 H   0  0  0  0  0  0
    5.8719    3.8726  -21.5789 H   0  0  0  0  0  0
    7.1258    2.8840  -20.7073 H   0  0  0  0  0  0
    6.5894    2.6001  -24.9531 H   0  0  0  0  0  0
    6.3453    4.1298  -24.0502 H   0  0  0  0  0  0
   -5.4083    3.9858  -26.2045 H   0  0  0  0  0  0
    2.4985    1.6637  -24.9891 H   0  0  0  0  0  0
    3.3693    1.2315  -23.0988 H   0  0  0  0  0  0
    4.5705    0.5914  -24.2839 H   0  0  0  0  0  0
    5.1179   -0.0953  -21.9397 H   0  0  0  0  0  0
    8.0146    2.7085  -22.8775 H   0  0  0  0  0  0
    4.3517    2.4077  -21.0805 H   0  0  0  0  0  0
    5.6325    1.3927  -20.2073 H   0  0  0  0  0  0
   -1.2716    3.4809  -27.1264 H   0  0  0  0  0  0
    0.6413    2.0422  -21.0503 H   0  0  0  0  0  0
    7.3981    0.4771  -22.0822 H   0  0  0  0  0  0
   -2.7238    3.6249  -28.5415 H   0  0  0  0  0  0
    6.1270    6.6180  -19.0170 Cl  0  0  0  0  0  0
    3.6450    7.4910  -21.1180 N   0  0  1  0  0  0
    7.6990    9.4710  -21.1490 N   0  0  0  0  0  0
    6.3920    9.7740  -21.3230 N   0  0  0  0  0  0
    4.1920    8.7780  -20.5530 C   0  0  0  0  0  0
    5.7100    8.8350  -20.6170 C   0  0  0  0  0  0
    3.9690    7.2330  -22.5660 C   0  0  0  0  0  0
    6.5430    7.9790  -20.0160 C   0  0  0  0  0  0
    5.9000   10.8940  -22.1320 C   0  0  0  0  0  0
    9.1530    7.8120  -19.9980 C   0  0  0  0  0  0
    7.8210    8.4170  -20.3830 C   0  0  0  0  0  0
    4.0440    6.6561  -20.5611 H   0  0  0  0  0  0
    3.8649    8.8880  -19.5086 H   0  0  0  0  0  0
    3.7711    9.6288  -21.1089 H   0  0  0  0  0  0
    5.0603    7.2370  -22.7039 H   0  0  0  0  0  0
    3.5589    8.0452  -23.1842 H   0  0  0  0  0  0
    4.8005   10.9120  -22.1040 H   0  0  0  0  0  0
    6.2920   11.8390  -21.7280 H   0  0  0  0  0  0
    6.2370   10.7720  -23.1720 H   0  0  0  0  0  0
    8.9860    6.9381  -19.3511 H   0  0  0  0  0  0
    9.6893    7.4978  -20.9055 H   0  0  0  0  0  0
    9.7532    8.5582  -19.4568 H   0  0  0  0  0  0
  1  2  2  0  0  0
  1  3  1  0  0  0
  1 34  1  0  0  0
  2  6  1  0  0  0
  2 35  1  0  0  0
  3  5  2  0  0  0
  3 27  1  0  0  0
  4  5  1  0  0  0
  4  6  2  0  0  0
  4 18  1  0  0  0
  5 24  1  0  0  0
  6 10  1  0  0  0
  7 10  2  0  0  0
  7 23  1  0  0  0
  7 33  1  0  0  0
  8 21  1  0  0  0
  8 22  1  0  0  0
  8 36  1  0  0  0
  8 37  1  0  0  0
  9 21  1  0  0  0
  9 31  1  0  0  0
  9 38  1  0  0  0
  9 39  1  0  0  0
 10 40  1  0  0  0
 11 12  1  0  0  0
 11 14  2  0  0  0
 11 15  1  0  0  0
 12 17  1  0  0  0
 12 28  2  0  0  0
 13 28  1  0  0  0
 13 29  2  0  0  0
 13 58  1  0  0  0
 14 29  1  0  0  0
 14 31  1  0  0  0
 15 30  2  0  0  0
 15 41  1  0  0  0
 16 17  2  0  0  0
 16 18  1  0  0  0
 16 30  1  0  0  0
 17 26  1  0  0  0
 18 23  2  0  0  0
 19 20  1  0  0  0
 19 31  1  0  0  0
 19 42  1  0  0  0
 19 43  1  0  0  0
 20 22  1  0  0  0
 20 32  1  0  0  0
 20 44  1  0  0  0
 21 32  1  0  0  0
 21 45  1  0  0  0
 22 46  1  0  0  0
 22 47  1  0  0  0
 23 48  1  0  0  0
 24 25  3  0  0  0
 25 49  1  0  0  0
 32 50  1  0  0  0
 33 51  1  0  0  0
 52 59  1  0  0  0
 53 56  1  0  0  0
 53 58  1  0  0  0
 53 63  1  0  0  0
 54 55  1  0  0  0
 54 62  2  0  0  0
 55 57  1  0  0  0
 55 60  1  0  0  0
 56 57  1  0  0  0
 56 64  1  0  0  0
 56 65  1  0  0  0
 57 59  2  0  0  0
 58 66  1  0  0  0
 58 67  1  0  0  0
 59 62  1  0  0  0
 60 68  1  0  0  0
 60 69  1  0  0  0
 60 70  1  0  0  0
 61 62  1  0  0  0
 61 71  1  0  0  0
 61 72  1  0  0  0
 61 73  1  0  0  0
M  END
> <s_m_entry_id>
451

> <s_m_entry_name>
000000293.1

> <s_m_Source_Path>
/Users/zaksoul/Documents/3r_UNI/2nd_SEMESTER/BSC/FRAG_RECON/RESULTS/2

> <s_m_Source_File>
000000293.mol2

> <i_m_Source_File_Index>
1

$$$$
No_0_311
                    3D
 Schrodinger Suite 2022-4.
 73 79  0  0  1  0            999 V2000
   -5.1810    3.6090  -21.8530 C   0  0  0  0  0  0
   -5.4520    3.8050  -23.1860 C   0  0  0  0  0  0
   -3.9420    3.3510  -21.5190 C   0  0  0  0  0  0
   -3.0590    3.4860  -23.6870 C   0  0  0  0  0  0
   -2.8930    3.2340  -22.2690 C   0  0  0  0  0  0
   -4.4090    3.7540  -24.2010 C   0  0  0  0  0  0
   -3.6630    3.7850  -26.4030 C   0  0  0  0  0  0
    6.0870    3.0010  -21.1820 C   0  0  0  0  0  0
    5.9380    3.1560  -23.7310 C   0  0  0  0  0  0
   -4.6650    3.8890  -25.5350 C   0  0  0  0  0  0
    2.1540    3.7130  -23.7290 C   0  0  0  0  0  0
    1.3370    4.8230  -23.4210 C   0  0  0  0  0  0
    3.1410    6.0110  -22.7430 C   0  0  0  0  0  0
    3.5570    3.8990  -23.4210 C   0  0  0  0  0  0
    1.6030    2.6010  -24.3930 C   0  0  0  0  0  0
   -0.5220    3.4190  -24.2700 C   0  0  0  0  0  0
    0.0100    4.6350  -23.6670 C   0  0  0  0  0  0
   -1.9770    3.4300  -24.6180 C   0  0  0  0  0  0
    4.1570    1.3990  -23.1440 C   0  0  0  0  0  0
    5.0950    1.0350  -22.0030 C   0  0  2  0  0  0
    6.6890    2.5740  -22.5390 C   0  0  2  0  0  0
    5.0840    2.0310  -20.8310 C   0  0  0  0  0  0
   -2.3080    3.5970  -26.0440 C   0  0  0  0  0  0
   -1.5470    2.8150  -21.6780 C   0  0  0  0  0  0
   -0.5150    2.4620  -21.1780 C   0  0  0  0  0  0
   -0.8280    5.6800  -23.3140 F   0  0  0  0  0  0
   -3.7260    3.1020  -20.1390 F   0  0  0  0  0  0
    1.8200    5.9780  -22.8860 N   0  0  0  0  0  0
    4.0350    5.0470  -22.9720 N   0  0  0  0  0  0
    0.2950    2.5160  -24.6930 N   0  0  0  0  0  0
    4.4710    2.8500  -23.6070 N   0  0  0  0  0  0
    6.5000    1.1010  -22.4910 N   0  0  1  0  0  0
   -3.8410    3.8060  -27.7920 O   0  0  0  0  0  0
   -5.9796    3.6712  -21.1226 H   0  0  0  0  0  0
   -6.4675    4.0037  -23.5091 H   0  0  0  0  0  0
    5.6179    3.9906  -21.2849 H   0  0  0  0  0  0
    6.8763    3.0060  -20.4159 H   0  0  0  0  0  0
    6.3275    2.7150  -24.6604 H   0  0  0  0  0  0
    6.0833    4.2460  -23.7593 H   0  0  0  0  0  0
   -5.6765    4.0776  -25.8762 H   0  0  0  0  0  0
    2.2385    1.7718  -24.6821 H   0  0  0  0  0  0
    3.1157    1.3435  -22.7939 H   0  0  0  0  0  0
    4.3144    0.7047  -23.9826 H   0  0  0  0  0  0
    4.8700    0.0218  -21.6387 H   0  0  0  0  0  0
    7.7578    2.8293  -22.5885 H   0  0  0  0  0  0
    4.1018    2.5236  -20.7805 H   0  0  0  0  0  0
    5.3877    1.5123  -19.9097 H   0  0  0  0  0  0
   -1.5411    3.5789  -26.8099 H   0  0  0  0  0  0
    0.3934    2.1519  -20.7378 H   0  0  0  0  0  0
    7.1492    0.5983  -21.7894 H   0  0  0  0  0  0
   -2.9984    3.7179  -28.2217 H   0  0  0  0  0  0
    6.6710    6.6360  -19.3840 Cl  0  0  0  0  0  0
    3.7120    7.4490  -20.7680 N   0  0  1  0  0  0
    7.4950    9.7940  -21.5070 N   0  0  0  0  0  0
    6.1640    9.9870  -21.3490 N   0  0  0  0  0  0
    4.2820    8.7290  -20.2100 C   0  0  0  0  0  0
    5.7350    8.9320  -20.6080 C   0  0  0  0  0  0
    3.7060    7.3460  -22.2710 C   0  0  0  0  0  0
    6.7440    8.1100  -20.3030 C   0  0  0  0  0  0
    5.4190   11.1210  -21.9050 C   0  0  0  0  0  0
    9.2910    8.1860  -20.8920 C   0  0  0  0  0  0
    7.8670    8.6950  -20.9020 C   0  0  0  0  0  0
    4.2879    6.6101  -20.4061 H   0  0  0  0  0  0
    4.2010    8.7180  -19.1130 H   0  0  0  0  0  0
    3.6832    9.5807  -20.5649 H   0  0  0  0  0  0
    4.7319    7.4640  -22.6500 H   0  0  0  0  0  0
    3.1063    8.1666  -22.6918 H   0  0  0  0  0  0
    4.3582   11.0350  -21.6270 H   0  0  0  0  0  0
    5.8259   12.0607  -21.5031 H   0  0  0  0  0  0
    5.5120   11.1210  -23.0011 H   0  0  0  0  0  0
    9.3430    7.2486  -20.3188 H   0  0  0  0  0  0
    9.6219    8.0020  -21.9248 H   0  0  0  0  0  0
    9.9460    8.9369  -20.4260 H   0  0  0  0  0  0
  1  2  2  0  0  0
  1  3  1  0  0  0
  1 34  1  0  0  0
  2  6  1  0  0  0
  2 35  1  0  0  0
  3  5  2  0  0  0
  3 27  1  0  0  0
  4  5  1  0  0  0
  4  6  2  0  0  0
  4 18  1  0  0  0
  5 24  1  0  0  0
  6 10  1  0  0  0
  7 10  2  0  0  0
  7 23  1  0  0  0
  7 33  1  0  0  0
  8 21  1  0  0  0
  8 22  1  0  0  0
  8 36  1  0  0  0
  8 37  1  0  0  0
  9 21  1  0  0  0
  9 31  1  0  0  0
  9 38  1  0  0  0
  9 39  1  0  0  0
 10 40  1  0  0  0
 11 12  1  0  0  0
 11 14  2  0  0  0
 11 15  1  0  0  0
 12 17  1  0  0  0
 12 28  2  0  0  0
 13 28  1  0  0  0
 13 29  2  0  0  0
 13 58  1  0  0  0
 14 29  1  0  0  0
 14 31  1  0  0  0
 15 30  2  0  0  0
 15 41  1  0  0  0
 16 17  2  0  0  0
 16 18  1  0  0  0
 16 30  1  0  0  0
 17 26  1  0  0  0
 18 23  2  0  0  0
 19 20  1  0  0  0
 19 31  1  0  0  0
 19 42  1  0  0  0
 19 43  1  0  0  0
 20 22  1  0  0  0
 20 32  1  0  0  0
 20 44  1  0  0  0
 21 32  1  0  0  0
 21 45  1  0  0  0
 22 46  1  0  0  0
 22 47  1  0  0  0
 23 48  1  0  0  0
 24 25  3  0  0  0
 25 49  1  0  0  0
 32 50  1  0  0  0
 33 51  1  0  0  0
 52 59  1  0  0  0
 53 56  1  0  0  0
 53 58  1  0  0  0
 53 63  1  0  0  0
 54 55  1  0  0  0
 54 62  2  0  0  0
 55 57  1  0  0  0
 55 60  1  0  0  0
 56 57  1  0  0  0
 56 64  1  0  0  0
 56 65  1  0  0  0
 57 59  2  0  0  0
 58 66  1  0  0  0
 58 67  1  0  0  0
 59 62  1  0  0  0
 60 68  1  0  0  0
 60 69  1  0  0  0
 60 70  1  0  0  0
 61 62  1  0  0  0
 61 71  1  0  0  0
 61 72  1  0  0  0
 61 73  1  0  0  0
M  END
> <s_m_entry_id>
452

> <s_m_entry_name>
000000294.1

> <s_m_Source_Path>
/Users/zaksoul/Documents/3r_UNI/2nd_SEMESTER/BSC/FRAG_RECON/RESULTS/2

> <s_m_Source_File>
000000294.mol2

> <i_m_Source_File_Index>
1

$$$$
No_0_312
                    3D
 Schrodinger Suite 2022-4.
 73 79  0  0  1  0            999 V2000
   -5.1810    3.6090  -21.8530 C   0  0  0  0  0  0
   -5.4520    3.8050  -23.1860 C   0  0  0  0  0  0
   -3.9420    3.3510  -21.5190 C   0  0  0  0  0  0
   -3.0590    3.4860  -23.6870 C   0  0  0  0  0  0
   -2.8930    3.2340  -22.2690 C   0  0  0  0  0  0
   -4.4090    3.7540  -24.2010 C   0  0  0  0  0  0
   -3.6630    3.7850  -26.4030 C   0  0  0  0  0  0
    6.0870    3.0010  -21.1820 C   0  0  0  0  0  0
    5.9380    3.1560  -23.7310 C   0  0  0  0  0  0
   -4.6650    3.8890  -25.5350 C   0  0  0  0  0  0
    2.1540    3.7130  -23.7290 C   0  0  0  0  0  0
    1.3370    4.8230  -23.4210 C   0  0  0  0  0  0
    3.1410    6.0110  -22.7430 C   0  0  0  0  0  0
    3.5570    3.8990  -23.4210 C   0  0  0  0  0  0
    1.6030    2.6010  -24.3930 C   0  0  0  0  0  0
   -0.5220    3.4190  -24.2700 C   0  0  0  0  0  0
    0.0100    4.6350  -23.6670 C   0  0  0  0  0  0
   -1.9770    3.4300  -24.6180 C   0  0  0  0  0  0
    4.1570    1.3990  -23.1440 C   0  0  0  0  0  0
    5.0950    1.0350  -22.0030 C   0  0  2  0  0  0
    6.6890    2.5740  -22.5390 C   0  0  2  0  0  0
    5.0840    2.0310  -20.8310 C   0  0  0  0  0  0
   -2.3080    3.5970  -26.0440 C   0  0  0  0  0  0
   -1.5470    2.8150  -21.6780 C   0  0  0  0  0  0
   -0.5150    2.4620  -21.1780 C   0  0  0  0  0  0
   -0.8280    5.6800  -23.3140 F   0  0  0  0  0  0
   -3.7260    3.1020  -20.1390 F   0  0  0  0  0  0
    1.8200    5.9780  -22.8860 N   0  0  0  0  0  0
    4.0350    5.0470  -22.9720 N   0  0  0  0  0  0
    0.2950    2.5160  -24.6930 N   0  0  0  0  0  0
    4.4710    2.8500  -23.6070 N   0  0  0  0  0  0
    6.5000    1.1010  -22.4910 N   0  0  1  0  0  0
   -3.8410    3.8060  -27.7920 O   0  0  0  0  0  0
   -5.9796    3.6712  -21.1226 H   0  0  0  0  0  0
   -6.4675    4.0037  -23.5091 H   0  0  0  0  0  0
    5.6179    3.9906  -21.2849 H   0  0  0  0  0  0
    6.8763    3.0060  -20.4159 H   0  0  0  0  0  0
    6.3275    2.7150  -24.6604 H   0  0  0  0  0  0
    6.0833    4.2460  -23.7593 H   0  0  0  0  0  0
   -5.6765    4.0776  -25.8762 H   0  0  0  0  0  0
    2.2385    1.7718  -24.6821 H   0  0  0  0  0  0
    3.1157    1.3435  -22.7939 H   0  0  0  0  0  0
    4.3144    0.7047  -23.9826 H   0  0  0  0  0  0
    4.8700    0.0218  -21.6387 H   0  0  0  0  0  0
    7.7578    2.8293  -22.5885 H   0  0  0  0  0  0
    4.1018    2.5236  -20.7805 H   0  0  0  0  0  0
    5.3877    1.5123  -19.9097 H   0  0  0  0  0  0
   -1.5411    3.5789  -26.8099 H   0  0  0  0  0  0
    0.3934    2.1519  -20.7378 H   0  0  0  0  0  0
    7.1492    0.5983  -21.7894 H   0  0  0  0  0  0
   -2.9984    3.7179  -28.2217 H   0  0  0  0  0  0
    7.1890    6.6460  -20.0330 Cl  0  0  0  0  0  0
    3.9830    7.3420  -20.7900 N   0  0  1  0  0  0
    7.4240    9.9980  -21.9990 N   0  0  0  0  0  0
    6.1370   10.0840  -21.5900 N   0  0  0  0  0  0
    4.5720    8.6170  -20.2400 C   0  0  0  0  0  0
    5.9130    8.9510  -20.8740 C   0  0  0  0  0  0
    3.7060    7.3460  -22.2710 C   0  0  0  0  0  0
    7.0070    8.1840  -20.8250 C   0  0  0  0  0  0
    5.2380   11.1990  -21.9060 C   0  0  0  0  0  0
    9.3920    8.4830  -21.8530 C   0  0  0  0  0  0
    7.9640    8.8880  -21.5640 C   0  0  0  0  0  0
    4.6630    6.5230  -20.6080 H   0  0  0  0  0  0
    4.6960    8.5220  -19.1511 H   0  0  0  0  0  0
    3.8707    9.4474  -20.4091 H   0  0  0  0  0  0
    4.6358    7.5640  -22.8169 H   0  0  0  0  0  0
    2.9928    8.1492  -22.5081 H   0  0  0  0  0  0
    4.2532   11.0170  -21.4511 H   0  0  0  0  0  0
    5.6582   12.1344  -21.5078 H   0  0  0  0  0  0
    5.1270   11.2820  -22.9972 H   0  0  0  0  0  0
    9.6019    7.5133  -21.3781 H   0  0  0  0  0  0
    9.5370    8.3970  -22.9400 H   0  0  0  0  0  0
   10.0781    9.2431  -21.4510 H   0  0  0  0  0  0
  1  2  2  0  0  0
  1  3  1  0  0  0
  1 34  1  0  0  0
  2  6  1  0  0  0
  2 35  1  0  0  0
  3  5  2  0  0  0
  3 27  1  0  0  0
  4  5  1  0  0  0
  4  6  2  0  0  0
  4 18  1  0  0  0
  5 24  1  0  0  0
  6 10  1  0  0  0
  7 10  2  0  0  0
  7 23  1  0  0  0
  7 33  1  0  0  0
  8 21  1  0  0  0
  8 22  1  0  0  0
  8 36  1  0  0  0
  8 37  1  0  0  0
  9 21  1  0  0  0
  9 31  1  0  0  0
  9 38  1  0  0  0
  9 39  1  0  0  0
 10 40  1  0  0  0
 11 12  1  0  0  0
 11 14  2  0  0  0
 11 15  1  0  0  0
 12 17  1  0  0  0
 12 28  2  0  0  0
 13 28  1  0  0  0
 13 29  2  0  0  0
 13 58  1  0  0  0
 14 29  1  0  0  0
 14 31  1  0  0  0
 15 30  2  0  0  0
 15 41  1  0  0  0
 16 17  2  0  0  0
 16 18  1  0  0  0
 16 30  1  0  0  0
 17 26  1  0  0  0
 18 23  2  0  0  0
 19 20  1  0  0  0
 19 31  1  0  0  0
 19 42  1  0  0  0
 19 43  1  0  0  0
 20 22  1  0  0  0
 20 32  1  0  0  0
 20 44  1  0  0  0
 21 32  1  0  0  0
 21 45  1  0  0  0
 22 46  1  0  0  0
 22 47  1  0  0  0
 23 48  1  0  0  0
 24 25  3  0  0  0
 25 49  1  0  0  0
 32 50  1  0  0  0
 33 51  1  0  0  0
 52 59  1  0  0  0
 53 56  1  0  0  0
 53 58  1  0  0  0
 53 63  1  0  0  0
 54 55  1  0  0  0
 54 62  2  0  0  0
 55 57  1  0  0  0
 55 60  1  0  0  0
 56 57  1  0  0  0
 56 64  1  0  0  0
 56 65  1  0  0  0
 57 59  2  0  0  0
 58 66  1  0  0  0
 58 67  1  0  0  0
 59 62  1  0  0  0
 60 68  1  0  0  0
 60 69  1  0  0  0
 60 70  1  0  0  0
 61 62  1  0  0  0
 61 71  1  0  0  0
 61 72  1  0  0  0
 61 73  1  0  0  0
M  END
> <s_m_entry_id>
453

> <s_m_entry_name>
000000295.1

> <s_m_Source_Path>
/Users/zaksoul/Documents/3r_UNI/2nd_SEMESTER/BSC/FRAG_RECON/RESULTS/2

> <s_m_Source_File>
000000295.mol2

> <i_m_Source_File_Index>
1

$$$$
No_0_313
                    3D
 Schrodinger Suite 2022-4.
 69 75  0  0  1  0            999 V2000
   -5.2900    3.5720  -21.9960 C   0  0  0  0  0  0
   -5.5630    3.7720  -23.3280 C   0  0  0  0  0  0
   -4.0510    3.3090  -21.6640 C   0  0  0  0  0  0
   -3.1720    3.4460  -23.8340 C   0  0  0  0  0  0
   -3.0040    3.1900  -22.4160 C   0  0  0  0  0  0
   -4.5200    3.7210  -24.3450 C   0  0  0  0  0  0
   -3.7780    3.7540  -26.5470 C   0  0  0  0  0  0
    5.9770    2.9230  -21.3430 C   0  0  0  0  0  0
    5.8240    3.0850  -23.8910 C   0  0  0  0  0  0
   -4.7780    3.8590  -25.6780 C   0  0  0  0  0  0
    2.0430    3.6550  -23.8820 C   0  0  0  0  0  0
    1.2300    4.7670  -23.5700 C   0  0  0  0  0  0
    3.0400    5.9460  -22.8920 C   0  0  0  0  0  0
    3.4460    3.8360  -23.5760 C   0  0  0  0  0  0
    1.4860    2.5470  -24.5490 C   0  0  0  0  0  0
   -0.6350    3.3720  -24.4200 C   0  0  0  0  0  0
   -0.0980    4.5840  -23.8150 C   0  0  0  0  0  0
   -2.0900    3.3890  -24.7660 C   0  0  0  0  0  0
    4.0380    1.3320  -23.3060 C   0  0  0  0  0  0
    4.9760    0.9620  -22.1670 C   0  0  2  0  0  0
    6.5760    2.4970  -22.7010 C   0  0  2  0  0  0
    4.9710    1.9550  -20.9930 C   0  0  0  0  0  0
   -2.4230    3.5610  -26.1910 C   0  0  0  0  0  0
   -1.6590    2.7640  -21.8280 C   0  0  0  0  0  0
   -0.6280    2.4070  -21.3310 C   0  0  0  0  0  0
   -0.9320    5.6320  -23.4580 F   0  0  0  0  0  0
   -3.8340    3.0550  -20.2850 F   0  0  0  0  0  0
    1.7170    5.9190  -23.0330 N   0  0  0  0  0  0
    3.9290    4.9800  -23.1240 N   0  0  0  0  0  0
    0.1780    2.4670  -24.8470 N   0  0  0  0  0  0
    4.3570    2.7830  -23.7660 N   0  0  0  0  0  0
    6.3810    1.0240  -22.6570 N   0  0  1  0  0  0
   -3.9580    3.7800  -27.9360 O   0  0  0  0  0  0
   -6.0872    3.6342  -21.2641 H   0  0  0  0  0  0
   -6.5780    3.9758  -23.6493 H   0  0  0  0  0  0
    5.5107    3.9142  -21.4429 H   0  0  0  0  0  0
    6.7673    2.9220  -20.5779 H   0  0  0  0  0  0
    6.2107    2.6448  -24.8219 H   0  0  0  0  0  0
    5.9734    4.1745  -23.9162 H   0  0  0  0  0  0
   -5.7892    4.0526  -26.0171 H   0  0  0  0  0  0
    2.1183    1.7160  -24.8401 H   0  0  0  0  0  0
    2.9970    1.2795  -22.9546 H   0  0  0  0  0  0
    4.1914    0.6396  -24.1468 H   0  0  0  0  0  0
    4.7478   -0.0516  -21.8056 H   0  0  0  0  0  0
    7.6457    2.7483  -22.7525 H   0  0  0  0  0  0
    3.9905    2.4508  -20.9395 H   0  0  0  0  0  0
    5.2735    1.4327  -20.0734 H   0  0  0  0  0  0
   -1.6576    3.5429  -26.9584 H   0  0  0  0  0  0
    0.2798    2.0921  -20.8931 H   0  0  0  0  0  0
    7.0292    0.5170  -21.9575 H   0  0  0  0  0  0
   -3.1160    3.6909  -28.3669 H   0  0  0  0  0  0
    4.7020   10.0010  -22.6820 F   0  0  0  0  0  0
    4.2800    7.1220  -21.0750 N   0  0  1  0  0  0
    7.0200    8.9060  -20.1290 N   0  0  0  0  0  0
    3.6100    7.2790  -22.4170 C   0  0  0  0  0  0
    4.6330    8.4030  -20.3610 C   0  0  0  0  0  0
    5.8990    9.0840  -20.8570 C   0  0  0  0  0  0
    5.8460    9.8570  -21.9970 C   0  0  0  0  0  0
    6.9850   10.4890  -22.4280 C   0  0  0  0  0  0
    8.1180    9.5440  -20.5810 C   0  0  0  0  0  0
    8.1370   10.3310  -21.7070 C   0  0  0  0  0  0
    3.6291    6.5761  -20.4081 H   0  0  0  0  0  0
    4.3414    7.6472  -23.1514 H   0  0  0  0  0  0
    2.7981    8.0169  -22.3370 H   0  0  0  0  0  0
    4.7249    8.2052  -19.2829 H   0  0  0  0  0  0
    3.7892    9.1049  -20.4340 H   0  0  0  0  0  0
    6.9600   11.0996  -23.3233 H   0  0  0  0  0  0
    9.0568    9.4510  -20.0471 H   0  0  0  0  0  0
    9.0483   10.8231  -22.0271 H   0  0  0  0  0  0
  1  2  2  0  0  0
  1  3  1  0  0  0
  1 34  1  0  0  0
  2  6  1  0  0  0
  2 35  1  0  0  0
  3  5  2  0  0  0
  3 27  1  0  0  0
  4  5  1  0  0  0
  4  6  2  0  0  0
  4 18  1  0  0  0
  5 24  1  0  0  0
  6 10  1  0  0  0
  7 10  2  0  0  0
  7 23  1  0  0  0
  7 33  1  0  0  0
  8 21  1  0  0  0
  8 22  1  0  0  0
  8 36  1  0  0  0
  8 37  1  0  0  0
  9 21  1  0  0  0
  9 31  1  0  0  0
  9 38  1  0  0  0
  9 39  1  0  0  0
 10 40  1  0  0  0
 11 12  1  0  0  0
 11 14  2  0  0  0
 11 15  1  0  0  0
 12 17  1  0  0  0
 12 28  2  0  0  0
 13 28  1  0  0  0
 13 29  2  0  0  0
 13 55  1  0  0  0
 14 29  1  0  0  0
 14 31  1  0  0  0
 15 30  2  0  0  0
 15 41  1  0  0  0
 16 17  2  0  0  0
 16 18  1  0  0  0
 16 30  1  0  0  0
 17 26  1  0  0  0
 18 23  2  0  0  0
 19 20  1  0  0  0
 19 31  1  0  0  0
 19 42  1  0  0  0
 19 43  1  0  0  0
 20 22  1  0  0  0
 20 32  1  0  0  0
 20 44  1  0  0  0
 21 32  1  0  0  0
 21 45  1  0  0  0
 22 46  1  0  0  0
 22 47  1  0  0  0
 23 48  1  0  0  0
 24 25  3  0  0  0
 25 49  1  0  0  0
 32 50  1  0  0  0
 33 51  1  0  0  0
 52 58  1  0  0  0
 53 55  1  0  0  0
 53 56  1  0  0  0
 53 62  1  0  0  0
 54 57  2  0  0  0
 54 60  1  0  0  0
 55 63  1  0  0  0
 55 64  1  0  0  0
 56 57  1  0  0  0
 56 65  1  0  0  0
 56 66  1  0  0  0
 57 58  1  0  0  0
 58 59  2  0  0  0
 59 61  1  0  0  0
 59 67  1  0  0  0
 60 61  2  0  0  0
 60 68  1  0  0  0
 61 69  1  0  0  0
M  END
> <s_m_entry_id>
454

> <s_m_entry_name>
000000296.1

> <s_m_Source_Path>
/Users/zaksoul/Documents/3r_UNI/2nd_SEMESTER/BSC/FRAG_RECON/RESULTS/2

> <s_m_Source_File>
000000296.mol2

> <i_m_Source_File_Index>
1

$$$$
No_0_314
                    3D
 Schrodinger Suite 2022-4.
 71 77  0  0  1  0            999 V2000
   -5.0160    3.7230  -22.0580 C   0  0  0  0  0  0
   -5.2570    3.9000  -23.4000 C   0  0  0  0  0  0
   -3.7930    3.4260  -21.6960 C   0  0  0  0  0  0
   -2.8700    3.4800  -23.8510 C   0  0  0  0  0  0
   -2.7370    3.2530  -22.4250 C   0  0  0  0  0  0
   -4.1980    3.7880  -24.3950 C   0  0  0  0  0  0
   -3.4140    3.7420  -26.5820 C   0  0  0  0  0  0
    6.2070    2.7030  -21.1730 C   0  0  0  0  0  0
    6.1080    2.8070  -23.7260 C   0  0  0  0  0  0
   -4.4270    3.9030  -25.7350 C   0  0  0  0  0  0
    2.3490    3.5080  -23.8040 C   0  0  0  0  0  0
    1.5700    4.6540  -23.5340 C   0  0  0  0  0  0
    3.4070    5.7870  -22.8500 C   0  0  0  0  0  0
    3.7520    3.6470  -23.4750 C   0  0  0  0  0  0
    1.7660    2.4030  -24.4540 C   0  0  0  0  0  0
   -0.3270    3.3040  -24.3860 C   0  0  0  0  0  0
    0.2410    4.5110  -23.8000 C   0  0  0  0  0  0
   -1.7740    3.3630  -24.7610 C   0  0  0  0  0  0
    4.2510    1.1320  -23.1340 C   0  0  0  0  0  0
    5.1550    0.7580  -21.9690 C   0  0  2  0  0  0
    6.8160    2.2240  -22.5090 C   0  0  2  0  0  0
    5.1620    1.7790  -20.8190 C   0  0  0  0  0  0
   -2.0740    3.5110  -26.1950 C   0  0  0  0  0  0
   -1.4190    2.7950  -21.8010 C   0  0  0  0  0  0
   -0.4100    2.4150  -21.2760 C   0  0  0  0  0  0
   -0.5620    5.5950  -23.4840 F   0  0  0  0  0  0
   -3.6110    3.1990  -20.3070 F   0  0  0  0  0  0
    2.0870    5.8010  -23.0150 N   0  0  0  0  0  0
    4.2660    4.7850  -23.0420 N   0  0  0  0  0  0
    0.4620    2.3610  -24.7760 N   0  0  0  0  0  0
    4.6290    2.5600  -23.6220 N   0  0  0  0  0  0
    6.5690    0.7600  -22.4330 N   0  0  1  0  0  0
   -3.5680    3.7400  -27.9740 O   0  0  0  0  0  0
   -5.8239    3.8314  -21.3434 H   0  0  0  0  0  0
   -6.2582    4.1310  -23.7454 H   0  0  0  0  0  0
    5.7789    3.7076  -21.3053 H   0  0  0  0  0  0
    6.9828    2.6939  -20.3932 H   0  0  0  0  0  0
    6.4955    2.3317  -24.6392 H   0  0  0  0  0  0
    6.2957    3.8898  -23.7744 H   0  0  0  0  0  0
   -5.4244    4.1228  -26.0982 H   0  0  0  0  0  0
    2.3748    1.5445  -24.7138 H   0  0  0  0  0  0
    3.2023    1.1239  -22.8019 H   0  0  0  0  0  0
    4.3954    0.4141  -23.9549 H   0  0  0  0  0  0
    4.8846   -0.2377  -21.5877 H   0  0  0  0  0  0
    7.8946    2.4369  -22.5453 H   0  0  0  0  0  0
    4.1989    2.3100  -20.7968 H   0  0  0  0  0  0
    5.4294    1.2694  -19.8816 H   0  0  0  0  0  0
   -1.2964    3.4478  -26.9476 H   0  0  0  0  0  0
    0.4780    2.0800  -20.8130 H   0  0  0  0  0  0
    7.1869    0.2479  -21.7103 H   0  0  0  0  0  0
   -2.7223    3.6103  -28.3869 H   0  0  0  0  0  0
    4.6560    6.9740  -21.0390 N   0  0  1  0  0  0
    6.4120    9.0540  -22.4350 N   0  0  0  0  0  0
    7.9400    8.0230  -19.2380 N   0  0  0  0  0  0
    4.0140    7.1100  -22.3960 C   0  0  0  0  0  0
    5.2530    8.2380  -20.4750 C   0  0  0  0  0  0
    6.5600    8.6100  -21.1710 C   0  0  0  0  0  0
    7.8000    8.4880  -20.5500 C   0  0  0  0  0  0
    8.8000    9.2860  -22.5410 C   0  0  0  0  0  0
    8.9280    8.8330  -21.2600 C   0  0  0  0  0  0
    7.5440    9.3820  -23.0870 C   0  0  0  0  0  0
    3.9189    6.6399  -20.3239 H   0  0  0  0  0  0
    8.8765    7.9480  -18.8158 H   0  0  0  0  0  0
    7.1064    7.7568  -18.6946 H   0  0  0  0  0  0
    4.7681    7.4370  -23.1271 H   0  0  0  0  0  0
    3.2278    7.8782  -22.3530 H   0  0  0  0  0  0
    5.4360    8.1080  -19.3981 H   0  0  0  0  0  0
    4.5338    9.0633  -20.5830 H   0  0  0  0  0  0
    9.6808    9.5629  -23.1089 H   0  0  0  0  0  0
    9.9059    8.7430  -20.8010 H   0  0  0  0  0  0
    7.4960    9.7472  -24.1065 H   0  0  0  0  0  0
  1  2  2  0  0  0
  1  3  1  0  0  0
  1 34  1  0  0  0
  2  6  1  0  0  0
  2 35  1  0  0  0
  3  5  2  0  0  0
  3 27  1  0  0  0
  4  5  1  0  0  0
  4  6  2  0  0  0
  4 18  1  0  0  0
  5 24  1  0  0  0
  6 10  1  0  0  0
  7 10  2  0  0  0
  7 23  1  0  0  0
  7 33  1  0  0  0
  8 21  1  0  0  0
  8 22  1  0  0  0
  8 36  1  0  0  0
  8 37  1  0  0  0
  9 21  1  0  0  0
  9 31  1  0  0  0
  9 38  1  0  0  0
  9 39  1  0  0  0
 10 40  1  0  0  0
 11 12  1  0  0  0
 11 14  2  0  0  0
 11 15  1  0  0  0
 12 17  1  0  0  0
 12 28  2  0  0  0
 13 28  1  0  0  0
 13 29  2  0  0  0
 13 55  1  0  0  0
 14 29  1  0  0  0
 14 31  1  0  0  0
 15 30  2  0  0  0
 15 41  1  0  0  0
 16 17  2  0  0  0
 16 18  1  0  0  0
 16 30  1  0  0  0
 17 26  1  0  0  0
 18 23  2  0  0  0
 19 20  1  0  0  0
 19 31  1  0  0  0
 19 42  1  0  0  0
 19 43  1  0  0  0
 20 22  1  0  0  0
 20 32  1  0  0  0
 20 44  1  0  0  0
 21 32  1  0  0  0
 21 45  1  0  0  0
 22 46  1  0  0  0
 22 47  1  0  0  0
 23 48  1  0  0  0
 24 25  3  0  0  0
 25 49  1  0  0  0
 32 50  1  0  0  0
 33 51  1  0  0  0
 52 55  1  0  0  0
 52 56  1  0  0  0
 52 62  1  0  0  0
 53 57  2  0  0  0
 53 61  1  0  0  0
 54 58  1  0  0  0
 54 63  1  0  0  0
 54 64  1  0  0  0
 55 65  1  0  0  0
 55 66  1  0  0  0
 56 57  1  0  0  0
 56 67  1  0  0  0
 56 68  1  0  0  0
 57 58  1  0  0  0
 58 60  2  0  0  0
 59 60  1  0  0  0
 59 61  2  0  0  0
 59 69  1  0  0  0
 60 70  1  0  0  0
 61 71  1  0  0  0
M  END
> <s_m_entry_id>
455

> <s_m_entry_name>
000000297.1

> <s_m_Source_Path>
/Users/zaksoul/Documents/3r_UNI/2nd_SEMESTER/BSC/FRAG_RECON/RESULTS/2

> <s_m_Source_File>
000000297.mol2

> <i_m_Source_File_Index>
1

$$$$
No_0_315
                    3D
 Schrodinger Suite 2022-4.
 70 76  0  0  1  0            999 V2000
   -5.3200    3.5520  -22.0180 C   0  0  0  0  0  0
   -5.5910    3.7470  -23.3510 C   0  0  0  0  0  0
   -4.0810    3.2950  -21.6830 C   0  0  0  0  0  0
   -3.1980    3.4300  -23.8510 C   0  0  0  0  0  0
   -3.0320    3.1790  -22.4320 C   0  0  0  0  0  0
   -4.5470    3.6970  -24.3660 C   0  0  0  0  0  0
   -3.8000    3.7270  -26.5670 C   0  0  0  0  0  0
    5.9480    2.9540  -21.3420 C   0  0  0  0  0  0
    5.8000    3.1070  -23.8910 C   0  0  0  0  0  0
   -4.8030    3.8310  -25.7000 C   0  0  0  0  0  0
    2.0160    3.6620  -23.8910 C   0  0  0  0  0  0
    1.1980    4.7700  -23.5840 C   0  0  0  0  0  0
    3.0010    5.9600  -22.9060 C   0  0  0  0  0  0
    3.4180    3.8490  -23.5820 C   0  0  0  0  0  0
    1.4650    2.5480  -24.5550 C   0  0  0  0  0  0
   -0.6600    3.3650  -24.4320 C   0  0  0  0  0  0
   -0.1290    4.5810  -23.8300 C   0  0  0  0  0  0
   -2.1150    3.3750  -24.7810 C   0  0  0  0  0  0
    4.0200    1.3490  -23.3040 C   0  0  0  0  0  0
    4.9580    0.9860  -22.1620 C   0  0  2  0  0  0
    6.5510    2.5270  -22.6980 C   0  0  2  0  0  0
    4.9460    1.9820  -20.9910 C   0  0  0  0  0  0
   -2.4460    3.5410  -26.2070 C   0  0  0  0  0  0
   -1.6860    2.7610  -21.8410 C   0  0  0  0  0  0
   -0.6540    2.4090  -21.3410 C   0  0  0  0  0  0
   -0.9680    5.6260  -23.4780 F   0  0  0  0  0  0
   -3.8660    3.0460  -20.3020 F   0  0  0  0  0  0
    1.6790    5.9260  -23.0490 N   0  0  0  0  0  0
    3.8950    4.9970  -23.1330 N   0  0  0  0  0  0
    0.1570    2.4620  -24.8550 N   0  0  0  0  0  0
    4.3330    2.8000  -23.7680 N   0  0  0  0  0  0
    6.3630    1.0530  -22.6500 N   0  0  1  0  0  0
   -3.9790    3.7480  -27.9560 O   0  0  0  0  0  0
   -6.1186    3.6132  -21.2876 H   0  0  0  0  0  0
   -6.6066    3.9447  -23.6742 H   0  0  0  0  0  0
    5.4786    3.9434  -21.4460 H   0  0  0  0  0  0
    6.7373    2.9590  -20.5759 H   0  0  0  0  0  0
    6.1898    2.6657  -24.8201 H   0  0  0  0  0  0
    5.9442    4.1971  -23.9192 H   0  0  0  0  0  0
   -5.8146    4.0187  -26.0412 H   0  0  0  0  0  0
    2.1017    1.7194  -24.8432 H   0  0  0  0  0  0
    2.9784    1.2925  -22.9548 H   0  0  0  0  0  0
    4.1784    0.6537  -24.1416 H   0  0  0  0  0  0
    4.7330   -0.0272  -21.7977 H   0  0  0  0  0  0
    7.6198    2.7823  -22.7485 H   0  0  0  0  0  0
    3.9635    2.4742  -20.9416 H   0  0  0  0  0  0
    5.2489    1.4640  -20.0691 H   0  0  0  0  0  0
   -1.6796    3.5229  -26.9734 H   0  0  0  0  0  0
    0.2540    2.0990  -20.9000 H   0  0  0  0  0  0
    7.0125    0.5512  -21.9481 H   0  0  0  0  0  0
   -3.1361    3.6609  -28.3854 H   0  0  0  0  0  0
    4.9750   10.4280  -22.4460 O   0  0  0  0  0  0
    3.5670    7.3960  -20.9300 N   0  0  1  0  0  0
    7.2130   10.0230  -22.1170 N   0  0  0  0  0  0
    5.5730    8.9160  -20.7270 C   0  0  0  0  0  0
    3.5640    7.2960  -22.4340 C   0  0  0  0  0  0
    4.1110    8.6840  -20.3670 C   0  0  0  0  0  0
    7.8730    8.4940  -20.3920 C   0  0  0  0  0  0
    6.5630    8.2700  -20.0430 C   0  0  0  0  0  0
    5.9370    9.7770  -21.7500 C   0  0  0  0  0  0
    8.1560    9.3610  -21.4150 C   0  0  0  0  0  0
    2.5564    7.3050  -20.5601 H   0  0  0  0  0  0
    7.4099   10.6786  -22.8866 H   0  0  0  0  0  0
    4.5910    7.4140  -22.8100 H   0  0  0  0  0  0
    2.9621    8.1159  -22.8529 H   0  0  0  0  0  0
    4.0011    8.6800  -19.2725 H   0  0  0  0  0  0
    3.5060    9.5270  -20.7320 H   0  0  0  0  0  0
    8.6699    7.9860  -19.8610 H   0  0  0  0  0  0
    6.3100    7.5909  -19.2369 H   0  0  0  0  0  0
    9.2050    9.5020  -21.6490 H   0  0  0  0  0  0
  1  2  2  0  0  0
  1  3  1  0  0  0
  1 34  1  0  0  0
  2  6  1  0  0  0
  2 35  1  0  0  0
  3  5  2  0  0  0
  3 27  1  0  0  0
  4  5  1  0  0  0
  4  6  2  0  0  0
  4 18  1  0  0  0
  5 24  1  0  0  0
  6 10  1  0  0  0
  7 10  2  0  0  0
  7 23  1  0  0  0
  7 33  1  0  0  0
  8 21  1  0  0  0
  8 22  1  0  0  0
  8 36  1  0  0  0
  8 37  1  0  0  0
  9 21  1  0  0  0
  9 31  1  0  0  0
  9 38  1  0  0  0
  9 39  1  0  0  0
 10 40  1  0  0  0
 11 12  1  0  0  0
 11 14  2  0  0  0
 11 15  1  0  0  0
 12 17  1  0  0  0
 12 28  2  0  0  0
 13 28  1  0  0  0
 13 29  2  0  0  0
 13 56  1  0  0  0
 14 29  1  0  0  0
 14 31  1  0  0  0
 15 30  2  0  0  0
 15 41  1  0  0  0
 16 17  2  0  0  0
 16 18  1  0  0  0
 16 30  1  0  0  0
 17 26  1  0  0  0
 18 23  2  0  0  0
 19 20  1  0  0  0
 19 31  1  0  0  0
 19 42  1  0  0  0
 19 43  1  0  0  0
 20 22  1  0  0  0
 20 32  1  0  0  0
 20 44  1  0  0  0
 21 32  1  0  0  0
 21 45  1  0  0  0
 22 46  1  0  0  0
 22 47  1  0  0  0
 23 48  1  0  0  0
 24 25  3  0  0  0
 25 49  1  0  0  0
 32 50  1  0  0  0
 33 51  1  0  0  0
 52 60  2  0  0  0
 53 56  1  0  0  0
 53 57  1  0  0  0
 53 62  1  0  0  0
 54 60  1  0  0  0
 54 61  1  0  0  0
 54 63  1  0  0  0
 55 57  1  0  0  0
 55 59  2  0  0  0
 55 60  1  0  0  0
 56 64  1  0  0  0
 56 65  1  0  0  0
 57 66  1  0  0  0
 57 67  1  0  0  0
 58 59  1  0  0  0
 58 61  2  0  0  0
 58 68  1  0  0  0
 59 69  1  0  0  0
 61 70  1  0  0  0
M  END
> <s_m_entry_id>
456

> <s_m_entry_name>
000000298.1

> <s_m_Source_Path>
/Users/zaksoul/Documents/3r_UNI/2nd_SEMESTER/BSC/FRAG_RECON/RESULTS/2

> <s_m_Source_File>
000000298.mol2

> <i_m_Source_File_Index>
1

$$$$
No_0_316
                    3D
 Schrodinger Suite 2022-4.
 70 76  0  0  1  0            999 V2000
   -5.3500    3.5280  -22.1140 C   0  0  0  0  0  0
   -5.5890    3.6950  -23.4580 C   0  0  0  0  0  0
   -4.1180    3.2850  -21.7440 C   0  0  0  0  0  0
   -3.1830    3.3820  -23.8920 C   0  0  0  0  0  0
   -3.0510    3.1600  -22.4650 C   0  0  0  0  0  0
   -4.5200    3.6310  -24.4450 C   0  0  0  0  0  0
   -3.7200    3.6230  -26.6270 C   0  0  0  0  0  0
    5.9010    3.0090  -21.1510 C   0  0  0  0  0  0
    5.8150    3.1120  -23.7050 C   0  0  0  0  0  0
   -4.7440    3.7370  -25.7870 C   0  0  0  0  0  0
    2.0290    3.6440  -23.8090 C   0  0  0  0  0  0
    1.1980    4.7540  -23.5440 C   0  0  0  0  0  0
    2.9770    5.9670  -22.8450 C   0  0  0  0  0  0
    3.4220    3.8450  -23.4700 C   0  0  0  0  0  0
    1.5010    2.5150  -24.4640 C   0  0  0  0  0  0
   -0.6310    3.3210  -24.4100 C   0  0  0  0  0  0
   -0.1220    4.5520  -23.8190 C   0  0  0  0  0  0
   -2.0770    3.3150  -24.7940 C   0  0  0  0  0  0
    4.0310    1.3550  -23.1270 C   0  0  0  0  0  0
    4.9420    1.0200  -21.9560 C   0  0  2  0  0  0
    6.5400    2.5590  -22.4830 C   0  0  2  0  0  0
    4.8960    2.0390  -20.8050 C   0  0  0  0  0  0
   -2.3730    3.4520  -26.2310 C   0  0  0  0  0  0
   -1.7170    2.7620  -21.8330 C   0  0  0  0  0  0
   -0.6960    2.4260  -21.3010 C   0  0  0  0  0  0
   -0.9750    5.5990  -23.5080 F   0  0  0  0  0  0
   -3.9360    3.0640  -20.3540 F   0  0  0  0  0  0
    1.6590    5.9230  -23.0200 N   0  0  0  0  0  0
    3.8810    5.0050  -23.0320 N   0  0  0  0  0  0
    0.2010    2.4150  -24.7950 N   0  0  0  0  0  0
    4.3470    2.7990  -23.6120 N   0  0  0  0  0  0
    6.3580    1.0860  -22.4100 N   0  0  1  0  0  0
   -3.8640    3.6160  -28.0200 O   0  0  0  0  0  0
   -6.1672    3.5983  -21.4052 H   0  0  0  0  0  0
   -6.5976    3.8807  -23.8092 H   0  0  0  0  0  0
    5.4286    3.9933  -21.2853 H   0  0  0  0  0  0
    6.6710    3.0342  -20.3659 H   0  0  0  0  0  0
    6.2300    2.6556  -24.6158 H   0  0  0  0  0  0
    5.9542    4.2022  -23.7514 H   0  0  0  0  0  0
   -5.7475    3.9126  -26.1573 H   0  0  0  0  0  0
    2.1483    1.6840  -24.7199 H   0  0  0  0  0  0
    2.9816    1.2995  -22.8021 H   0  0  0  0  0  0
    4.2127    0.6454  -23.9476 H   0  0  0  0  0  0
    4.7139    0.0127  -21.5775 H   0  0  0  0  0  0
    7.6081    2.8205  -22.5113 H   0  0  0  0  0  0
    3.9100    2.5264  -20.7899 H   0  0  0  0  0  0
    5.1787    1.5403  -19.8662 H   0  0  0  0  0  0
   -1.5879    3.4239  -26.9779 H   0  0  0  0  0  0
    0.2027    2.1301  -20.8321 H   0  0  0  0  0  0
    6.9931    0.6017  -21.6830 H   0  0  0  0  0  0
   -3.0102    3.5250  -28.4266 H   0  0  0  0  0  0
    4.6530   10.5590  -22.4190 O   0  0  0  0  0  0
    3.8280    7.3150  -20.9100 N   0  0  1  0  0  0
    6.9350   10.3410  -22.5810 N   0  0  0  0  0  0
    5.7090    8.9980  -20.9870 C   0  0  0  0  0  0
    3.5210    7.3150  -22.3860 C   0  0  0  0  0  0
    4.3760    8.6080  -20.3620 C   0  0  0  0  0  0
    8.0540    8.7690  -21.1580 C   0  0  0  0  0  0
    6.8660    8.4020  -20.5730 C   0  0  0  0  0  0
    5.7860    9.9550  -21.9870 C   0  0  0  0  0  0
    8.0520    9.7240  -22.1400 C   0  0  0  0  0  0
    2.9258    7.1070  -20.3539 H   0  0  0  0  0  0
    6.9170   11.0617  -23.3167 H   0  0  0  0  0  0
    4.4351    7.5520  -22.9501 H   0  0  0  0  0  0
    2.7843    8.1017  -22.6059 H   0  0  0  0  0  0
    4.4960    8.5220  -19.2720 H   0  0  0  0  0  0
    3.6458    9.4142  -20.5260 H   0  0  0  0  0  0
    8.9800    8.3030  -20.8410 H   0  0  0  0  0  0
    6.8390    7.6509  -19.7919 H   0  0  0  0  0  0
    9.0154    9.9761  -22.5682 H   0  0  0  0  0  0
  1  2  2  0  0  0
  1  3  1  0  0  0
  1 34  1  0  0  0
  2  6  1  0  0  0
  2 35  1  0  0  0
  3  5  2  0  0  0
  3 27  1  0  0  0
  4  5  1  0  0  0
  4  6  2  0  0  0
  4 18  1  0  0  0
  5 24  1  0  0  0
  6 10  1  0  0  0
  7 10  2  0  0  0
  7 23  1  0  0  0
  7 33  1  0  0  0
  8 21  1  0  0  0
  8 22  1  0  0  0
  8 36  1  0  0  0
  8 37  1  0  0  0
  9 21  1  0  0  0
  9 31  1  0  0  0
  9 38  1  0  0  0
  9 39  1  0  0  0
 10 40  1  0  0  0
 11 12  1  0  0  0
 11 14  2  0  0  0
 11 15  1  0  0  0
 12 17  1  0  0  0
 12 28  2  0  0  0
 13 28  1  0  0  0
 13 29  2  0  0  0
 13 56  1  0  0  0
 14 29  1  0  0  0
 14 31  1  0  0  0
 15 30  2  0  0  0
 15 41  1  0  0  0
 16 17  2  0  0  0
 16 18  1  0  0  0
 16 30  1  0  0  0
 17 26  1  0  0  0
 18 23  2  0  0  0
 19 20  1  0  0  0
 19 31  1  0  0  0
 19 42  1  0  0  0
 19 43  1  0  0  0
 20 22  1  0  0  0
 20 32  1  0  0  0
 20 44  1  0  0  0
 21 32  1  0  0  0
 21 45  1  0  0  0
 22 46  1  0  0  0
 22 47  1  0  0  0
 23 48  1  0  0  0
 24 25  3  0  0  0
 25 49  1  0  0  0
 32 50  1  0  0  0
 33 51  1  0  0  0
 52 60  2  0  0  0
 53 56  1  0  0  0
 53 57  1  0  0  0
 53 62  1  0  0  0
 54 60  1  0  0  0
 54 61  1  0  0  0
 54 63  1  0  0  0
 55 57  1  0  0  0
 55 59  2  0  0  0
 55 60  1  0  0  0
 56 64  1  0  0  0
 56 65  1  0  0  0
 57 66  1  0  0  0
 57 67  1  0  0  0
 58 59  1  0  0  0
 58 61  2  0  0  0
 58 68  1  0  0  0
 59 69  1  0  0  0
 61 70  1  0  0  0
M  END
> <s_m_entry_id>
457

> <s_m_entry_name>
000000299.1

> <s_m_Source_Path>
/Users/zaksoul/Documents/3r_UNI/2nd_SEMESTER/BSC/FRAG_RECON/RESULTS/2

> <s_m_Source_File>
000000299.mol2

> <i_m_Source_File_Index>
1

$$$$
No_0_317
                    3D
 Schrodinger Suite 2022-4.
 77 83  0  0  1  0            999 V2000
   -4.9120    3.5680  -21.9160 C   0  0  0  0  0  0
   -5.2120    3.7400  -23.2460 C   0  0  0  0  0  0
   -3.6650    3.3210  -21.6030 C   0  0  0  0  0  0
   -2.8280    3.4240  -23.7910 C   0  0  0  0  0  0
   -2.6320    3.1970  -22.3720 C   0  0  0  0  0  0
   -4.1890    3.6770  -24.2820 C   0  0  0  0  0  0
   -3.4880    3.6750  -26.4980 C   0  0  0  0  0  0
    6.3700    3.0240  -21.4670 C   0  0  0  0  0  0
    6.1680    3.1360  -24.0130 C   0  0  0  0  0  0
   -4.4730    3.7880  -25.6120 C   0  0  0  0  0  0
    2.3830    3.6750  -23.9430 C   0  0  0  0  0  0
    1.5670    4.7860  -23.6370 C   0  0  0  0  0  0
    3.3780    5.9930  -23.0160 C   0  0  0  0  0  0
    3.7900    3.8730  -23.6670 C   0  0  0  0  0  0
    1.8230    2.5490  -24.5780 C   0  0  0  0  0  0
   -0.3030    3.3590  -24.4240 C   0  0  0  0  0  0
    0.2350    4.5880  -23.8530 C   0  0  0  0  0  0
   -1.7640    3.3580  -24.7420 C   0  0  0  0  0  0
    4.4090    1.3800  -23.3610 C   0  0  0  0  0  0
    5.3710    1.0400  -22.2340 C   0  0  2  0  0  0
    6.9470    2.5780  -22.8280 C   0  0  2  0  0  0
    5.3800    2.0550  -21.0790 C   0  0  0  0  0  0
   -2.1250    3.5000  -26.1640 C   0  0  0  0  0  0
   -1.2720    2.7930  -21.8020 C   0  0  0  0  0  0
   -0.2280    2.4540  -21.3180 C   0  0  0  0  0  0
   -0.6000    5.6350  -23.5000 F   0  0  0  0  0  0
   -3.4200    3.0960  -20.2230 F   0  0  0  0  0  0
    2.0540    5.9520  -23.1310 N   0  0  0  0  0  0
    4.2710    5.0300  -23.2470 N   0  0  0  0  0  0
    0.5100    2.4530  -24.8490 N   0  0  0  0  0  0
    4.7060    2.8250  -23.8550 N   0  0  0  0  0  0
    6.7660    1.1050  -22.7520 N   0  0  1  0  0  0
   -3.6950    3.6730  -27.8830 O   0  0  0  0  0  0
   -5.6958    3.6372  -21.1704 H   0  0  0  0  0  0
   -6.2349    3.9287  -23.5512 H   0  0  0  0  0  0
    5.8947    4.0100  -21.5760 H   0  0  0  0  0  0
    7.1749    3.0452  -20.7176 H   0  0  0  0  0  0
    6.5403    2.6820  -24.9432 H   0  0  0  0  0  0
    6.3073    4.2260  -24.0625 H   0  0  0  0  0  0
   -5.4922    3.9666  -25.9350 H   0  0  0  0  0  0
    2.4575    1.7187  -24.8661 H   0  0  0  0  0  0
    3.3750    1.3255  -22.9898 H   0  0  0  0  0  0
    4.5523    0.6728  -24.1913 H   0  0  0  0  0  0
    5.1591    0.0318  -21.8485 H   0  0  0  0  0  0
    8.0135    2.8365  -22.9037 H   0  0  0  0  0  0
    4.3967    2.5441  -21.0165 H   0  0  0  0  0  0
    5.7039    1.5525  -20.1557 H   0  0  0  0  0  0
   -1.3745    3.4729  -26.9457 H   0  0  0  0  0  0
    0.6909    2.1550  -20.8921 H   0  0  0  0  0  0
    7.4320    0.6165  -22.0561 H   0  0  0  0  0  0
   -2.8609    3.5810  -28.3283 H   0  0  0  0  0  0
    4.3120    7.3120  -21.1170 N   0  3  0  0  0  0
    5.0220    8.5340  -20.5810 C   0  0  0  0  0  0
    6.7280    9.5710  -22.1490 C   0  0  0  0  0  0
    7.4880    7.9600  -20.5590 C   0  0  0  0  0  0
    3.9460    7.3390  -22.5780 C   0  0  0  0  0  0
    6.4490    8.6910  -21.1140 C   0  0  0  0  0  0
    9.0360    8.9560  -22.0790 C   0  0  0  0  0  0
    8.0140    9.6930  -22.6250 C   0  0  0  0  0  0
    8.7690    8.0950  -21.0440 C   0  0  0  0  0  0
    5.6920   10.4670  -22.8140 C   0  0  0  0  0  0
    7.3460    6.9930  -19.3920 C   0  0  0  0  0  0
    3.4830    7.1430  -20.5690 H   0  0  0  0  0  0
    4.8709    6.4942  -20.9300 H   0  0  0  0  0  0
    5.0460    8.4900  -19.4821 H   0  0  0  0  0  0
    4.4389    9.4332  -20.8290 H   0  0  0  0  0  0
    4.8397    7.5722  -23.1755 H   0  0  0  0  0  0
    3.1983    8.1267  -22.7529 H   0  0  0  0  0  0
   10.0434    9.0570  -22.4662 H   0  0  0  0  0  0
    8.2279   10.3767  -23.4386 H   0  0  0  0  0  0
    9.5771    7.5189  -20.6079 H   0  0  0  0  0  0
    6.1749   11.0638  -23.6018 H   0  0  0  0  0  0
    4.9000    9.8460  -23.2580 H   0  0  0  0  0  0
    5.2521   11.1399  -22.0632 H   0  0  0  0  0  0
    8.3265    6.5528  -19.1579 H   0  0  0  0  0  0
    6.9669    7.5331  -18.5119 H   0  0  0  0  0  0
    6.6404    6.1934  -19.6619 H   0  0  0  0  0  0
  1  2  2  0  0  0
  1  3  1  0  0  0
  1 34  1  0  0  0
  2  6  1  0  0  0
  2 35  1  0  0  0
  3  5  2  0  0  0
  3 27  1  0  0  0
  4  5  1  0  0  0
  4  6  2  0  0  0
  4 18  1  0  0  0
  5 24  1  0  0  0
  6 10  1  0  0  0
  7 10  2  0  0  0
  7 23  1  0  0  0
  7 33  1  0  0  0
  8 21  1  0  0  0
  8 22  1  0  0  0
  8 36  1  0  0  0
  8 37  1  0  0  0
  9 21  1  0  0  0
  9 31  1  0  0  0
  9 38  1  0  0  0
  9 39  1  0  0  0
 10 40  1  0  0  0
 11 12  1  0  0  0
 11 14  2  0  0  0
 11 15  1  0  0  0
 12 17  1  0  0  0
 12 28  2  0  0  0
 13 28  1  0  0  0
 13 29  2  0  0  0
 13 56  1  0  0  0
 14 29  1  0  0  0
 14 31  1  0  0  0
 15 30  2  0  0  0
 15 41  1  0  0  0
 16 17  2  0  0  0
 16 18  1  0  0  0
 16 30  1  0  0  0
 17 26  1  0  0  0
 18 23  2  0  0  0
 19 20  1  0  0  0
 19 31  1  0  0  0
 19 42  1  0  0  0
 19 43  1  0  0  0
 20 22  1  0  0  0
 20 32  1  0  0  0
 20 44  1  0  0  0
 21 32  1  0  0  0
 21 45  1  0  0  0
 22 46  1  0  0  0
 22 47  1  0  0  0
 23 48  1  0  0  0
 24 25  3  0  0  0
 25 49  1  0  0  0
 32 50  1  0  0  0
 33 51  1  0  0  0
 52 53  1  0  0  0
 52 56  1  0  0  0
 52 63  1  0  0  0
 52 64  1  0  0  0
 53 57  1  0  0  0
 53 65  1  0  0  0
 53 66  1  0  0  0
 54 57  2  0  0  0
 54 59  1  0  0  0
 54 61  1  0  0  0
 55 57  1  0  0  0
 55 60  2  0  0  0
 55 62  1  0  0  0
 56 67  1  0  0  0
 56 68  1  0  0  0
 58 59  2  0  0  0
 58 60  1  0  0  0
 58 69  1  0  0  0
 59 70  1  0  0  0
 60 71  1  0  0  0
 61 72  1  0  0  0
 61 73  1  0  0  0
 61 74  1  0  0  0
 62 75  1  0  0  0
 62 76  1  0  0  0
 62 77  1  0  0  0
M  CHG  1  52   1
M  END
> <s_m_entry_id>
458

> <s_m_entry_name>
000000300.1

> <s_m_Source_Path>
/Users/zaksoul/Documents/3r_UNI/2nd_SEMESTER/BSC/FRAG_RECON/RESULTS/2

> <s_m_Source_File>
000000300.mol2

> <i_m_Source_File_Index>
1

$$$$
No_0_318
                    3D
 Schrodinger Suite 2022-4.
 77 83  0  0  1  0            999 V2000
   -5.2400    3.3640  -22.0250 C   0  0  0  0  0  0
   -5.5170    3.5060  -23.3640 C   0  0  0  0  0  0
   -3.9930    3.1620  -21.6820 C   0  0  0  0  0  0
   -3.1140    3.2570  -23.8550 C   0  0  0  0  0  0
   -2.9400    3.0580  -22.4280 C   0  0  0  0  0  0
   -4.4710    3.4590  -24.3770 C   0  0  0  0  0  0
   -3.7250    3.4440  -26.5780 C   0  0  0  0  0  0
    6.0410    3.1840  -21.3360 C   0  0  0  0  0  0
    5.8890    3.2490  -23.8880 C   0  0  0  0  0  0
   -4.7310    3.5400  -25.7140 C   0  0  0  0  0  0
    2.0880    3.6700  -23.9050 C   0  0  0  0  0  0
    1.2320    4.7590  -23.6330 C   0  0  0  0  0  0
    2.9910    6.0320  -22.9950 C   0  0  0  0  0  0
    3.4830    3.9160  -23.6030 C   0  0  0  0  0  0
    1.5780    2.5170  -24.5320 C   0  0  0  0  0  0
   -0.5750    3.2620  -24.4350 C   0  0  0  0  0  0
   -0.0880    4.5160  -23.8730 C   0  0  0  0  0  0
   -2.0290    3.2090  -24.7830 C   0  0  0  0  0  0
    4.1720    1.4490  -23.2430 C   0  0  0  0  0  0
    5.1210    1.1570  -22.0910 C   0  0  2  0  0  0
    6.6600    2.7350  -22.6780 C   0  0  2  0  0  0
    5.0740    2.1900  -20.9530 C   0  0  0  0  0  0
   -2.3640    3.3170  -26.2130 C   0  0  0  0  0  0
   -1.5810    2.7070  -21.8240 C   0  0  0  0  0  0
   -0.5370    2.4080  -21.3130 C   0  0  0  0  0  0
   -0.9630    5.5410  -23.5540 F   0  0  0  0  0  0
   -3.7700    2.9660  -20.2950 F   0  0  0  0  0  0
    1.6720    5.9480  -23.1370 N   0  0  0  0  0  0
    3.9190    5.0940  -23.1920 N   0  0  0  0  0  0
    0.2740    2.3750  -24.8280 N   0  0  0  0  0  0
    4.4350    2.8950  -23.7540 N   0  0  0  0  0  0
    6.5230    1.2580  -22.5810 N   0  0  1  0  0  0
   -3.9030    3.4130  -27.9670 O   0  0  0  0  0  0
   -6.0412    3.4212  -21.2971 H   0  0  0  0  0  0
   -6.5386    3.6575  -23.6932 H   0  0  0  0  0  0
    5.5376    4.1525  -21.4722 H   0  0  0  0  0  0
    6.8292    3.2425  -20.5710 H   0  0  0  0  0  0
    6.2956    2.7919  -24.8022 H   0  0  0  0  0  0
    5.9960    4.3419  -23.9526 H   0  0  0  0  0  0
   -5.7481    3.6814  -26.0611 H   0  0  0  0  0  0
    2.2434    1.7020  -24.7929 H   0  0  0  0  0  0
    3.1328    1.3682  -22.8915 H   0  0  0  0  0  0
    4.3546    0.7336  -24.0583 H   0  0  0  0  0  0
    4.9321    0.1490  -21.6931 H   0  0  0  0  0  0
    7.7193    3.0256  -22.7365 H   0  0  0  0  0  0
    4.0750    2.6491  -20.9187 H   0  0  0  0  0  0
    5.3939    1.7137  -20.0145 H   0  0  0  0  0  0
   -1.5971    3.3019  -26.9789 H   0  0  0  0  0  0
    0.3819    2.1457  -20.8636 H   0  0  0  0  0  0
    7.1896    0.8018  -21.8641 H   0  0  0  0  0  0
   -3.0571    3.3418  -28.3934 H   0  0  0  0  0  0
    4.2430    7.3090  -21.2560 N   0  3  0  0  0  0
    4.9340    8.5660  -20.7840 C   0  0  0  0  0  0
    6.0520    9.9380  -22.6040 C   0  0  0  0  0  0
    7.3670    8.3200  -21.4410 C   0  0  0  0  0  0
    3.5070    7.4020  -22.5670 C   0  0  0  0  0  0
    6.1470    8.9500  -21.6360 C   0  0  0  0  0  0
    8.3490    9.6270  -23.1810 C   0  0  0  0  0  0
    7.1490   10.2650  -23.3700 C   0  0  0  0  0  0
    8.4550    8.6600  -22.2120 C   0  0  0  0  0  0
    4.7890   10.7410  -22.8880 C   0  0  0  0  0  0
    7.6380    7.2540  -20.3890 C   0  0  0  0  0  0
    3.6086    6.9898  -20.5406 H   0  0  0  0  0  0
    4.9149    6.5592  -21.3050 H   0  0  0  0  0  0
    5.2482    8.4399  -19.7374 H   0  0  0  0  0  0
    4.2142    9.3978  -20.7780 H   0  0  0  0  0  0
    4.1837    7.7958  -23.3397 H   0  0  0  0  0  0
    2.6604    8.0966  -22.4631 H   0  0  0  0  0  0
    9.2049    9.8880  -23.7929 H   0  0  0  0  0  0
    7.0691   11.0324  -24.1314 H   0  0  0  0  0  0
    9.4056    8.1622  -22.0581 H   0  0  0  0  0  0
    4.9831   11.4555  -23.7015 H   0  0  0  0  0  0
    3.9793   10.0582  -23.1849 H   0  0  0  0  0  0
    4.4921   11.2887  -21.9814 H   0  0  0  0  0  0
    8.6866    6.9288  -20.4570 H   0  0  0  0  0  0
    7.4471    7.6689  -19.3883 H   0  0  0  0  0  0
    6.9750    6.3930  -20.5600 H   0  0  0  0  0  0
  1  2  2  0  0  0
  1  3  1  0  0  0
  1 34  1  0  0  0
  2  6  1  0  0  0
  2 35  1  0  0  0
  3  5  2  0  0  0
  3 27  1  0  0  0
  4  5  1  0  0  0
  4  6  2  0  0  0
  4 18  1  0  0  0
  5 24  1  0  0  0
  6 10  1  0  0  0
  7 10  2  0  0  0
  7 23  1  0  0  0
  7 33  1  0  0  0
  8 21  1  0  0  0
  8 22  1  0  0  0
  8 36  1  0  0  0
  8 37  1  0  0  0
  9 21  1  0  0  0
  9 31  1  0  0  0
  9 38  1  0  0  0
  9 39  1  0  0  0
 10 40  1  0  0  0
 11 12  1  0  0  0
 11 14  2  0  0  0
 11 15  1  0  0  0
 12 17  1  0  0  0
 12 28  2  0  0  0
 13 28  1  0  0  0
 13 29  2  0  0  0
 13 56  1  0  0  0
 14 29  1  0  0  0
 14 31  1  0  0  0
 15 30  2  0  0  0
 15 41  1  0  0  0
 16 17  2  0  0  0
 16 18  1  0  0  0
 16 30  1  0  0  0
 17 26  1  0  0  0
 18 23  2  0  0  0
 19 20  1  0  0  0
 19 31  1  0  0  0
 19 42  1  0  0  0
 19 43  1  0  0  0
 20 22  1  0  0  0
 20 32  1  0  0  0
 20 44  1  0  0  0
 21 32  1  0  0  0
 21 45  1  0  0  0
 22 46  1  0  0  0
 22 47  1  0  0  0
 23 48  1  0  0  0
 24 25  3  0  0  0
 25 49  1  0  0  0
 32 50  1  0  0  0
 33 51  1  0  0  0
 52 53  1  0  0  0
 52 56  1  0  0  0
 52 63  1  0  0  0
 52 64  1  0  0  0
 53 57  1  0  0  0
 53 65  1  0  0  0
 53 66  1  0  0  0
 54 57  2  0  0  0
 54 59  1  0  0  0
 54 61  1  0  0  0
 55 57  1  0  0  0
 55 60  2  0  0  0
 55 62  1  0  0  0
 56 67  1  0  0  0
 56 68  1  0  0  0
 58 59  2  0  0  0
 58 60  1  0  0  0
 58 69  1  0  0  0
 59 70  1  0  0  0
 60 71  1  0  0  0
 61 72  1  0  0  0
 61 73  1  0  0  0
 61 74  1  0  0  0
 62 75  1  0  0  0
 62 76  1  0  0  0
 62 77  1  0  0  0
M  CHG  1  52   1
M  END
> <s_m_entry_id>
459

> <s_m_entry_name>
000000301.1

> <s_m_Source_Path>
/Users/zaksoul/Documents/3r_UNI/2nd_SEMESTER/BSC/FRAG_RECON/RESULTS/2

> <s_m_Source_File>
000000301.mol2

> <i_m_Source_File_Index>
1

$$$$
No_0_319
                    3D
 Schrodinger Suite 2022-4.
 72 79  0  0  1  0            999 V2000
   -5.3100    3.6940  -21.8910 C   0  0  0  0  0  0
   -5.5980    3.8590  -23.2250 C   0  0  0  0  0  0
   -4.0700    3.4260  -21.5680 C   0  0  0  0  0  0
   -3.2190    3.4890  -23.7520 C   0  0  0  0  0  0
   -3.0350    3.2730  -22.3300 C   0  0  0  0  0  0
   -4.5710    3.7650  -24.2540 C   0  0  0  0  0  0
   -3.8580    3.7260  -26.4660 C   0  0  0  0  0  0
    5.9560    2.9280  -21.3700 C   0  0  0  0  0  0
    5.7710    3.0180  -23.9190 C   0  0  0  0  0  0
   -4.8460    3.8690  -25.5860 C   0  0  0  0  0  0
    1.9970    3.6340  -23.8770 C   0  0  0  0  0  0
    1.2020    4.7640  -23.5860 C   0  0  0  0  0  0
    3.0340    5.9410  -22.9670 C   0  0  0  0  0  0
    3.4060    3.8060  -23.5940 C   0  0  0  0  0  0
    1.4180    2.5130  -24.5030 C   0  0  0  0  0  0
   -0.6920    3.3670  -24.3700 C   0  0  0  0  0  0
   -0.1320    4.5900  -23.8080 C   0  0  0  0  0  0
   -2.1510    3.3920  -24.6970 C   0  0  0  0  0  0
    3.9730    1.3040  -23.2590 C   0  0  0  0  0  0
    4.9220    0.9560  -22.1230 C   0  0  2  0  0  0
    6.5310    2.4560  -22.7230 C   0  0  2  0  0  0
    4.9440    1.9820  -20.9780 C   0  0  0  0  0  0
   -2.5010    3.5270  -26.1220 C   0  0  0  0  0  0
   -1.6870    2.8480  -21.7480 C   0  0  0  0  0  0
   -0.6530    2.4920  -21.2550 C   0  0  0  0  0  0
   -0.9480    5.6580  -23.4700 F   0  0  0  0  0  0
   -3.8370    3.2090  -20.1850 F   0  0  0  0  0  0
    1.7100    5.9250  -23.0890 N   0  0  0  0  0  0
    3.9080    4.9570  -23.1830 N   0  0  0  0  0  0
    0.1050    2.4410  -24.7810 N   0  0  0  0  0  0
    4.3020    2.7380  -23.7660 N   0  0  0  0  0  0
    6.3200    0.9870  -22.6330 N   0  0  1  0  0  0
   -4.0570    3.7140  -27.8520 O   0  0  0  0  0  0
   -6.0969    3.7873  -21.1513 H   0  0  0  0  0  0
   -6.6151    4.0656  -23.5379 H   0  0  0  0  0  0
    5.5005    3.9218  -21.4922 H   0  0  0  0  0  0
    6.7571    2.9401  -20.6163 H   0  0  0  0  0  0
    6.1396    2.5464  -24.8419 H   0  0  0  0  0  0
    5.9326    4.1044  -23.9786 H   0  0  0  0  0  0
   -5.8593    4.0648  -25.9174 H   0  0  0  0  0  0
    2.0365    1.6666  -24.7791 H   0  0  0  0  0  0
    2.9361    1.2747  -22.8929 H   0  0  0  0  0  0
    4.1062    0.5856  -24.0813 H   0  0  0  0  0  0
    4.6868   -0.0434  -21.7283 H   0  0  0  0  0  0
    7.6029    2.6922  -22.7957 H   0  0  0  0  0  0
    3.9705    2.4915  -20.9265 H   0  0  0  0  0  0
    5.2529    1.4834  -20.0474 H   0  0  0  0  0  0
   -1.7470    3.4768  -26.8991 H   0  0  0  0  0  0
    0.2569    2.1790  -20.8200 H   0  0  0  0  0  0
    6.9724    0.4929  -21.9282 H   0  0  0  0  0  0
   -3.2224    3.6011  -28.2916 H   0  0  0  0  0  0
    3.6570    7.4250  -21.0400 N   0  0  1  0  0  0
    6.9570   10.4390  -22.1300 N   0  0  0  0  0  0
    7.0090    7.7300  -19.8400 N   0  0  0  0  0  0
    8.9060    9.3000  -21.3050 N   0  0  0  0  0  0
    4.0160    8.7970  -20.5320 C   0  0  0  0  0  0
    3.6260    7.2790  -22.5380 C   0  0  0  0  0  0
    6.6640    8.7360  -20.6630 C   0  0  0  0  0  0
    5.3800    9.2590  -21.0140 C   0  0  0  0  0  0
    5.6210   10.2530  -21.8740 C   0  0  0  0  0  0
    7.5790    9.4940  -21.3720 C   0  0  0  0  0  0
    8.3350    7.5350  -19.7740 C   0  0  0  0  0  0
    9.2530    8.2960  -20.4830 C   0  0  0  0  0  0
    4.3776    6.7064  -20.6782 H   0  0  0  0  0  0
    7.2589   11.1789  -22.7799 H   0  0  0  0  0  0
    3.9980    8.7970  -19.4321 H   0  0  0  0  0  0
    3.2508    9.5182  -20.8551 H   0  0  0  0  0  0
    4.6473    7.3710  -22.9361 H   0  0  0  0  0  0
    3.0330    8.0970  -22.9730 H   0  0  0  0  0  0
    4.8836   10.8844  -22.3563 H   0  0  0  0  0  0
    8.7380    6.7511  -19.1430 H   0  0  0  0  0  0
   10.2985    8.0441  -20.3471 H   0  0  0  0  0  0
  1  2  2  0  0  0
  1  3  1  0  0  0
  1 34  1  0  0  0
  2  6  1  0  0  0
  2 35  1  0  0  0
  3  5  2  0  0  0
  3 27  1  0  0  0
  4  5  1  0  0  0
  4  6  2  0  0  0
  4 18  1  0  0  0
  5 24  1  0  0  0
  6 10  1  0  0  0
  7 10  2  0  0  0
  7 23  1  0  0  0
  7 33  1  0  0  0
  8 21  1  0  0  0
  8 22  1  0  0  0
  8 36  1  0  0  0
  8 37  1  0  0  0
  9 21  1  0  0  0
  9 31  1  0  0  0
  9 38  1  0  0  0
  9 39  1  0  0  0
 10 40  1  0  0  0
 11 12  1  0  0  0
 11 14  2  0  0  0
 11 15  1  0  0  0
 12 17  1  0  0  0
 12 28  2  0  0  0
 13 28  1  0  0  0
 13 29  2  0  0  0
 13 57  1  0  0  0
 14 29  1  0  0  0
 14 31  1  0  0  0
 15 30  2  0  0  0
 15 41  1  0  0  0
 16 17  2  0  0  0
 16 18  1  0  0  0
 16 30  1  0  0  0
 17 26  1  0  0  0
 18 23  2  0  0  0
 19 20  1  0  0  0
 19 31  1  0  0  0
 19 42  1  0  0  0
 19 43  1  0  0  0
 20 22  1  0  0  0
 20 32  1  0  0  0
 20 44  1  0  0  0
 21 32  1  0  0  0
 21 45  1  0  0  0
 22 46  1  0  0  0
 22 47  1  0  0  0
 23 48  1  0  0  0
 24 25  3  0  0  0
 25 49  1  0  0  0
 32 50  1  0  0  0
 33 51  1  0  0  0
 52 56  1  0  0  0
 52 57  1  0  0  0
 52 64  1  0  0  0
 53 60  1  0  0  0
 53 61  1  0  0  0
 53 65  1  0  0  0
 54 58  2  0  0  0
 54 62  1  0  0  0
 55 61  2  0  0  0
 55 63  1  0  0  0
 56 59  1  0  0  0
 56 66  1  0  0  0
 56 67  1  0  0  0
 57 68  1  0  0  0
 57 69  1  0  0  0
 58 59  1  0  0  0
 58 61  1  0  0  0
 59 60  2  0  0  0
 60 70  1  0  0  0
 62 63  2  0  0  0
 62 71  1  0  0  0
 63 72  1  0  0  0
M  END
> <s_m_entry_id>
460

> <s_m_entry_name>
000000302.1

> <s_m_Source_Path>
/Users/zaksoul/Documents/3r_UNI/2nd_SEMESTER/BSC/FRAG_RECON/RESULTS/2

> <s_m_Source_File>
000000302.mol2

> <i_m_Source_File_Index>
1

$$$$
No_0_320
                    3D
 Schrodinger Suite 2022-4.
 68 74  0  0  1  0            999 V2000
   -5.1060    3.7440  -21.7680 C   0  0  0  0  0  0
   -5.4000    3.8950  -23.1020 C   0  0  0  0  0  0
   -3.8640    3.4790  -21.4480 C   0  0  0  0  0  0
   -3.0230    3.5190  -23.6370 C   0  0  0  0  0  0
   -2.8330    3.3180  -22.2130 C   0  0  0  0  0  0
   -4.3780    3.7900  -24.1340 C   0  0  0  0  0  0
   -3.6750    3.7270  -26.3490 C   0  0  0  0  0  0
    6.1630    2.9820  -21.2920 C   0  0  0  0  0  0
    5.9660    3.0450  -23.8400 C   0  0  0  0  0  0
   -4.6590    3.8790  -25.4670 C   0  0  0  0  0  0
    2.1920    3.6620  -23.7870 C   0  0  0  0  0  0
    1.3980    4.7950  -23.5050 C   0  0  0  0  0  0
    3.2330    5.9780  -22.9060 C   0  0  0  0  0  0
    3.6030    3.8370  -23.5130 C   0  0  0  0  0  0
    1.6100    2.5350  -24.3980 C   0  0  0  0  0  0
   -0.4990    3.3910  -24.2650 C   0  0  0  0  0  0
    0.0630    4.6190  -23.7180 C   0  0  0  0  0  0
   -1.9600    3.4120  -24.5850 C   0  0  0  0  0  0
    4.1710    1.3390  -23.1540 C   0  0  0  0  0  0
    5.1250    1.0030  -22.0190 C   0  0  2  0  0  0
    6.7320    2.4960  -22.6420 C   0  0  2  0  0  0
    5.1530    2.0410  -20.8850 C   0  0  0  0  0  0
   -2.3170    3.5320  -26.0090 C   0  0  0  0  0  0
   -1.4820    2.8990  -21.6330 C   0  0  0  0  0  0
   -0.4460    2.5490  -21.1400 C   0  0  0  0  0  0
   -0.7510    5.6900  -23.3880 F   0  0  0  0  0  0
   -3.6250    3.2770  -20.0640 F   0  0  0  0  0  0
    1.9080    5.9610  -23.0230 N   0  0  0  0  0  0
    4.1070    4.9930  -23.1160 N   0  0  0  0  0  0
    0.2950    2.4600  -24.6700 N   0  0  0  0  0  0
    4.4970    2.7670  -23.6770 N   0  0  0  0  0  0
    6.5210    1.0290  -22.5360 N   0  0  1  0  0  0
   -3.8810    3.7000  -27.7340 O   0  0  0  0  0  0
   -5.8890    3.8454  -21.0252 H   0  0  0  0  0  0
   -6.4187    4.0977  -23.4121 H   0  0  0  0  0  0
    5.7071    3.9746  -21.4221 H   0  0  0  0  0  0
    6.9670    3.0022  -20.5415 H   0  0  0  0  0  0
    6.3292    2.5638  -24.7601 H   0  0  0  0  0  0
    6.1274    4.1307  -23.9116 H   0  0  0  0  0  0
   -5.6740    4.0718  -25.7953 H   0  0  0  0  0  0
    2.2273    1.6858  -24.6680 H   0  0  0  0  0  0
    3.1359    1.3128  -22.7827 H   0  0  0  0  0  0
    4.3001    0.6117  -23.9691 H   0  0  0  0  0  0
    4.8919    0.0079  -21.6123 H   0  0  0  0  0  0
    7.8033    2.7323  -22.7228 H   0  0  0  0  0  0
    4.1798    2.5513  -20.8346 H   0  0  0  0  0  0
    5.4659    1.5525  -19.9504 H   0  0  0  0  0  0
   -1.5663    3.4728  -26.7888 H   0  0  0  0  0  0
    0.4664    2.2402  -20.7073 H   0  0  0  0  0  0
    7.1763    0.5415  -21.8294 H   0  0  0  0  0  0
   -3.0485    3.5832  -28.1765 H   0  0  0  0  0  0
    3.8610    7.4720  -20.9970 N   0  0  1  0  0  0
    8.0840    8.9640  -20.7760 N   0  0  0  0  0  0
    5.8420    9.0100  -20.8410 C   0  0  0  0  0  0
    3.8270    7.3210  -22.4950 C   0  0  0  0  0  0
    4.3810    8.7930  -20.4930 C   0  0  0  0  0  0
    6.3600    9.7050  -21.9640 C   0  0  0  0  0  0
    7.6880    9.6510  -21.8800 C   0  0  0  0  0  0
    6.9210    8.5920  -20.1710 C   0  0  0  0  0  0
    2.8618    7.3670  -20.6009 H   0  0  0  0  0  0
    9.0873    8.8391  -20.5791 H   0  0  0  0  0  0
    4.8482    7.4069  -22.8947 H   0  0  0  0  0  0
    3.2300    8.1350  -22.9320 H   0  0  0  0  0  0
    4.2539    8.8440  -19.4016 H   0  0  0  0  0  0
    3.7793    9.6095  -20.9188 H   0  0  0  0  0  0
    5.6833   10.1528  -22.6827 H   0  0  0  0  0  0
    8.4278   10.0679  -22.5538 H   0  0  0  0  0  0
    6.9480    8.0198  -19.2507 H   0  0  0  0  0  0
  1  2  2  0  0  0
  1  3  1  0  0  0
  1 34  1  0  0  0
  2  6  1  0  0  0
  2 35  1  0  0  0
  3  5  2  0  0  0
  3 27  1  0  0  0
  4  5  1  0  0  0
  4  6  2  0  0  0
  4 18  1  0  0  0
  5 24  1  0  0  0
  6 10  1  0  0  0
  7 10  2  0  0  0
  7 23  1  0  0  0
  7 33  1  0  0  0
  8 21  1  0  0  0
  8 22  1  0  0  0
  8 36  1  0  0  0
  8 37  1  0  0  0
  9 21  1  0  0  0
  9 31  1  0  0  0
  9 38  1  0  0  0
  9 39  1  0  0  0
 10 40  1  0  0  0
 11 12  1  0  0  0
 11 14  2  0  0  0
 11 15  1  0  0  0
 12 17  1  0  0  0
 12 28  2  0  0  0
 13 28  1  0  0  0
 13 29  2  0  0  0
 13 55  1  0  0  0
 14 29  1  0  0  0
 14 31  1  0  0  0
 15 30  2  0  0  0
 15 41  1  0  0  0
 16 17  2  0  0  0
 16 18  1  0  0  0
 16 30  1  0  0  0
 17 26  1  0  0  0
 18 23  2  0  0  0
 19 20  1  0  0  0
 19 31  1  0  0  0
 19 42  1  0  0  0
 19 43  1  0  0  0
 20 22  1  0  0  0
 20 32  1  0  0  0
 20 44  1  0  0  0
 21 32  1  0  0  0
 21 45  1  0  0  0
 22 46  1  0  0  0
 22 47  1  0  0  0
 23 48  1  0  0  0
 24 25  3  0  0  0
 25 49  1  0  0  0
 32 50  1  0  0  0
 33 51  1  0  0  0
 52 55  1  0  0  0
 52 56  1  0  0  0
 52 60  1  0  0  0
 53 58  1  0  0  0
 53 59  1  0  0  0
 53 61  1  0  0  0
 54 56  1  0  0  0
 54 57  1  0  0  0
 54 59  2  0  0  0
 55 62  1  0  0  0
 55 63  1  0  0  0
 56 64  1  0  0  0
 56 65  1  0  0  0
 57 58  2  0  0  0
 57 66  1  0  0  0
 58 67  1  0  0  0
 59 68  1  0  0  0
M  END
> <s_m_entry_id>
461

> <s_m_entry_name>
000000303.1

> <s_m_Source_Path>
/Users/zaksoul/Documents/3r_UNI/2nd_SEMESTER/BSC/FRAG_RECON/RESULTS/2

> <s_m_Source_File>
000000303.mol2

> <i_m_Source_File_Index>
1

$$$$
No_0_321
                    3D
 Schrodinger Suite 2022-4.
 68 74  0  0  1  0            999 V2000
   -5.3560    3.7220  -22.1200 C   0  0  0  0  0  0
   -5.5980    3.9000  -23.4610 C   0  0  0  0  0  0
   -4.1270    3.4570  -21.7560 C   0  0  0  0  0  0
   -3.1990    3.5490  -23.9080 C   0  0  0  0  0  0
   -3.0640    3.3180  -22.4820 C   0  0  0  0  0  0
   -4.5340    3.8230  -24.4540 C   0  0  0  0  0  0
   -3.7430    3.8120  -26.6390 C   0  0  0  0  0  0
    5.8890    3.0120  -21.2060 C   0  0  0  0  0  0
    5.7940    3.1290  -23.7580 C   0  0  0  0  0  0
   -4.7620    3.9390  -25.7940 C   0  0  0  0  0  0
    2.0170    3.7240  -23.8440 C   0  0  0  0  0  0
    1.2050    4.8460  -23.5700 C   0  0  0  0  0  0
    3.0070    6.0260  -22.8730 C   0  0  0  0  0  0
    3.4140    3.9010  -23.5100 C   0  0  0  0  0  0
    1.4680    2.6070  -24.5030 C   0  0  0  0  0  0
   -0.6510    3.4480  -24.4360 C   0  0  0  0  0  0
   -0.1180    4.6680  -23.8410 C   0  0  0  0  0  0
   -2.0980    3.4680  -24.8140 C   0  0  0  0  0  0
    3.9840    1.3990  -23.1820 C   0  0  0  0  0  0
    4.8940    1.0440  -22.0160 C   0  0  2  0  0  0
    6.5150    2.5580  -22.5420 C   0  0  2  0  0  0
    4.8690    2.0570  -20.8600 C   0  0  0  0  0  0
   -2.3970    3.6170  -26.2490 C   0  0  0  0  0  0
   -1.7350    2.8940  -21.8570 C   0  0  0  0  0  0
   -0.7180    2.5390  -21.3310 C   0  0  0  0  0  0
   -0.9530    5.7270  -23.5210 F   0  0  0  0  0  0
   -3.9420    3.2270  -20.3680 F   0  0  0  0  0  0
    1.6880    6.0050  -23.0430 N   0  0  0  0  0  0
    3.8950    5.0500  -23.0680 N   0  0  0  0  0  0
    0.1650    2.5310  -24.8290 N   0  0  0  0  0  0
    4.3220    2.8400  -23.6610 N   0  0  0  0  0  0
    6.3090    1.0880  -22.4760 N   0  0  1  0  0  0
   -3.8920    3.8140  -28.0320 O   0  0  0  0  0  0
   -6.1689    3.8033  -21.4075 H   0  0  0  0  0  0
   -6.6043    4.1039  -23.8085 H   0  0  0  0  0  0
    5.4321    4.0045  -21.3331 H   0  0  0  0  0  0
    6.6622    3.0211  -20.4237 H   0  0  0  0  0  0
    6.1977    2.6698  -24.6724 H   0  0  0  0  0  0
    5.9514    4.2169  -23.8004 H   0  0  0  0  0  0
   -5.7638    4.1337  -26.1594 H   0  0  0  0  0  0
    2.1006    1.7666  -24.7651 H   0  0  0  0  0  0
    2.9351    1.3587  -22.8532 H   0  0  0  0  0  0
    4.1505    0.6898  -24.0062 H   0  0  0  0  0  0
    4.6508    0.0387  -21.6415 H   0  0  0  0  0  0
    7.5870    2.8023  -22.5743 H   0  0  0  0  0  0
    3.8913    2.5605  -20.8378 H   0  0  0  0  0  0
    5.1475    1.5495  -19.9247 H   0  0  0  0  0  0
   -1.6151    3.5789  -26.9988 H   0  0  0  0  0  0
    0.1776    2.2261  -20.8672 H   0  0  0  0  0  0
    6.9389    0.5896  -21.7541 H   0  0  0  0  0  0
   -3.0416    3.7110  -28.4428 H   0  0  0  0  0  0
    3.8870    7.3480  -20.9360 N   0  0  1  0  0  0
    7.9610    9.1860  -21.3040 N   0  0  0  0  0  0
    5.7510    9.0330  -20.9500 C   0  0  0  0  0  0
    3.5760    7.3630  -22.4100 C   0  0  0  0  0  0
    4.4030    8.6460  -20.3720 C   0  0  0  0  0  0
    5.9930    9.8950  -22.0510 C   0  0  0  0  0  0
    7.3130    9.9530  -22.2200 C   0  0  0  0  0  0
    6.9650    8.6430  -20.5490 C   0  0  0  0  0  0
    2.9926    7.1069  -20.3807 H   0  0  0  0  0  0
    8.9896    9.1320  -21.3120 H   0  0  0  0  0  0
    4.4926    7.5871  -22.9754 H   0  0  0  0  0  0
    2.8512    8.1628  -22.6220 H   0  0  0  0  0  0
    4.4850    8.5620  -19.2783 H   0  0  0  0  0  0
    3.6756    9.4465  -20.5721 H   0  0  0  0  0  0
    5.1618   10.3571  -22.5711 H   0  0  0  0  0  0
    7.8789   10.5089  -22.9588 H   0  0  0  0  0  0
    7.2080    7.9759  -19.7299 H   0  0  0  0  0  0
  1  2  2  0  0  0
  1  3  1  0  0  0
  1 34  1  0  0  0
  2  6  1  0  0  0
  2 35  1  0  0  0
  3  5  2  0  0  0
  3 27  1  0  0  0
  4  5  1  0  0  0
  4  6  2  0  0  0
  4 18  1  0  0  0
  5 24  1  0  0  0
  6 10  1  0  0  0
  7 10  2  0  0  0
  7 23  1  0  0  0
  7 33  1  0  0  0
  8 21  1  0  0  0
  8 22  1  0  0  0
  8 36  1  0  0  0
  8 37  1  0  0  0
  9 21  1  0  0  0
  9 31  1  0  0  0
  9 38  1  0  0  0
  9 39  1  0  0  0
 10 40  1  0  0  0
 11 12  1  0  0  0
 11 14  2  0  0  0
 11 15  1  0  0  0
 12 17  1  0  0  0
 12 28  2  0  0  0
 13 28  1  0  0  0
 13 29  2  0  0  0
 13 55  1  0  0  0
 14 29  1  0  0  0
 14 31  1  0  0  0
 15 30  2  0  0  0
 15 41  1  0  0  0
 16 17  2  0  0  0
 16 18  1  0  0  0
 16 30  1  0  0  0
 17 26  1  0  0  0
 18 23  2  0  0  0
 19 20  1  0  0  0
 19 31  1  0  0  0
 19 42  1  0  0  0
 19 43  1  0  0  0
 20 22  1  0  0  0
 20 32  1  0  0  0
 20 44  1  0  0  0
 21 32  1  0  0  0
 21 45  1  0  0  0
 22 46  1  0  0  0
 22 47  1  0  0  0
 23 48  1  0  0  0
 24 25  3  0  0  0
 25 49  1  0  0  0
 32 50  1  0  0  0
 33 51  1  0  0  0
 52 55  1  0  0  0
 52 56  1  0  0  0
 52 60  1  0  0  0
 53 58  1  0  0  0
 53 59  1  0  0  0
 53 61  1  0  0  0
 54 56  1  0  0  0
 54 57  1  0  0  0
 54 59  2  0  0  0
 55 62  1  0  0  0
 55 63  1  0  0  0
 56 64  1  0  0  0
 56 65  1  0  0  0
 57 58  2  0  0  0
 57 66  1  0  0  0
 58 67  1  0  0  0
 59 68  1  0  0  0
M  END
> <s_m_entry_id>
462

> <s_m_entry_name>
000000304.1

> <s_m_Source_Path>
/Users/zaksoul/Documents/3r_UNI/2nd_SEMESTER/BSC/FRAG_RECON/RESULTS/2

> <s_m_Source_File>
000000304.mol2

> <i_m_Source_File_Index>
1

$$$$
No_0_322
                    3D
 Schrodinger Suite 2022-4.
 68 74  0  0  1  0            999 V2000
   -5.1810    3.6090  -21.8530 C   0  0  0  0  0  0
   -5.4520    3.8050  -23.1860 C   0  0  0  0  0  0
   -3.9420    3.3510  -21.5190 C   0  0  0  0  0  0
   -3.0590    3.4860  -23.6870 C   0  0  0  0  0  0
   -2.8930    3.2340  -22.2690 C   0  0  0  0  0  0
   -4.4090    3.7540  -24.2010 C   0  0  0  0  0  0
   -3.6630    3.7850  -26.4030 C   0  0  0  0  0  0
    6.0870    3.0010  -21.1820 C   0  0  0  0  0  0
    5.9380    3.1560  -23.7310 C   0  0  0  0  0  0
   -4.6650    3.8890  -25.5350 C   0  0  0  0  0  0
    2.1540    3.7130  -23.7290 C   0  0  0  0  0  0
    1.3370    4.8230  -23.4210 C   0  0  0  0  0  0
    3.1410    6.0110  -22.7430 C   0  0  0  0  0  0
    3.5570    3.8990  -23.4210 C   0  0  0  0  0  0
    1.6030    2.6010  -24.3930 C   0  0  0  0  0  0
   -0.5220    3.4190  -24.2700 C   0  0  0  0  0  0
    0.0100    4.6350  -23.6670 C   0  0  0  0  0  0
   -1.9770    3.4300  -24.6180 C   0  0  0  0  0  0
    4.1570    1.3990  -23.1440 C   0  0  0  0  0  0
    5.0950    1.0350  -22.0030 C   0  0  2  0  0  0
    6.6890    2.5740  -22.5390 C   0  0  2  0  0  0
    5.0840    2.0310  -20.8310 C   0  0  0  0  0  0
   -2.3080    3.5970  -26.0440 C   0  0  0  0  0  0
   -1.5470    2.8150  -21.6780 C   0  0  0  0  0  0
   -0.5150    2.4620  -21.1780 C   0  0  0  0  0  0
   -0.8280    5.6800  -23.3140 F   0  0  0  0  0  0
   -3.7260    3.1020  -20.1390 F   0  0  0  0  0  0
    1.8200    5.9780  -22.8860 N   0  0  0  0  0  0
    4.0350    5.0470  -22.9720 N   0  0  0  0  0  0
    0.2950    2.5160  -24.6930 N   0  0  0  0  0  0
    4.4710    2.8500  -23.6070 N   0  0  0  0  0  0
    6.5000    1.1010  -22.4910 N   0  0  1  0  0  0
   -3.8410    3.8060  -27.7920 O   0  0  0  0  0  0
   -5.9796    3.6712  -21.1226 H   0  0  0  0  0  0
   -6.4675    4.0037  -23.5091 H   0  0  0  0  0  0
    5.6179    3.9906  -21.2849 H   0  0  0  0  0  0
    6.8763    3.0060  -20.4159 H   0  0  0  0  0  0
    6.3275    2.7150  -24.6604 H   0  0  0  0  0  0
    6.0833    4.2460  -23.7593 H   0  0  0  0  0  0
   -5.6765    4.0776  -25.8762 H   0  0  0  0  0  0
    2.2385    1.7718  -24.6821 H   0  0  0  0  0  0
    3.1157    1.3435  -22.7939 H   0  0  0  0  0  0
    4.3144    0.7047  -23.9826 H   0  0  0  0  0  0
    4.8700    0.0218  -21.6387 H   0  0  0  0  0  0
    7.7578    2.8293  -22.5885 H   0  0  0  0  0  0
    4.1018    2.5236  -20.7805 H   0  0  0  0  0  0
    5.3877    1.5123  -19.9097 H   0  0  0  0  0  0
   -1.5411    3.5789  -26.8099 H   0  0  0  0  0  0
    0.3934    2.1519  -20.7378 H   0  0  0  0  0  0
    7.1492    0.5983  -21.7894 H   0  0  0  0  0  0
   -2.9984    3.7179  -28.2217 H   0  0  0  0  0  0
    4.3790    7.2160  -20.9300 N   0  0  1  0  0  0
    8.0790    9.4920  -22.0430 N   0  0  0  0  0  0
    6.0460    9.0770  -21.1880 C   0  0  0  0  0  0
    3.7060    7.3460  -22.2710 C   0  0  0  0  0  0
    4.9210    8.4970  -20.3520 C   0  0  0  0  0  0
    5.9380   10.0650  -22.2000 C   0  0  0  0  0  0
    7.1650   10.2760  -22.6750 C   0  0  0  0  0  0
    7.3480    8.7760  -21.1430 C   0  0  0  0  0  0
    3.6743    6.8301  -20.2083 H   0  0  0  0  0  0
    9.0734    9.5460  -22.3061 H   0  0  0  0  0  0
    4.4307    7.7189  -23.0097 H   0  0  0  0  0  0
    2.8931    8.0839  -22.2030 H   0  0  0  0  0  0
    5.2823    8.3139  -19.3293 H   0  0  0  0  0  0
    4.1087    9.2343  -20.2710 H   0  0  0  0  0  0
    4.9704   10.4883  -22.4442 H   0  0  0  0  0  0
    7.4840   10.9579  -23.4549 H   0  0  0  0  0  0
    7.8390    8.0600  -20.4940 H   0  0  0  0  0  0
  1  2  2  0  0  0
  1  3  1  0  0  0
  1 34  1  0  0  0
  2  6  1  0  0  0
  2 35  1  0  0  0
  3  5  2  0  0  0
  3 27  1  0  0  0
  4  5  1  0  0  0
  4  6  2  0  0  0
  4 18  1  0  0  0
  5 24  1  0  0  0
  6 10  1  0  0  0
  7 10  2  0  0  0
  7 23  1  0  0  0
  7 33  1  0  0  0
  8 21  1  0  0  0
  8 22  1  0  0  0
  8 36  1  0  0  0
  8 37  1  0  0  0
  9 21  1  0  0  0
  9 31  1  0  0  0
  9 38  1  0  0  0
  9 39  1  0  0  0
 10 40  1  0  0  0
 11 12  1  0  0  0
 11 14  2  0  0  0
 11 15  1  0  0  0
 12 17  1  0  0  0
 12 28  2  0  0  0
 13 28  1  0  0  0
 13 29  2  0  0  0
 13 55  1  0  0  0
 14 29  1  0  0  0
 14 31  1  0  0  0
 15 30  2  0  0  0
 15 41  1  0  0  0
 16 17  2  0  0  0
 16 18  1  0  0  0
 16 30  1  0  0  0
 17 26  1  0  0  0
 18 23  2  0  0  0
 19 20  1  0  0  0
 19 31  1  0  0  0
 19 42  1  0  0  0
 19 43  1  0  0  0
 20 22  1  0  0  0
 20 32  1  0  0  0
 20 44  1  0  0  0
 21 32  1  0  0  0
 21 45  1  0  0  0
 22 46  1  0  0  0
 22 47  1  0  0  0
 23 48  1  0  0  0
 24 25  3  0  0  0
 25 49  1  0  0  0
 32 50  1  0  0  0
 33 51  1  0  0  0
 52 55  1  0  0  0
 52 56  1  0  0  0
 52 60  1  0  0  0
 53 58  1  0  0  0
 53 59  1  0  0  0
 53 61  1  0  0  0
 54 56  1  0  0  0
 54 57  1  0  0  0
 54 59  2  0  0  0
 55 62  1  0  0  0
 55 63  1  0  0  0
 56 64  1  0  0  0
 56 65  1  0  0  0
 57 58  2  0  0  0
 57 66  1  0  0  0
 58 67  1  0  0  0
 59 68  1  0  0  0
M  END
> <s_m_entry_id>
463

> <s_m_entry_name>
000000305.1

> <s_m_Source_Path>
/Users/zaksoul/Documents/3r_UNI/2nd_SEMESTER/BSC/FRAG_RECON/RESULTS/2

> <s_m_Source_File>
000000305.mol2

> <i_m_Source_File_Index>
1

$$$$
No_0_323
                    3D
 Schrodinger Suite 2022-4.
 68 74  0  0  1  0            999 V2000
   -5.3110    3.5270  -21.8920 C   0  0  0  0  0  0
   -5.5800    3.7220  -23.2260 C   0  0  0  0  0  0
   -4.0730    3.2660  -21.5560 C   0  0  0  0  0  0
   -3.1880    3.3980  -23.7230 C   0  0  0  0  0  0
   -3.0240    3.1470  -22.3050 C   0  0  0  0  0  0
   -4.5350    3.6690  -24.2390 C   0  0  0  0  0  0
   -3.7860    3.6970  -26.4400 C   0  0  0  0  0  0
    5.9540    2.8950  -21.2050 C   0  0  0  0  0  0
    5.8090    3.0490  -23.7540 C   0  0  0  0  0  0
   -4.7900    3.8040  -25.5740 C   0  0  0  0  0  0
    2.0270    3.6140  -23.7580 C   0  0  0  0  0  0
    1.2120    4.7250  -23.4520 C   0  0  0  0  0  0
    3.0170    5.9100  -22.7720 C   0  0  0  0  0  0
    3.4290    3.7970  -23.4480 C   0  0  0  0  0  0
    1.4730    2.5030  -24.4220 C   0  0  0  0  0  0
   -0.6500    3.3250  -24.3020 C   0  0  0  0  0  0
   -0.1160    4.5410  -23.6990 C   0  0  0  0  0  0
   -2.1040    3.3400  -24.6520 C   0  0  0  0  0  0
    4.0240    1.2960  -23.1690 C   0  0  0  0  0  0
    4.9590    0.9300  -22.0260 C   0  0  2  0  0  0
    6.5580    2.4660  -22.5610 C   0  0  2  0  0  0
    4.9490    1.9270  -20.8550 C   0  0  0  0  0  0
   -2.4320    3.5070  -26.0790 C   0  0  0  0  0  0
   -1.6800    2.7240  -21.7120 C   0  0  0  0  0  0
   -0.6490    2.3700  -21.2100 C   0  0  0  0  0  0
   -0.9520    5.5880  -23.3480 F   0  0  0  0  0  0
   -3.8600    3.0170  -20.1750 F   0  0  0  0  0  0
    1.6960    5.8800  -22.9160 N   0  0  0  0  0  0
    3.9090    4.9440  -22.9990 N   0  0  0  0  0  0
    0.1660    2.4210  -24.7240 N   0  0  0  0  0  0
    4.3420    2.7460  -23.6320 N   0  0  0  0  0  0
    6.3650    0.9930  -22.5130 N   0  0  1  0  0  0
   -3.9630    3.7190  -27.8290 O   0  0  0  0  0  0
   -6.1110    3.5902  -21.1633 H   0  0  0  0  0  0
   -6.5945    3.9237  -23.5501 H   0  0  0  0  0  0
    5.4878    3.8859  -21.3089 H   0  0  0  0  0  0
    6.7423    2.8980  -20.4379 H   0  0  0  0  0  0
    6.1987    2.6068  -24.6828 H   0  0  0  0  0  0
    5.9573    4.1386  -23.7822 H   0  0  0  0  0  0
   -5.8007    3.9947  -25.9163 H   0  0  0  0  0  0
    2.1077    1.6727  -24.7098 H   0  0  0  0  0  0
    2.9819    1.2425  -22.8210 H   0  0  0  0  0  0
    4.1805    0.6005  -24.0068 H   0  0  0  0  0  0
    4.7309   -0.0825  -21.6616 H   0  0  0  0  0  0
    7.6275    2.7185  -22.6095 H   0  0  0  0  0  0
    3.9677    2.4217  -20.8065 H   0  0  0  0  0  0
    5.2496    1.4076  -19.9331 H   0  0  0  0  0  0
   -1.6646    3.4869  -26.8444 H   0  0  0  0  0  0
    0.2583    2.0579  -20.7689 H   0  0  0  0  0  0
    7.0121    0.4892  -21.8103 H   0  0  0  0  0  0
   -3.1199    3.6290  -28.2575 H   0  0  0  0  0  0
    4.5540    7.0590  -21.1610 N   0  0  1  0  0  0
    7.7390    9.7430  -22.8220 N   0  0  0  0  0  0
    5.9890    9.0760  -21.5860 C   0  0  0  0  0  0
    3.5840    7.2440  -22.2990 C   0  0  0  0  0  0
    5.1260    8.3280  -20.5870 C   0  0  0  0  0  0
    5.5860   10.1350  -22.4400 C   0  0  0  0  0  0
    6.6550   10.4940  -23.1500 C   0  0  0  0  0  0
    7.2840    8.8900  -21.8620 C   0  0  0  0  0  0
    4.0602    6.5502  -20.3463 H   0  0  0  0  0  0
    8.6410    9.9080  -23.2910 H   0  0  0  0  0  0
    4.0937    7.7427  -23.1365 H   0  0  0  0  0  0
    2.7610    7.8980  -21.9750 H   0  0  0  0  0  0
    5.7233    8.0899  -19.6945 H   0  0  0  0  0  0
    4.3064    8.9805  -20.2517 H   0  0  0  0  0  0
    4.5620   10.4900  -22.4180 H   0  0  0  0  0  0
    6.7390   11.2671  -23.9051 H   0  0  0  0  0  0
    7.9570    8.1660  -21.4170 H   0  0  0  0  0  0
  1  2  2  0  0  0
  1  3  1  0  0  0
  1 34  1  0  0  0
  2  6  1  0  0  0
  2 35  1  0  0  0
  3  5  2  0  0  0
  3 27  1  0  0  0
  4  5  1  0  0  0
  4  6  2  0  0  0
  4 18  1  0  0  0
  5 24  1  0  0  0
  6 10  1  0  0  0
  7 10  2  0  0  0
  7 23  1  0  0  0
  7 33  1  0  0  0
  8 21  1  0  0  0
  8 22  1  0  0  0
  8 36  1  0  0  0
  8 37  1  0  0  0
  9 21  1  0  0  0
  9 31  1  0  0  0
  9 38  1  0  0  0
  9 39  1  0  0  0
 10 40  1  0  0  0
 11 12  1  0  0  0
 11 14  2  0  0  0
 11 15  1  0  0  0
 12 17  1  0  0  0
 12 28  2  0  0  0
 13 28  1  0  0  0
 13 29  2  0  0  0
 13 55  1  0  0  0
 14 29  1  0  0  0
 14 31  1  0  0  0
 15 30  2  0  0  0
 15 41  1  0  0  0
 16 17  2  0  0  0
 16 18  1  0  0  0
 16 30  1  0  0  0
 17 26  1  0  0  0
 18 23  2  0  0  0
 19 20  1  0  0  0
 19 31  1  0  0  0
 19 42  1  0  0  0
 19 43  1  0  0  0
 20 22  1  0  0  0
 20 32  1  0  0  0
 20 44  1  0  0  0
 21 32  1  0  0  0
 21 45  1  0  0  0
 22 46  1  0  0  0
 22 47  1  0  0  0
 23 48  1  0  0  0
 24 25  3  0  0  0
 25 49  1  0  0  0
 32 50  1  0  0  0
 33 51  1  0  0  0
 52 55  1  0  0  0
 52 56  1  0  0  0
 52 60  1  0  0  0
 53 58  1  0  0  0
 53 59  1  0  0  0
 53 61  1  0  0  0
 54 56  1  0  0  0
 54 57  1  0  0  0
 54 59  2  0  0  0
 55 62  1  0  0  0
 55 63  1  0  0  0
 56 64  1  0  0  0
 56 65  1  0  0  0
 57 58  2  0  0  0
 57 66  1  0  0  0
 58 67  1  0  0  0
 59 68  1  0  0  0
M  END
> <s_m_entry_id>
464

> <s_m_entry_name>
000000306.1

> <s_m_Source_Path>
/Users/zaksoul/Documents/3r_UNI/2nd_SEMESTER/BSC/FRAG_RECON/RESULTS/2

> <s_m_Source_File>
000000306.mol2

> <i_m_Source_File_Index>
1

$$$$
No_0_324
                    3D
 Schrodinger Suite 2022-4.
 68 74  0  0  1  0            999 V2000
   -5.3030    3.3110  -21.9020 C   0  0  0  0  0  0
   -5.5690    3.4970  -23.2380 C   0  0  0  0  0  0
   -4.0600    3.0910  -21.5570 C   0  0  0  0  0  0
   -3.1630    3.2500  -23.7180 C   0  0  0  0  0  0
   -3.0020    3.0050  -22.2980 C   0  0  0  0  0  0
   -4.5150    3.4770  -24.2440 C   0  0  0  0  0  0
   -3.7520    3.5290  -26.4390 C   0  0  0  0  0  0
    5.9720    3.0460  -21.1350 C   0  0  0  0  0  0
    5.8400    3.1940  -23.6840 C   0  0  0  0  0  0
   -4.7650    3.6030  -25.5800 C   0  0  0  0  0  0
    2.0410    3.6360  -23.7160 C   0  0  0  0  0  0
    1.1880    4.7200  -23.4160 C   0  0  0  0  0  0
    2.9500    5.9630  -22.7240 C   0  0  0  0  0  0
    3.4350    3.8650  -23.3960 C   0  0  0  0  0  0
    1.5290    2.5070  -24.3830 C   0  0  0  0  0  0
   -0.6200    3.2600  -24.2790 C   0  0  0  0  0  0
   -0.1300    4.4920  -23.6730 C   0  0  0  0  0  0
   -2.0710    3.2270  -24.6400 C   0  0  0  0  0  0
    4.1080    1.3840  -23.1110 C   0  0  0  0  0  0
    5.0470    1.0500  -21.9610 C   0  0  2  0  0  0
    6.5980    2.6370  -22.4850 C   0  0  2  0  0  0
    4.9960    2.0460  -20.7900 C   0  0  0  0  0  0
   -2.3950    3.3830  -26.0680 C   0  0  0  0  0  0
   -1.6490    2.6270  -21.6950 C   0  0  0  0  0  0
   -0.6110    2.3070  -21.1860 C   0  0  0  0  0  0
   -1.0030    5.5120  -23.3280 F   0  0  0  0  0  0
   -3.8480    2.8490  -20.1750 F   0  0  0  0  0  0
    1.6310    5.8900  -22.8780 N   0  0  0  0  0  0
    3.8740    5.0270  -22.9440 N   0  0  0  0  0  0
    0.2270    2.3820  -24.6950 N   0  0  0  0  0  0
    4.3820    2.8440  -23.5730 N   0  0  0  0  0  0
    6.4530    1.1580  -22.4370 N   0  0  1  0  0  0
   -3.9190    3.5440  -27.8300 O   0  0  0  0  0  0
   -6.1100    3.3491  -21.1793 H   0  0  0  0  0  0
   -6.5871    3.6647  -23.5703 H   0  0  0  0  0  0
    5.4736    4.0206  -21.2430 H   0  0  0  0  0  0
    6.7541    3.0753  -20.3620 H   0  0  0  0  0  0
    6.2509    2.7649  -24.6098 H   0  0  0  0  0  0
    5.9520    4.2879  -23.7123 H   0  0  0  0  0  0
   -5.7787    3.7606  -25.9303 H   0  0  0  0  0  0
    2.1921    1.6975  -24.6659 H   0  0  0  0  0  0
    3.0659    1.2972  -22.7697 H   0  0  0  0  0  0
    4.2938    0.6935  -23.9469 H   0  0  0  0  0  0
    4.8492    0.0307  -21.5977 H   0  0  0  0  0  0
    7.6592    2.9235  -22.5264 H   0  0  0  0  0  0
    3.9991    2.5091  -20.7496 H   0  0  0  0  0  0
    5.3068    1.5373  -19.8655 H   0  0  0  0  0  0
   -1.6220    3.3880  -26.8279 H   0  0  0  0  0  0
    0.3026    2.0241  -20.7382 H   0  0  0  0  0  0
    7.1118    0.6757  -21.7301 H   0  0  0  0  0  0
   -3.0702    3.4806  -28.2519 H   0  0  0  0  0  0
    4.6400    7.1580  -21.3140 N   0  0  1  0  0  0
    7.2200   10.2590  -23.2730 N   0  0  0  0  0  0
    5.7880    9.3360  -21.8120 C   0  0  0  0  0  0
    3.4700    7.3160  -22.2480 C   0  0  0  0  0  0
    5.1900    8.4400  -20.7450 C   0  0  0  0  0  0
    5.1440   10.4000  -22.4950 C   0  0  0  0  0  0
    6.0310   10.9140  -23.3460 C   0  0  0  0  0  0
    7.0240    9.3030  -22.3220 C   0  0  0  0  0  0
    4.3492    6.5494  -20.4705 H   0  0  0  0  0  0
    8.0045   10.5462  -23.8754 H   0  0  0  0  0  0
    3.7742    7.9173  -23.1174 H   0  0  0  0  0  0
    2.6619    7.8580  -21.7350 H   0  0  0  0  0  0
    5.9561    8.2070  -19.9909 H   0  0  0  0  0  0
    4.3878    8.9801  -20.2209 H   0  0  0  0  0  0
    4.1130   10.6450  -22.2670 H   0  0  0  0  0  0
    5.9080   11.7392  -24.0381 H   0  0  0  0  0  0
    7.8281    8.6249  -22.0600 H   0  0  0  0  0  0
  1  2  2  0  0  0
  1  3  1  0  0  0
  1 34  1  0  0  0
  2  6  1  0  0  0
  2 35  1  0  0  0
  3  5  2  0  0  0
  3 27  1  0  0  0
  4  5  1  0  0  0
  4  6  2  0  0  0
  4 18  1  0  0  0
  5 24  1  0  0  0
  6 10  1  0  0  0
  7 10  2  0  0  0
  7 23  1  0  0  0
  7 33  1  0  0  0
  8 21  1  0  0  0
  8 22  1  0  0  0
  8 36  1  0  0  0
  8 37  1  0  0  0
  9 21  1  0  0  0
  9 31  1  0  0  0
  9 38  1  0  0  0
  9 39  1  0  0  0
 10 40  1  0  0  0
 11 12  1  0  0  0
 11 14  2  0  0  0
 11 15  1  0  0  0
 12 17  1  0  0  0
 12 28  2  0  0  0
 13 28  1  0  0  0
 13 29  2  0  0  0
 13 55  1  0  0  0
 14 29  1  0  0  0
 14 31  1  0  0  0
 15 30  2  0  0  0
 15 41  1  0  0  0
 16 17  2  0  0  0
 16 18  1  0  0  0
 16 30  1  0  0  0
 17 26  1  0  0  0
 18 23  2  0  0  0
 19 20  1  0  0  0
 19 31  1  0  0  0
 19 42  1  0  0  0
 19 43  1  0  0  0
 20 22  1  0  0  0
 20 32  1  0  0  0
 20 44  1  0  0  0
 21 32  1  0  0  0
 21 45  1  0  0  0
 22 46  1  0  0  0
 22 47  1  0  0  0
 23 48  1  0  0  0
 24 25  3  0  0  0
 25 49  1  0  0  0
 32 50  1  0  0  0
 33 51  1  0  0  0
 52 55  1  0  0  0
 52 56  1  0  0  0
 52 60  1  0  0  0
 53 58  1  0  0  0
 53 59  1  0  0  0
 53 61  1  0  0  0
 54 56  1  0  0  0
 54 57  1  0  0  0
 54 59  2  0  0  0
 55 62  1  0  0  0
 55 63  1  0  0  0
 56 64  1  0  0  0
 56 65  1  0  0  0
 57 58  2  0  0  0
 57 66  1  0  0  0
 58 67  1  0  0  0
 59 68  1  0  0  0
M  END
> <s_m_entry_id>
465

> <s_m_entry_name>
000000307.1

> <s_m_Source_Path>
/Users/zaksoul/Documents/3r_UNI/2nd_SEMESTER/BSC/FRAG_RECON/RESULTS/2

> <s_m_Source_File>
000000307.mol2

> <i_m_Source_File_Index>
1

$$$$
No_0_325
                    3D
 Schrodinger Suite 2022-4.
 68 74  0  0  1  0            999 V2000
   -5.3980    3.5340  -21.9480 C   0  0  0  0  0  0
   -5.6490    3.7260  -23.2860 C   0  0  0  0  0  0
   -4.1670    3.2620  -21.5960 C   0  0  0  0  0  0
   -3.2550    3.3730  -23.7540 C   0  0  0  0  0  0
   -3.1100    3.1270  -22.3320 C   0  0  0  0  0  0
   -4.5930    3.6560  -24.2870 C   0  0  0  0  0  0
   -3.8180    3.6640  -26.4790 C   0  0  0  0  0  0
    5.8510    2.7800  -21.1270 C   0  0  0  0  0  0
    5.7370    2.9230  -23.6770 C   0  0  0  0  0  0
   -4.8310    3.7860  -25.6250 C   0  0  0  0  0  0
    1.9620    3.5300  -23.7290 C   0  0  0  0  0  0
    1.1560    4.6520  -23.4370 C   0  0  0  0  0  0
    2.9670    5.8200  -22.7420 C   0  0  0  0  0  0
    3.3620    3.6990  -23.4030 C   0  0  0  0  0  0
    1.4040    2.4220  -24.3940 C   0  0  0  0  0  0
   -0.7110    3.2690  -24.3030 C   0  0  0  0  0  0
   -0.1710    4.4810  -23.7000 C   0  0  0  0  0  0
   -2.1610    3.2970  -24.6700 C   0  0  0  0  0  0
    3.9260    1.1930  -23.1040 C   0  0  0  0  0  0
    4.8430    0.8230  -21.9490 C   0  0  2  0  0  0
    6.4650    2.3380  -22.4730 C   0  0  2  0  0  0
    4.8310    1.8250  -20.7830 C   0  0  0  0  0  0
   -2.4710    3.4610  -26.1010 C   0  0  0  0  0  0
   -1.7780    2.6930  -21.7210 C   0  0  0  0  0  0
   -0.7580    2.3290  -21.2060 C   0  0  0  0  0  0
   -0.9990    5.5390  -23.3640 F   0  0  0  0  0  0
   -3.9730    3.0170  -20.2120 F   0  0  0  0  0  0
    1.6460    5.8040  -22.9020 N   0  0  0  0  0  0
    3.8500    4.8430  -22.9540 N   0  0  0  0  0  0
    0.0990    2.3520  -24.7110 N   0  0  0  0  0  0
    4.2650    2.6370  -23.5710 N   0  0  0  0  0  0
    6.2550    0.8670  -22.4190 N   0  0  1  0  0  0
   -3.9790    3.6800  -27.8700 O   0  0  0  0  0  0
   -6.2055    3.6103  -21.2289 H   0  0  0  0  0  0
   -6.6572    3.9367  -23.6241 H   0  0  0  0  0  0
    5.3971    3.7755  -21.2410 H   0  0  0  0  0  0
    6.6303    2.7790  -20.3507 H   0  0  0  0  0  0
    6.1325    2.4720  -24.5991 H   0  0  0  0  0  0
    5.8974    4.0108  -23.7093 H   0  0  0  0  0  0
   -5.8352    3.9868  -25.9805 H   0  0  0  0  0  0
    2.0323    1.5829  -24.6700 H   0  0  0  0  0  0
    2.8794    1.1526  -22.7679 H   0  0  0  0  0  0
    4.0844    0.4917  -23.9365 H   0  0  0  0  0  0
    4.5998   -0.1853  -21.5826 H   0  0  0  0  0  0
    7.5378    2.5782  -22.5103 H   0  0  0  0  0  0
    3.8552    2.3316  -20.7487 H   0  0  0  0  0  0
    5.1145    1.3074  -19.8547 H   0  0  0  0  0  0
   -1.6949    3.4279  -26.8570 H   0  0  0  0  0  0
    0.1407    2.0091  -20.7531 H   0  0  0  0  0  0
    6.8892    0.3601  -21.7068 H   0  0  0  0  0  0
   -3.1317    3.5790  -28.2877 H   0  0  0  0  0  0
    4.9550    6.9920  -21.7710 N   0  0  1  0  0  0
    6.6290   10.5140  -23.9860 N   0  0  0  0  0  0
    5.7780    9.3070  -22.2960 C   0  0  0  0  0  0
    3.5430    7.1500  -22.2700 C   0  0  0  0  0  0
    5.5930    8.2450  -21.2290 C   0  0  0  0  0  0
    4.9000   10.3800  -22.5970 C   0  0  0  0  0  0
    5.4470   11.0640  -23.6010 C   0  0  0  0  0  0
    6.7900    9.4420  -23.1600 C   0  0  0  0  0  0
    4.9750    6.2684  -20.9695 H   0  0  0  0  0  0
    7.1671   10.9361  -24.7562 H   0  0  0  0  0  0
    3.5270    7.8714  -23.1003 H   0  0  0  0  0  0
    2.9131    7.5569  -21.4652 H   0  0  0  0  0  0
    6.5687    7.9968  -20.7857 H   0  0  0  0  0  0
    4.9720    8.6490  -20.4159 H   0  0  0  0  0  0
    3.9833   10.5050  -22.0322 H   0  0  0  0  0  0
    5.0711   11.9477  -24.1038 H   0  0  0  0  0  0
    7.6680    8.8130  -23.2530 H   0  0  0  0  0  0
  1  2  2  0  0  0
  1  3  1  0  0  0
  1 34  1  0  0  0
  2  6  1  0  0  0
  2 35  1  0  0  0
  3  5  2  0  0  0
  3 27  1  0  0  0
  4  5  1  0  0  0
  4  6  2  0  0  0
  4 18  1  0  0  0
  5 24  1  0  0  0
  6 10  1  0  0  0
  7 10  2  0  0  0
  7 23  1  0  0  0
  7 33  1  0  0  0
  8 21  1  0  0  0
  8 22  1  0  0  0
  8 36  1  0  0  0
  8 37  1  0  0  0
  9 21  1  0  0  0
  9 31  1  0  0  0
  9 38  1  0  0  0
  9 39  1  0  0  0
 10 40  1  0  0  0
 11 12  1  0  0  0
 11 14  2  0  0  0
 11 15  1  0  0  0
 12 17  1  0  0  0
 12 28  2  0  0  0
 13 28  1  0  0  0
 13 29  2  0  0  0
 13 55  1  0  0  0
 14 29  1  0  0  0
 14 31  1  0  0  0
 15 30  2  0  0  0
 15 41  1  0  0  0
 16 17  2  0  0  0
 16 18  1  0  0  0
 16 30  1  0  0  0
 17 26  1  0  0  0
 18 23  2  0  0  0
 19 20  1  0  0  0
 19 31  1  0  0  0
 19 42  1  0  0  0
 19 43  1  0  0  0
 20 22  1  0  0  0
 20 32  1  0  0  0
 20 44  1  0  0  0
 21 32  1  0  0  0
 21 45  1  0  0  0
 22 46  1  0  0  0
 22 47  1  0  0  0
 23 48  1  0  0  0
 24 25  3  0  0  0
 25 49  1  0  0  0
 32 50  1  0  0  0
 33 51  1  0  0  0
 52 55  1  0  0  0
 52 56  1  0  0  0
 52 60  1  0  0  0
 53 58  1  0  0  0
 53 59  1  0  0  0
 53 61  1  0  0  0
 54 56  1  0  0  0
 54 57  1  0  0  0
 54 59  2  0  0  0
 55 62  1  0  0  0
 55 63  1  0  0  0
 56 64  1  0  0  0
 56 65  1  0  0  0
 57 58  2  0  0  0
 57 66  1  0  0  0
 58 67  1  0  0  0
 59 68  1  0  0  0
M  END
> <s_m_entry_id>
466

> <s_m_entry_name>
000000308.1

> <s_m_Source_Path>
/Users/zaksoul/Documents/3r_UNI/2nd_SEMESTER/BSC/FRAG_RECON/RESULTS/2

> <s_m_Source_File>
000000308.mol2

> <i_m_Source_File_Index>
1

$$$$
No_0_326
                    3D
 Schrodinger Suite 2022-4.
 68 74  0  0  1  0            999 V2000
   -5.1810    3.6090  -21.8530 C   0  0  0  0  0  0
   -5.4520    3.8050  -23.1860 C   0  0  0  0  0  0
   -3.9420    3.3510  -21.5190 C   0  0  0  0  0  0
   -3.0590    3.4860  -23.6870 C   0  0  0  0  0  0
   -2.8930    3.2340  -22.2690 C   0  0  0  0  0  0
   -4.4090    3.7540  -24.2010 C   0  0  0  0  0  0
   -3.6630    3.7850  -26.4030 C   0  0  0  0  0  0
    6.0870    3.0010  -21.1820 C   0  0  0  0  0  0
    5.9380    3.1560  -23.7310 C   0  0  0  0  0  0
   -4.6650    3.8890  -25.5350 C   0  0  0  0  0  0
    2.1540    3.7130  -23.7290 C   0  0  0  0  0  0
    1.3370    4.8230  -23.4210 C   0  0  0  0  0  0
    3.1410    6.0110  -22.7430 C   0  0  0  0  0  0
    3.5570    3.8990  -23.4210 C   0  0  0  0  0  0
    1.6030    2.6010  -24.3930 C   0  0  0  0  0  0
   -0.5220    3.4190  -24.2700 C   0  0  0  0  0  0
    0.0100    4.6350  -23.6670 C   0  0  0  0  0  0
   -1.9770    3.4300  -24.6180 C   0  0  0  0  0  0
    4.1570    1.3990  -23.1440 C   0  0  0  0  0  0
    5.0950    1.0350  -22.0030 C   0  0  2  0  0  0
    6.6890    2.5740  -22.5390 C   0  0  2  0  0  0
    5.0840    2.0310  -20.8310 C   0  0  0  0  0  0
   -2.3080    3.5970  -26.0440 C   0  0  0  0  0  0
   -1.5470    2.8150  -21.6780 C   0  0  0  0  0  0
   -0.5150    2.4620  -21.1780 C   0  0  0  0  0  0
   -0.8280    5.6800  -23.3140 F   0  0  0  0  0  0
   -3.7260    3.1020  -20.1390 F   0  0  0  0  0  0
    1.8200    5.9780  -22.8860 N   0  0  0  0  0  0
    4.0350    5.0470  -22.9720 N   0  0  0  0  0  0
    0.2950    2.5160  -24.6930 N   0  0  0  0  0  0
    4.4710    2.8500  -23.6070 N   0  0  0  0  0  0
    6.5000    1.1010  -22.4910 N   0  0  1  0  0  0
   -3.8410    3.8060  -27.7920 O   0  0  0  0  0  0
   -5.9796    3.6712  -21.1226 H   0  0  0  0  0  0
   -6.4675    4.0037  -23.5091 H   0  0  0  0  0  0
    5.6179    3.9906  -21.2849 H   0  0  0  0  0  0
    6.8763    3.0060  -20.4159 H   0  0  0  0  0  0
    6.3275    2.7150  -24.6604 H   0  0  0  0  0  0
    6.0833    4.2460  -23.7593 H   0  0  0  0  0  0
   -5.6765    4.0776  -25.8762 H   0  0  0  0  0  0
    2.2385    1.7718  -24.6821 H   0  0  0  0  0  0
    3.1157    1.3435  -22.7939 H   0  0  0  0  0  0
    4.3144    0.7047  -23.9826 H   0  0  0  0  0  0
    4.8700    0.0218  -21.6387 H   0  0  0  0  0  0
    7.7578    2.8293  -22.5885 H   0  0  0  0  0  0
    4.1018    2.5236  -20.7805 H   0  0  0  0  0  0
    5.3877    1.5123  -19.9097 H   0  0  0  0  0  0
   -1.5411    3.5789  -26.8099 H   0  0  0  0  0  0
    0.3934    2.1519  -20.7378 H   0  0  0  0  0  0
    7.1492    0.5983  -21.7894 H   0  0  0  0  0  0
   -2.9984    3.7179  -28.2217 H   0  0  0  0  0  0
    5.1960    7.4190  -22.4810 N   0  0  1  0  0  0
    5.2070   11.5100  -24.3170 N   0  0  0  0  0  0
    5.3940    9.9080  -22.7570 C   0  0  0  0  0  0
    3.7060    7.3460  -22.2710 C   0  0  0  0  0  0
    5.8560    8.6820  -21.9930 C   0  0  0  0  0  0
    4.3550   10.8020  -22.3920 C   0  0  0  0  0  0
    4.2840   11.7310  -23.3440 C   0  0  0  0  0  0
    5.8630   10.3850  -23.9150 C   0  0  0  0  0  0
    5.6739    6.6031  -21.9591 H   0  0  0  0  0  0
    5.2710   12.1491  -25.1222 H   0  0  0  0  0  0
    3.2191    8.1649  -22.8209 H   0  0  0  0  0  0
    3.4800    7.4820  -21.2031 H   0  0  0  0  0  0
    6.9477    8.5830  -22.0850 H   0  0  0  0  0  0
    5.6421    8.8160  -20.9223 H   0  0  0  0  0  0
    3.7992   10.6411  -21.4753 H   0  0  0  0  0  0
    3.6140   12.5801  -23.4160 H   0  0  0  0  0  0
    6.6658    9.9791  -24.5198 H   0  0  0  0  0  0
  1  2  2  0  0  0
  1  3  1  0  0  0
  1 34  1  0  0  0
  2  6  1  0  0  0
  2 35  1  0  0  0
  3  5  2  0  0  0
  3 27  1  0  0  0
  4  5  1  0  0  0
  4  6  2  0  0  0
  4 18  1  0  0  0
  5 24  1  0  0  0
  6 10  1  0  0  0
  7 10  2  0  0  0
  7 23  1  0  0  0
  7 33  1  0  0  0
  8 21  1  0  0  0
  8 22  1  0  0  0
  8 36  1  0  0  0
  8 37  1  0  0  0
  9 21  1  0  0  0
  9 31  1  0  0  0
  9 38  1  0  0  0
  9 39  1  0  0  0
 10 40  1  0  0  0
 11 12  1  0  0  0
 11 14  2  0  0  0
 11 15  1  0  0  0
 12 17  1  0  0  0
 12 28  2  0  0  0
 13 28  1  0  0  0
 13 29  2  0  0  0
 13 55  1  0  0  0
 14 29  1  0  0  0
 14 31  1  0  0  0
 15 30  2  0  0  0
 15 41  1  0  0  0
 16 17  2  0  0  0
 16 18  1  0  0  0
 16 30  1  0  0  0
 17 26  1  0  0  0
 18 23  2  0  0  0
 19 20  1  0  0  0
 19 31  1  0  0  0
 19 42  1  0  0  0
 19 43  1  0  0  0
 20 22  1  0  0  0
 20 32  1  0  0  0
 20 44  1  0  0  0
 21 32  1  0  0  0
 21 45  1  0  0  0
 22 46  1  0  0  0
 22 47  1  0  0  0
 23 48  1  0  0  0
 24 25  3  0  0  0
 25 49  1  0  0  0
 32 50  1  0  0  0
 33 51  1  0  0  0
 52 55  1  0  0  0
 52 56  1  0  0  0
 52 60  1  0  0  0
 53 58  1  0  0  0
 53 59  1  0  0  0
 53 61  1  0  0  0
 54 56  1  0  0  0
 54 57  1  0  0  0
 54 59  2  0  0  0
 55 62  1  0  0  0
 55 63  1  0  0  0
 56 64  1  0  0  0
 56 65  1  0  0  0
 57 58  2  0  0  0
 57 66  1  0  0  0
 58 67  1  0  0  0
 59 68  1  0  0  0
M  END
> <s_m_entry_id>
467

> <s_m_entry_name>
000000309.1

> <s_m_Source_Path>
/Users/zaksoul/Documents/3r_UNI/2nd_SEMESTER/BSC/FRAG_RECON/RESULTS/2

> <s_m_Source_File>
000000309.mol2

> <i_m_Source_File_Index>
1

$$$$
No_0_327
                    3D
 Schrodinger Suite 2022-4.
 68 74  0  0  1  0            999 V2000
   -5.3100    3.4140  -21.7510 C   0  0  0  0  0  0
   -5.5600    3.6450  -23.0830 C   0  0  0  0  0  0
   -4.0730    3.1700  -21.4000 C   0  0  0  0  0  0
   -3.1520    3.3860  -23.5460 C   0  0  0  0  0  0
   -3.0080    3.0950  -22.1330 C   0  0  0  0  0  0
   -4.4960    3.6450  -24.0780 C   0  0  0  0  0  0
   -3.7100    3.7560  -26.2630 C   0  0  0  0  0  0
    5.9530    2.9970  -20.8800 C   0  0  0  0  0  0
    5.8490    3.2260  -23.4250 C   0  0  0  0  0  0
   -4.7300    3.8150  -25.4120 C   0  0  0  0  0  0
    2.0560    3.7120  -23.4800 C   0  0  0  0  0  0
    1.2120    4.7960  -23.1550 C   0  0  0  0  0  0
    2.9800    5.9960  -22.4070 C   0  0  0  0  0  0
    3.4480    3.9150  -23.1400 C   0  0  0  0  0  0
    1.5380    2.6100  -24.1880 C   0  0  0  0  0  0
   -0.6040    3.3840  -24.0810 C   0  0  0  0  0  0
   -0.1060    4.5910  -23.4320 C   0  0  0  0  0  0
   -2.0510    3.3790  -24.4570 C   0  0  0  0  0  0
    4.0920    1.4180  -22.9260 C   0  0  0  0  0  0
    5.0140    1.0380  -21.7780 C   0  0  2  0  0  0
    6.5890    2.6220  -22.2370 C   0  0  2  0  0  0
    4.9630    1.9970  -20.5770 C   0  0  0  0  0  0
   -2.3590    3.5830  -25.8830 C   0  0  0  0  0  0
   -1.6660    2.6830  -21.5290 C   0  0  0  0  0  0
   -0.6370    2.3350  -21.0200 C   0  0  0  0  0  0
   -0.9710    5.6100  -23.0640 F   0  0  0  0  0  0
   -3.8780    2.8830  -20.0240 F   0  0  0  0  0  0
    1.6620    5.9430  -22.5760 N   0  0  0  0  0  0
    3.8960    5.0570  -22.6470 N   0  0  0  0  0  0
    0.2380    2.5100  -24.5160 N   0  0  0  0  0  0
    4.3860    2.8890  -23.3390 N   0  0  0  0  0  0
    6.4270    1.1450  -22.2370 N   0  0  1  0  0  0
   -3.8630    3.8160  -27.6540 O   0  0  0  0  0  0
   -6.1230    3.4391  -21.0344 H   0  0  0  0  0  0
   -6.5729    3.8347  -23.4193 H   0  0  0  0  0  0
    5.4673    3.9805  -20.9628 H   0  0  0  0  0  0
    6.7273    2.9930  -20.0987 H   0  0  0  0  0  0
    6.2638    2.8203  -24.3595 H   0  0  0  0  0  0
    5.9741    4.3188  -23.4179 H   0  0  0  0  0  0
   -5.7381    3.9956  -25.7671 H   0  0  0  0  0  0
    2.1952    1.8022  -24.4890 H   0  0  0  0  0  0
    3.0454    1.3333  -22.5983 H   0  0  0  0  0  0
    4.2778    0.7527  -23.7821 H   0  0  0  0  0  0
    4.8021    0.0099  -21.4491 H   0  0  0  0  0  0
    7.6535    2.8985  -22.2582 H   0  0  0  0  0  0
    3.9711    2.4703  -20.5316 H   0  0  0  0  0  0
    5.2586    1.4562  -19.6659 H   0  0  0  0  0  0
   -1.5782    3.6031  -26.6347 H   0  0  0  0  0  0
    0.2687    2.0281  -20.5721 H   0  0  0  0  0  0
    7.0716    0.6330  -21.5379 H   0  0  0  0  0  0
   -3.0108    3.7566  -28.0697 H   0  0  0  0  0  0
    4.1760    8.0850  -23.0030 N   0  3  0  0  0  0
    7.0550   10.2160  -22.8710 N   0  0  0  0  0  0
    7.9900    9.4130  -21.0850 N   0  0  0  0  0  0
    4.6240    9.4840  -22.6590 C   0  0  0  0  0  0
    3.5100    7.3270  -21.8840 C   0  0  0  0  0  0
    6.6510    9.0780  -21.0900 C   0  0  0  0  0  0
    6.0640    9.5640  -22.1820 C   0  0  0  0  0  0
    8.1850   10.1090  -22.1950 C   0  0  0  0  0  0
    4.9651    7.5560  -23.3400 H   0  0  0  0  0  0
    3.5566    8.1190  -23.7975 H   0  0  0  0  0  0
    8.5932    9.1109  -20.3067 H   0  0  0  0  0  0
    3.9604    9.8997  -21.8865 H   0  0  0  0  0  0
    4.4930   10.1350  -23.5360 H   0  0  0  0  0  0
    2.6756    7.9223  -21.4848 H   0  0  0  0  0  0
    4.2399    7.1420  -21.0821 H   0  0  0  0  0  0
    6.2338    8.4997  -20.2736 H   0  0  0  0  0  0
    9.0913   10.5626  -22.5797 H   0  0  0  0  0  0
  1  2  2  0  0  0
  1  3  1  0  0  0
  1 34  1  0  0  0
  2  6  1  0  0  0
  2 35  1  0  0  0
  3  5  2  0  0  0
  3 27  1  0  0  0
  4  5  1  0  0  0
  4  6  2  0  0  0
  4 18  1  0  0  0
  5 24  1  0  0  0
  6 10  1  0  0  0
  7 10  2  0  0  0
  7 23  1  0  0  0
  7 33  1  0  0  0
  8 21  1  0  0  0
  8 22  1  0  0  0
  8 36  1  0  0  0
  8 37  1  0  0  0
  9 21  1  0  0  0
  9 31  1  0  0  0
  9 38  1  0  0  0
  9 39  1  0  0  0
 10 40  1  0  0  0
 11 12  1  0  0  0
 11 14  2  0  0  0
 11 15  1  0  0  0
 12 17  1  0  0  0
 12 28  2  0  0  0
 13 28  1  0  0  0
 13 29  2  0  0  0
 13 56  1  0  0  0
 14 29  1  0  0  0
 14 31  1  0  0  0
 15 30  2  0  0  0
 15 41  1  0  0  0
 16 17  2  0  0  0
 16 18  1  0  0  0
 16 30  1  0  0  0
 17 26  1  0  0  0
 18 23  2  0  0  0
 19 20  1  0  0  0
 19 31  1  0  0  0
 19 42  1  0  0  0
 19 43  1  0  0  0
 20 22  1  0  0  0
 20 32  1  0  0  0
 20 44  1  0  0  0
 21 32  1  0  0  0
 21 45  1  0  0  0
 22 46  1  0  0  0
 22 47  1  0  0  0
 23 48  1  0  0  0
 24 25  3  0  0  0
 25 49  1  0  0  0
 32 50  1  0  0  0
 33 51  1  0  0  0
 52 55  1  0  0  0
 52 56  1  0  0  0
 52 60  1  0  0  0
 52 61  1  0  0  0
 53 58  1  0  0  0
 53 59  2  0  0  0
 54 57  1  0  0  0
 54 59  1  0  0  0
 54 62  1  0  0  0
 55 58  1  0  0  0
 55 63  1  0  0  0
 55 64  1  0  0  0
 56 65  1  0  0  0
 56 66  1  0  0  0
 57 58  2  0  0  0
 57 67  1  0  0  0
 59 68  1  0  0  0
M  CHG  1  52   1
M  END
> <s_m_entry_id>
468

> <s_m_entry_name>
000000310.1

> <s_m_Source_Path>
/Users/zaksoul/Documents/3r_UNI/2nd_SEMESTER/BSC/FRAG_RECON/RESULTS/2

> <s_m_Source_File>
000000310.mol2

> <i_m_Source_File_Index>
1

$$$$
No_0_328
                    3D
 Schrodinger Suite 2022-4.
 70 76  0  0  1  0            999 V2000
   -5.0990    3.9540  -21.9520 C   0  0  0  0  0  0
   -5.3740    4.1280  -23.2880 C   0  0  0  0  0  0
   -3.8680    3.6540  -21.6210 C   0  0  0  0  0  0
   -3.0010    3.6990  -23.8000 C   0  0  0  0  0  0
   -2.8320    3.4760  -22.3770 C   0  0  0  0  0  0
   -4.3420    4.0100  -24.3100 C   0  0  0  0  0  0
   -3.6160    3.9560  -26.5170 C   0  0  0  0  0  0
    6.1410    2.9020  -21.3570 C   0  0  0  0  0  0
    5.9750    3.0010  -23.9070 C   0  0  0  0  0  0
   -4.6050    4.1220  -25.6440 C   0  0  0  0  0  0
    2.2180    3.7120  -23.8890 C   0  0  0  0  0  0
    1.4490    4.8610  -23.6020 C   0  0  0  0  0  0
    3.3060    5.9900  -22.9680 C   0  0  0  0  0  0
    3.6290    3.8480  -23.5970 C   0  0  0  0  0  0
    1.6150    2.6070  -24.5210 C   0  0  0  0  0  0
   -0.4740    3.5140  -24.4010 C   0  0  0  0  0  0
    0.1130    4.7220  -23.8330 C   0  0  0  0  0  0
   -1.9300    3.5770  -24.7370 C   0  0  0  0  0  0
    4.1300    1.3320  -23.2620 C   0  0  0  0  0  0
    5.0620    0.9590  -22.1200 C   0  0  2  0  0  0
    6.7130    2.4180  -22.7070 C   0  0  2  0  0  0
    5.1020    1.9820  -20.9730 C   0  0  0  0  0  0
   -2.2660    3.7230  -26.1640 C   0  0  0  0  0  0
   -1.4990    3.0160  -21.7870 C   0  0  0  0  0  0
   -0.4780    2.6340  -21.2870 C   0  0  0  0  0  0
   -0.6780    5.8090  -23.4990 F   0  0  0  0  0  0
   -3.6500    3.4290  -20.2370 F   0  0  0  0  0  0
    1.9830    6.0080  -23.0990 N   0  0  0  0  0  0
    4.1570    4.9860  -23.1800 N   0  0  0  0  0  0
    0.3020    2.5690  -24.8080 N   0  0  0  0  0  0
    4.4980    2.7580  -23.7640 N   0  0  0  0  0  0
    6.4640    0.9550  -22.6210 N   0  0  1  0  0  0
   -3.8060    3.9520  -27.9040 O   0  0  0  0  0  0
   -5.8880    4.0664  -21.2172 H   0  0  0  0  0  0
   -6.3833    4.3610  -23.6074 H   0  0  0  0  0  0
    5.7111    3.9070  -21.4801 H   0  0  0  0  0  0
    6.9363    2.8929  -20.5971 H   0  0  0  0  0  0
    6.3373    2.5216  -24.8284 H   0  0  0  0  0  0
    6.1648    4.0830  -23.9635 H   0  0  0  0  0  0
   -5.6108    4.3448  -25.9813 H   0  0  0  0  0  0
    2.2142    1.7459  -24.7940 H   0  0  0  0  0  0
    3.0902    1.3280  -22.9030 H   0  0  0  0  0  0
    4.2501    0.6115  -24.0844 H   0  0  0  0  0  0
    4.7986   -0.0350  -21.7295 H   0  0  0  0  0  0
    7.7910    2.6269  -22.7716 H   0  0  0  0  0  0
    4.1415    2.5163  -20.9276 H   0  0  0  0  0  0
    5.3925    1.4735  -20.0418 H   0  0  0  0  0  0
   -1.5081    3.6547  -26.9360 H   0  0  0  0  0  0
    0.4206    2.2972  -20.8462 H   0  0  0  0  0  0
    7.0983    0.4426  -21.9129 H   0  0  0  0  0  0
   -2.9716    3.8185  -28.3380 H   0  0  0  0  0  0
    3.9460    7.4390  -21.0310 N   0  0  1  0  0  0
    8.1420    9.3170  -20.9260 N   0  0  0  0  0  0
    8.1740    8.3260  -20.0120 N   0  0  0  0  0  0
    4.5090    8.7280  -20.4870 C   0  0  0  0  0  0
    3.9290    7.3130  -22.5330 C   0  0  0  0  0  0
    6.0290    8.7930  -20.5140 C   0  0  0  0  0  0
    6.8680    8.0420  -19.7900 C   0  0  0  0  0  0
    6.9080    9.6130  -21.2420 C   0  0  0  0  0  0
    6.5830   10.6980  -22.2480 C   0  0  0  0  0  0
    4.5309    6.6081  -20.6651 H   0  0  0  0  0  0
    9.0772    7.9759  -19.6619 H   0  0  0  0  0  0
    4.1561    8.8739  -19.4554 H   0  0  0  0  0  0
    4.0972    9.5747  -21.0558 H   0  0  0  0  0  0
    4.9575    7.3770  -22.9178 H   0  0  0  0  0  0
    3.3559    8.1471  -22.9641 H   0  0  0  0  0  0
    6.5951    7.2694  -19.0803 H   0  0  0  0  0  0
    5.4919   10.7789  -22.3619 H   0  0  0  0  0  0
    6.9860   11.6591  -21.8960 H   0  0  0  0  0  0
    7.0340   10.4460  -23.2191 H   0  0  0  0  0  0
  1  2  2  0  0  0
  1  3  1  0  0  0
  1 34  1  0  0  0
  2  6  1  0  0  0
  2 35  1  0  0  0
  3  5  2  0  0  0
  3 27  1  0  0  0
  4  5  1  0  0  0
  4  6  2  0  0  0
  4 18  1  0  0  0
  5 24  1  0  0  0
  6 10  1  0  0  0
  7 10  2  0  0  0
  7 23  1  0  0  0
  7 33  1  0  0  0
  8 21  1  0  0  0
  8 22  1  0  0  0
  8 36  1  0  0  0
  8 37  1  0  0  0
  9 21  1  0  0  0
  9 31  1  0  0  0
  9 38  1  0  0  0
  9 39  1  0  0  0
 10 40  1  0  0  0
 11 12  1  0  0  0
 11 14  2  0  0  0
 11 15  1  0  0  0
 12 17  1  0  0  0
 12 28  2  0  0  0
 13 28  1  0  0  0
 13 29  2  0  0  0
 13 56  1  0  0  0
 14 29  1  0  0  0
 14 31  1  0  0  0
 15 30  2  0  0  0
 15 41  1  0  0  0
 16 17  2  0  0  0
 16 18  1  0  0  0
 16 30  1  0  0  0
 17 26  1  0  0  0
 18 23  2  0  0  0
 19 20  1  0  0  0
 19 31  1  0  0  0
 19 42  1  0  0  0
 19 43  1  0  0  0
 20 22  1  0  0  0
 20 32  1  0  0  0
 20 44  1  0  0  0
 21 32  1  0  0  0
 21 45  1  0  0  0
 22 46  1  0  0  0
 22 47  1  0  0  0
 23 48  1  0  0  0
 24 25  3  0  0  0
 25 49  1  0  0  0
 32 50  1  0  0  0
 33 51  1  0  0  0
 52 55  1  0  0  0
 52 56  1  0  0  0
 52 61  1  0  0  0
 53 54  1  0  0  0
 53 59  2  0  0  0
 54 58  1  0  0  0
 54 62  1  0  0  0
 55 57  1  0  0  0
 55 63  1  0  0  0
 55 64  1  0  0  0
 56 65  1  0  0  0
 56 66  1  0  0  0
 57 58  2  0  0  0
 57 59  1  0  0  0
 58 67  1  0  0  0
 59 60  1  0  0  0
 60 68  1  0  0  0
 60 69  1  0  0  0
 60 70  1  0  0  0
M  END
> <s_m_entry_id>
469

> <s_m_entry_name>
000000311.1

> <s_m_Source_Path>
/Users/zaksoul/Documents/3r_UNI/2nd_SEMESTER/BSC/FRAG_RECON/RESULTS/2

> <s_m_Source_File>
000000311.mol2

> <i_m_Source_File_Index>
1

$$$$
No_0_329
                    3D
 Schrodinger Suite 2022-4.
 70 76  0  0  1  0            999 V2000
   -5.3580    3.6300  -22.0020 C   0  0  0  0  0  0
   -5.5990    3.8030  -23.3440 C   0  0  0  0  0  0
   -4.1300    3.3590  -21.6370 C   0  0  0  0  0  0
   -3.2020    3.4350  -23.7890 C   0  0  0  0  0  0
   -3.0690    3.2090  -22.3630 C   0  0  0  0  0  0
   -4.5360    3.7150  -24.3360 C   0  0  0  0  0  0
   -3.7460    3.6880  -26.5220 C   0  0  0  0  0  0
    5.8820    2.8520  -21.0880 C   0  0  0  0  0  0
    5.7870    2.9570  -23.6410 C   0  0  0  0  0  0
   -4.7630    3.8260  -25.6770 C   0  0  0  0  0  0
    2.0150    3.5760  -23.7290 C   0  0  0  0  0  0
    1.2100    4.7040  -23.4600 C   0  0  0  0  0  0
    3.0200    5.8760  -22.7690 C   0  0  0  0  0  0
    3.4130    3.7450  -23.3960 C   0  0  0  0  0  0
    1.4580    2.4590  -24.3810 C   0  0  0  0  0  0
   -0.6550    3.3140  -24.3180 C   0  0  0  0  0  0
   -0.1150    4.5340  -23.7290 C   0  0  0  0  0  0
   -2.1020    3.3420  -24.6960 C   0  0  0  0  0  0
    3.9660    1.2410  -23.0560 C   0  0  0  0  0  0
    4.8740    0.8860  -21.8890 C   0  0  2  0  0  0
    6.5050    2.3870  -22.4230 C   0  0  2  0  0  0
    4.8570    1.9050  -20.7380 C   0  0  0  0  0  0
   -2.4020    3.4860  -26.1310 C   0  0  0  0  0  0
   -1.7430    2.7800  -21.7360 C   0  0  0  0  0  0
   -0.7270    2.4210  -21.2080 C   0  0  0  0  0  0
   -0.9420    5.6000  -23.4140 F   0  0  0  0  0  0
   -3.9470    3.1340  -20.2480 F   0  0  0  0  0  0
    1.7010    5.8620  -22.9380 N   0  0  0  0  0  0
    3.9010    4.8940  -22.9600 N   0  0  0  0  0  0
    0.1550    2.3900  -24.7070 N   0  0  0  0  0  0
    4.3140    2.6770  -23.5420 N   0  0  0  0  0  0
    6.2890    0.9190  -22.3490 N   0  0  1  0  0  0
   -3.8960    3.6840  -27.9140 O   0  0  0  0  0  0
   -6.1700    3.7193  -21.2894 H   0  0  0  0  0  0
   -6.6043    4.0119  -23.6915 H   0  0  0  0  0  0
    5.4316    3.8468  -21.2203 H   0  0  0  0  0  0
    6.6558    2.8591  -20.3062 H   0  0  0  0  0  0
    6.1876    2.4908  -24.5532 H   0  0  0  0  0  0
    5.9515    4.0436  -23.6884 H   0  0  0  0  0  0
   -5.7641    4.0246  -26.0421 H   0  0  0  0  0  0
    2.0854    1.6138  -24.6400 H   0  0  0  0  0  0
    2.9171    1.2097  -22.7262 H   0  0  0  0  0  0
    4.1285    0.5276  -23.8774 H   0  0  0  0  0  0
    4.6248   -0.1157  -21.5087 H   0  0  0  0  0  0
    7.5788    2.6232  -22.4563 H   0  0  0  0  0  0
    3.8823    2.4145  -20.7178 H   0  0  0  0  0  0
    5.1326    1.4003  -19.8003 H   0  0  0  0  0  0
   -1.6208    3.4399  -26.8811 H   0  0  0  0  0  0
    0.1670    2.1040  -20.7440 H   0  0  0  0  0  0
    6.9157    0.4196  -21.6250 H   0  0  0  0  0  0
   -3.0463    3.5742  -28.3245 H   0  0  0  0  0  0
    3.9080    7.1950  -20.8370 N   0  0  1  0  0  0
    7.8530    9.5070  -21.3230 N   0  0  0  0  0  0
    8.1580    8.4420  -20.5530 N   0  0  0  0  0  0
    4.4510    8.4800  -20.2650 C   0  0  0  0  0  0
    3.5970    7.2120  -22.3120 C   0  0  0  0  0  0
    5.9230    8.7150  -20.5770 C   0  0  0  0  0  0
    6.9550    7.9960  -20.1190 C   0  0  0  0  0  0
    6.5580    9.6930  -21.3600 C   0  0  0  0  0  0
    5.9400   10.8270  -22.1520 C   0  0  0  0  0  0
    4.6260    6.4020  -20.6890 H   0  0  0  0  0  0
    9.1414    8.1629  -20.4269 H   0  0  0  0  0  0
    4.3040    8.4860  -19.1749 H   0  0  0  0  0  0
    3.8590    9.3270  -20.6420 H   0  0  0  0  0  0
    4.5165    7.4259  -22.8767 H   0  0  0  0  0  0
    2.8760    8.0150  -22.5250 H   0  0  0  0  0  0
    6.9010    7.1331  -19.4651 H   0  0  0  0  0  0
    4.8457   10.7970  -22.0440 H   0  0  0  0  0  0
    6.3191   11.7883  -21.7749 H   0  0  0  0  0  0
    6.2060   10.7200  -23.2140 H   0  0  0  0  0  0
  1  2  2  0  0  0
  1  3  1  0  0  0
  1 34  1  0  0  0
  2  6  1  0  0  0
  2 35  1  0  0  0
  3  5  2  0  0  0
  3 27  1  0  0  0
  4  5  1  0  0  0
  4  6  2  0  0  0
  4 18  1  0  0  0
  5 24  1  0  0  0
  6 10  1  0  0  0
  7 10  2  0  0  0
  7 23  1  0  0  0
  7 33  1  0  0  0
  8 21  1  0  0  0
  8 22  1  0  0  0
  8 36  1  0  0  0
  8 37  1  0  0  0
  9 21  1  0  0  0
  9 31  1  0  0  0
  9 38  1  0  0  0
  9 39  1  0  0  0
 10 40  1  0  0  0
 11 12  1  0  0  0
 11 14  2  0  0  0
 11 15  1  0  0  0
 12 17  1  0  0  0
 12 28  2  0  0  0
 13 28  1  0  0  0
 13 29  2  0  0  0
 13 56  1  0  0  0
 14 29  1  0  0  0
 14 31  1  0  0  0
 15 30  2  0  0  0
 15 41  1  0  0  0
 16 17  2  0  0  0
 16 18  1  0  0  0
 16 30  1  0  0  0
 17 26  1  0  0  0
 18 23  2  0  0  0
 19 20  1  0  0  0
 19 31  1  0  0  0
 19 42  1  0  0  0
 19 43  1  0  0  0
 20 22  1  0  0  0
 20 32  1  0  0  0
 20 44  1  0  0  0
 21 32  1  0  0  0
 21 45  1  0  0  0
 22 46  1  0  0  0
 22 47  1  0  0  0
 23 48  1  0  0  0
 24 25  3  0  0  0
 25 49  1  0  0  0
 32 50  1  0  0  0
 33 51  1  0  0  0
 52 55  1  0  0  0
 52 56  1  0  0  0
 52 61  1  0  0  0
 53 54  1  0  0  0
 53 59  2  0  0  0
 54 58  1  0  0  0
 54 62  1  0  0  0
 55 57  1  0  0  0
 55 63  1  0  0  0
 55 64  1  0  0  0
 56 65  1  0  0  0
 56 66  1  0  0  0
 57 58  2  0  0  0
 57 59  1  0  0  0
 58 67  1  0  0  0
 59 60  1  0  0  0
 60 68  1  0  0  0
 60 69  1  0  0  0
 60 70  1  0  0  0
M  END
> <s_m_entry_id>
470

> <s_m_entry_name>
000000312.1

> <s_m_Source_Path>
/Users/zaksoul/Documents/3r_UNI/2nd_SEMESTER/BSC/FRAG_RECON/RESULTS/2

> <s_m_Source_File>
000000312.mol2

> <i_m_Source_File_Index>
1

$$$$
No_0_330
                    3D
 Schrodinger Suite 2022-4.
 70 76  0  0  1  0            999 V2000
   -5.2490    3.8200  -21.6600 C   0  0  0  0  0  0
   -5.5490    4.0080  -22.9890 C   0  0  0  0  0  0
   -4.0110    3.5270  -21.3550 C   0  0  0  0  0  0
   -3.1810    3.6070  -23.5470 C   0  0  0  0  0  0
   -2.9860    3.3680  -22.1300 C   0  0  0  0  0  0
   -4.5340    3.9120  -24.0290 C   0  0  0  0  0  0
   -3.8450    3.8930  -26.2490 C   0  0  0  0  0  0
    6.0070    2.8640  -21.2710 C   0  0  0  0  0  0
    5.7970    2.9930  -23.8160 C   0  0  0  0  0  0
   -4.8210    4.0390  -25.3580 C   0  0  0  0  0  0
    2.0340    3.6700  -23.7250 C   0  0  0  0  0  0
    1.2610    4.8070  -23.4100 C   0  0  0  0  0  0
    3.1180    5.9460  -22.7940 C   0  0  0  0  0  0
    3.4490    3.8150  -23.4550 C   0  0  0  0  0  0
    1.4310    2.5670  -24.3600 C   0  0  0  0  0  0
   -0.6630    3.4530  -24.1930 C   0  0  0  0  0  0
   -0.0780    4.6590  -23.6200 C   0  0  0  0  0  0
   -2.1250    3.5060  -24.5040 C   0  0  0  0  0  0
    3.9780    1.3000  -23.1610 C   0  0  0  0  0  0
    4.9330    0.9200  -22.0400 C   0  0  2  0  0  0
    6.5610    2.4020  -22.6360 C   0  0  2  0  0  0
    4.9850    1.9300  -20.8810 C   0  0  0  0  0  0
   -2.4880    3.6670  -25.9230 C   0  0  0  0  0  0
   -1.6390    2.9130  -21.5680 C   0  0  0  0  0  0
   -0.6060    2.5340  -21.0910 C   0  0  0  0  0  0
   -0.8730    5.7350  -23.2580 F   0  0  0  0  0  0
   -3.7670    3.2870  -19.9770 F   0  0  0  0  0  0
    1.7930    5.9530  -22.9020 N   0  0  0  0  0  0
    3.9740    4.9520  -23.0330 N   0  0  0  0  0  0
    0.1140    2.5200  -24.6260 N   0  0  0  0  0  0
    4.3260    2.7350  -23.6510 N   0  0  0  0  0  0
    6.3260    0.9360  -22.5650 N   0  0  1  0  0  0
   -4.0590    3.9040  -27.6330 O   0  0  0  0  0  0
   -6.0265    3.9153  -20.9106 H   0  0  0  0  0  0
   -6.5659    4.2349  -23.2881 H   0  0  0  0  0  0
    5.5667    3.8668  -21.3740 H   0  0  0  0  0  0
    6.8159    2.8529  -20.5256 H   0  0  0  0  0  0
    6.1482    2.5288  -24.7494 H   0  0  0  0  0  0
    5.9757    4.0774  -23.8614 H   0  0  0  0  0  0
   -5.8346    4.2558  -25.6751 H   0  0  0  0  0  0
    2.0325    1.7145  -24.6542 H   0  0  0  0  0  0
    2.9446    1.2808  -22.7846 H   0  0  0  0  0  0
    4.0910    0.5908  -23.9943 H   0  0  0  0  0  0
    4.6857   -0.0813  -21.6575 H   0  0  0  0  0  0
    7.6357    2.6220  -22.7167 H   0  0  0  0  0  0
    4.0202    2.4538  -20.8124 H   0  0  0  0  0  0
    5.2949    1.4121  -19.9613 H   0  0  0  0  0  0
   -1.7422    3.6158  -26.7080 H   0  0  0  0  0  0
    0.3030    2.2000  -20.6700 H   0  0  0  0  0  0
    6.9781    0.4218  -21.8745 H   0  0  0  0  0  0
   -3.2310    3.7843  -28.0831 H   0  0  0  0  0  0
    4.3760    7.1450  -20.9930 N   0  0  1  0  0  0
    8.0210    9.7080  -22.1290 N   0  0  0  0  0  0
    8.5310    8.6010  -21.5520 N   0  0  0  0  0  0
    4.9890    8.4060  -20.4390 C   0  0  0  0  0  0
    3.7370    7.2680  -22.3530 C   0  0  0  0  0  0
    6.3410    8.7490  -21.0480 C   0  0  0  0  0  0
    7.4760    8.0520  -20.9030 C   0  0  0  0  0  0
    6.7460    9.8240  -21.8570 C   0  0  0  0  0  0
    5.9230   10.9840  -22.3800 C   0  0  0  0  0  0
    5.1368    6.3842  -21.0860 H   0  0  0  0  0  0
    9.5263    8.3669  -21.6760 H   0  0  0  0  0  0
    5.0940    8.3110  -19.3481 H   0  0  0  0  0  0
    4.2957    9.2464  -20.5911 H   0  0  0  0  0  0
    4.4941    7.5810  -23.0871 H   0  0  0  0  0  0
    2.9585    8.0445  -22.3220 H   0  0  0  0  0  0
    7.6040    7.1358  -20.3379 H   0  0  0  0  0  0
    4.8844   10.8830  -22.0321 H   0  0  0  0  0  0
    6.3441   11.9292  -22.0069 H   0  0  0  0  0  0
    5.9430   10.9820  -23.4798 H   0  0  0  0  0  0
  1  2  2  0  0  0
  1  3  1  0  0  0
  1 34  1  0  0  0
  2  6  1  0  0  0
  2 35  1  0  0  0
  3  5  2  0  0  0
  3 27  1  0  0  0
  4  5  1  0  0  0
  4  6  2  0  0  0
  4 18  1  0  0  0
  5 24  1  0  0  0
  6 10  1  0  0  0
  7 10  2  0  0  0
  7 23  1  0  0  0
  7 33  1  0  0  0
  8 21  1  0  0  0
  8 22  1  0  0  0
  8 36  1  0  0  0
  8 37  1  0  0  0
  9 21  1  0  0  0
  9 31  1  0  0  0
  9 38  1  0  0  0
  9 39  1  0  0  0
 10 40  1  0  0  0
 11 12  1  0  0  0
 11 14  2  0  0  0
 11 15  1  0  0  0
 12 17  1  0  0  0
 12 28  2  0  0  0
 13 28  1  0  0  0
 13 29  2  0  0  0
 13 56  1  0  0  0
 14 29  1  0  0  0
 14 31  1  0  0  0
 15 30  2  0  0  0
 15 41  1  0  0  0
 16 17  2  0  0  0
 16 18  1  0  0  0
 16 30  1  0  0  0
 17 26  1  0  0  0
 18 23  2  0  0  0
 19 20  1  0  0  0
 19 31  1  0  0  0
 19 42  1  0  0  0
 19 43  1  0  0  0
 20 22  1  0  0  0
 20 32  1  0  0  0
 20 44  1  0  0  0
 21 32  1  0  0  0
 21 45  1  0  0  0
 22 46  1  0  0  0
 22 47  1  0  0  0
 23 48  1  0  0  0
 24 25  3  0  0  0
 25 49  1  0  0  0
 32 50  1  0  0  0
 33 51  1  0  0  0
 52 55  1  0  0  0
 52 56  1  0  0  0
 52 61  1  0  0  0
 53 54  1  0  0  0
 53 59  2  0  0  0
 54 58  1  0  0  0
 54 62  1  0  0  0
 55 57  1  0  0  0
 55 63  1  0  0  0
 55 64  1  0  0  0
 56 65  1  0  0  0
 56 66  1  0  0  0
 57 58  2  0  0  0
 57 59  1  0  0  0
 58 67  1  0  0  0
 59 60  1  0  0  0
 60 68  1  0  0  0
 60 69  1  0  0  0
 60 70  1  0  0  0
M  END
> <s_m_entry_id>
471

> <s_m_entry_name>
000000313.1

> <s_m_Source_Path>
/Users/zaksoul/Documents/3r_UNI/2nd_SEMESTER/BSC/FRAG_RECON/RESULTS/2

> <s_m_Source_File>
000000313.mol2

> <i_m_Source_File_Index>
1

$$$$
No_0_331
                    3D
 Schrodinger Suite 2022-4.
 70 76  0  0  1  0            999 V2000
   -5.4130    3.6380  -21.9960 C   0  0  0  0  0  0
   -5.6450    3.8070  -23.3400 C   0  0  0  0  0  0
   -4.1870    3.3710  -21.6220 C   0  0  0  0  0  0
   -3.2440    3.4440  -23.7680 C   0  0  0  0  0  0
   -3.1200    3.2230  -22.3400 C   0  0  0  0  0  0
   -4.5750    3.7190  -24.3250 C   0  0  0  0  0  0
   -3.7690    3.6890  -26.5050 C   0  0  0  0  0  0
    5.8230    2.8940  -21.0020 C   0  0  0  0  0  0
    5.7450    2.9920  -23.5560 C   0  0  0  0  0  0
   -4.7930    3.8260  -25.6680 C   0  0  0  0  0  0
    1.9720    3.6010  -23.6710 C   0  0  0  0  0  0
    1.1620    4.7270  -23.4110 C   0  0  0  0  0  0
    2.9640    5.9060  -22.7100 C   0  0  0  0  0  0
    3.3670    3.7750  -23.3290 C   0  0  0  0  0  0
    1.4220    2.4810  -24.3250 C   0  0  0  0  0  0
   -0.6930    3.3300  -24.2780 C   0  0  0  0  0  0
   -0.1610    4.5520  -23.6890 C   0  0  0  0  0  0
   -2.1370    3.3530  -24.6670 C   0  0  0  0  0  0
    3.9250    1.2730  -22.9790 C   0  0  0  0  0  0
    4.8260    0.9230  -21.8050 C   0  0  2  0  0  0
    6.4560    2.4280  -22.3310 C   0  0  2  0  0  0
    4.7970    1.9450  -20.6560 C   0  0  0  0  0  0
   -2.4270    3.4920  -26.1040 C   0  0  0  0  0  0
   -1.7970    2.7990  -21.7030 C   0  0  0  0  0  0
   -0.7840    2.4440  -21.1670 C   0  0  0  0  0  0
   -0.9930    5.6170  -23.3830 F   0  0  0  0  0  0
   -4.0130    3.1500  -20.2310 F   0  0  0  0  0  0
    1.6460    5.8880  -22.8890 N   0  0  0  0  0  0
    3.8490    4.9250  -22.8920 N   0  0  0  0  0  0
    0.1220    2.4070  -24.6590 N   0  0  0  0  0  0
    4.2720    2.7090  -23.4660 N   0  0  0  0  0  0
    6.2440    0.9590  -22.2550 N   0  0  1  0  0  0
   -3.9100    3.6820  -27.8980 O   0  0  0  0  0  0
   -6.2301    3.7273  -21.2893 H   0  0  0  0  0  0
   -6.6485    4.0117  -23.6952 H   0  0  0  0  0  0
    5.3708    3.8873  -21.1393 H   0  0  0  0  0  0
    6.5911    2.9051  -20.2147 H   0  0  0  0  0  0
    6.1537    2.5248  -24.4641 H   0  0  0  0  0  0
    5.9063    4.0790  -23.6044 H   0  0  0  0  0  0
   -5.7921    4.0216  -26.0402 H   0  0  0  0  0  0
    2.0541    1.6372  -24.5768 H   0  0  0  0  0  0
    2.8737    1.2397  -22.6571 H   0  0  0  0  0  0
    4.0945    0.5577  -23.7973 H   0  0  0  0  0  0
    4.5769   -0.0783  -21.4238 H   0  0  0  0  0  0
    7.5293    2.6673  -22.3573 H   0  0  0  0  0  0
    3.8212    2.4526  -20.6439 H   0  0  0  0  0  0
    5.0675    1.4433  -19.7152 H   0  0  0  0  0  0
   -1.6409    3.4458  -26.8489 H   0  0  0  0  0  0
    0.1076    2.1308  -20.6957 H   0  0  0  0  0  0
    6.8673    0.4629  -21.5258 H   0  0  0  0  0  0
   -3.0575    3.5722  -28.3025 H   0  0  0  0  0  0
    4.2940    7.0990  -20.9580 N   0  0  1  0  0  0
    7.6620    9.9490  -22.2530 N   0  0  0  0  0  0
    8.2870    8.8520  -21.7800 N   0  0  0  0  0  0
    4.8730    8.3700  -20.3900 C   0  0  0  0  0  0
    3.5340    7.2440  -22.2530 C   0  0  0  0  0  0
    6.1440    8.8310  -21.0900 C   0  0  0  0  0  0
    7.3280    8.2050  -21.0760 C   0  0  0  0  0  0
    6.4110    9.9670  -21.8710 C   0  0  0  0  0  0
    5.4760   11.0930  -22.2630 C   0  0  0  0  0  0
    5.0901    6.3960  -21.1540 H   0  0  0  0  0  0
    9.2811    8.6920  -21.9970 H   0  0  0  0  0  0
    5.0760    8.2310  -19.3179 H   0  0  0  0  0  0
    4.1183    9.1687  -20.4410 H   0  0  0  0  0  0
    4.2056    7.6408  -23.0286 H   0  0  0  0  0  0
    2.7142    7.9648  -22.1170 H   0  0  0  0  0  0
    7.5600    7.2732  -20.5731 H   0  0  0  0  0  0
    4.4789   10.9080  -21.8369 H   0  0  0  0  0  0
    5.8670   12.0460  -21.8770 H   0  0  0  0  0  0
    5.4010   11.1450  -23.3592 H   0  0  0  0  0  0
  1  2  2  0  0  0
  1  3  1  0  0  0
  1 34  1  0  0  0
  2  6  1  0  0  0
  2 35  1  0  0  0
  3  5  2  0  0  0
  3 27  1  0  0  0
  4  5  1  0  0  0
  4  6  2  0  0  0
  4 18  1  0  0  0
  5 24  1  0  0  0
  6 10  1  0  0  0
  7 10  2  0  0  0
  7 23  1  0  0  0
  7 33  1  0  0  0
  8 21  1  0  0  0
  8 22  1  0  0  0
  8 36  1  0  0  0
  8 37  1  0  0  0
  9 21  1  0  0  0
  9 31  1  0  0  0
  9 38  1  0  0  0
  9 39  1  0  0  0
 10 40  1  0  0  0
 11 12  1  0  0  0
 11 14  2  0  0  0
 11 15  1  0  0  0
 12 17  1  0  0  0
 12 28  2  0  0  0
 13 28  1  0  0  0
 13 29  2  0  0  0
 13 56  1  0  0  0
 14 29  1  0  0  0
 14 31  1  0  0  0
 15 30  2  0  0  0
 15 41  1  0  0  0
 16 17  2  0  0  0
 16 18  1  0  0  0
 16 30  1  0  0  0
 17 26  1  0  0  0
 18 23  2  0  0  0
 19 20  1  0  0  0
 19 31  1  0  0  0
 19 42  1  0  0  0
 19 43  1  0  0  0
 20 22  1  0  0  0
 20 32  1  0  0  0
 20 44  1  0  0  0
 21 32  1  0  0  0
 21 45  1  0  0  0
 22 46  1  0  0  0
 22 47  1  0  0  0
 23 48  1  0  0  0
 24 25  3  0  0  0
 25 49  1  0  0  0
 32 50  1  0  0  0
 33 51  1  0  0  0
 52 55  1  0  0  0
 52 56  1  0  0  0
 52 61  1  0  0  0
 53 54  1  0  0  0
 53 59  2  0  0  0
 54 58  1  0  0  0
 54 62  1  0  0  0
 55 57  1  0  0  0
 55 63  1  0  0  0
 55 64  1  0  0  0
 56 65  1  0  0  0
 56 66  1  0  0  0
 57 58  2  0  0  0
 57 59  1  0  0  0
 58 67  1  0  0  0
 59 60  1  0  0  0
 60 68  1  0  0  0
 60 69  1  0  0  0
 60 70  1  0  0  0
M  END
> <s_m_entry_id>
472

> <s_m_entry_name>
000000314.1

> <s_m_Source_Path>
/Users/zaksoul/Documents/3r_UNI/2nd_SEMESTER/BSC/FRAG_RECON/RESULTS/2

> <s_m_Source_File>
000000314.mol2

> <i_m_Source_File_Index>
1

$$$$
No_0_332
                    3D
 Schrodinger Suite 2022-4.
 70 76  0  0  1  0            999 V2000
   -5.1000    3.6340  -22.0420 C   0  0  0  0  0  0
   -5.3410    3.8520  -23.3780 C   0  0  0  0  0  0
   -3.8660    3.3850  -21.6810 C   0  0  0  0  0  0
   -2.9320    3.5700  -23.8250 C   0  0  0  0  0  0
   -2.7980    3.2940  -22.4070 C   0  0  0  0  0  0
   -4.2720    3.8320  -24.3670 C   0  0  0  0  0  0
   -3.4720    3.9120  -26.5480 C   0  0  0  0  0  0
    6.1550    3.1460  -21.1020 C   0  0  0  0  0  0
    6.0660    3.3470  -23.6500 C   0  0  0  0  0  0
   -4.4970    3.9880  -25.7040 C   0  0  0  0  0  0
    2.2780    3.8590  -23.7320 C   0  0  0  0  0  0
    1.4400    4.9530  -23.4240 C   0  0  0  0  0  0
    3.2120    6.1490  -22.6800 C   0  0  0  0  0  0
    3.6690    4.0560  -23.3860 C   0  0  0  0  0  0
    1.7560    2.7530  -24.4300 C   0  0  0  0  0  0
   -0.3810    3.5440  -24.3450 C   0  0  0  0  0  0
    0.1210    4.7550  -23.7070 C   0  0  0  0  0  0
   -1.8270    3.5440  -24.7290 C   0  0  0  0  0  0
    4.2940    1.5580  -23.1390 C   0  0  0  0  0  0
    5.2070    1.1840  -21.9820 C   0  0  2  0  0  0
    6.7950    2.7520  -22.4500 C   0  0  2  0  0  0
    5.1560    2.1580  -20.7930 C   0  0  0  0  0  0
   -2.1240    3.7340  -26.1590 C   0  0  0  0  0  0
   -1.4620    2.8800  -21.7910 C   0  0  0  0  0  0
   -0.4390    2.5300  -21.2720 C   0  0  0  0  0  0
   -0.7380    5.7830  -23.3560 F   0  0  0  0  0  0
   -3.6820    3.1120  -20.3010 F   0  0  0  0  0  0
    1.8950    6.1040  -22.8570 N   0  0  0  0  0  0
    4.1220    5.2010  -22.9040 N   0  0  0  0  0  0
    0.4570    2.6580  -24.7640 N   0  0  0  0  0  0
    4.6010    3.0210  -23.5680 N   0  0  0  0  0  0
    6.6230    1.2760  -22.4340 N   0  0  1  0  0  0
   -3.6170    3.9570  -27.9400 O   0  0  0  0  0  0
   -5.9169    3.6731  -21.3305 H   0  0  0  0  0  0
   -6.3505    4.0449  -23.7225 H   0  0  0  0  0  0
    5.6767    4.1319  -21.1979 H   0  0  0  0  0  0
    6.9252    3.1460  -20.3166 H   0  0  0  0  0  0
    6.4840    2.9270  -24.5768 H   0  0  0  0  0  0
    6.1992    4.4389  -23.6540 H   0  0  0  0  0  0
   -5.5020    4.1717  -26.0664 H   0  0  0  0  0  0
    2.4086    1.9368  -24.7181 H   0  0  0  0  0  0
    3.2448    1.4833  -22.8172 H   0  0  0  0  0  0
    4.4796    0.8813  -23.9861 H   0  0  0  0  0  0
    4.9850    0.1617  -21.6419 H   0  0  0  0  0  0
    7.8616    3.0204  -22.4692 H   0  0  0  0  0  0
    4.1670    2.6384  -20.7587 H   0  0  0  0  0  0
    5.4415    1.6253  -19.8739 H   0  0  0  0  0  0
   -1.3387    3.7390  -26.9062 H   0  0  0  0  0  0
    0.4618    2.2221  -20.8151 H   0  0  0  0  0  0
    7.2606    0.7678  -21.7258 H   0  0  0  0  0  0
   -2.7632    3.8868  -28.3506 H   0  0  0  0  0  0
    5.2460    7.4380  -22.0020 N   0  0  1  0  0  0
    5.8700   11.6810  -23.6620 N   0  0  0  0  0  0
    6.7550   10.9070  -24.3230 N   0  0  0  0  0  0
    5.8840    8.6950  -21.4650 C   0  0  0  0  0  0
    3.7490    7.4830  -22.1700 C   0  0  0  0  0  0
    6.0280    9.8000  -22.5020 C   0  0  0  0  0  0
    6.8220    9.7760  -23.5800 C   0  0  0  0  0  0
    5.4260   11.0660  -22.5960 C   0  0  0  0  0  0
    4.4190   11.7110  -21.6660 C   0  0  0  0  0  0
    5.6531    7.2159  -22.9774 H   0  0  0  0  0  0
    7.1940   11.2510  -25.1890 H   0  0  0  0  0  0
    6.8731    8.4530  -21.0490 H   0  0  0  0  0  0
    5.2958    9.0681  -20.6137 H   0  0  0  0  0  0
    3.4830    8.2800  -22.8800 H   0  0  0  0  0  0
    3.2791    7.7209  -21.2043 H   0  0  0  0  0  0
    7.4755    8.9664  -23.8842 H   0  0  0  0  0  0
    4.1860   11.0219  -20.8409 H   0  0  0  0  0  0
    4.8399   12.6418  -21.2581 H   0  0  0  0  0  0
    3.4982   11.9390  -22.2229 H   0  0  0  0  0  0
  1  2  2  0  0  0
  1  3  1  0  0  0
  1 34  1  0  0  0
  2  6  1  0  0  0
  2 35  1  0  0  0
  3  5  2  0  0  0
  3 27  1  0  0  0
  4  5  1  0  0  0
  4  6  2  0  0  0
  4 18  1  0  0  0
  5 24  1  0  0  0
  6 10  1  0  0  0
  7 10  2  0  0  0
  7 23  1  0  0  0
  7 33  1  0  0  0
  8 21  1  0  0  0
  8 22  1  0  0  0
  8 36  1  0  0  0
  8 37  1  0  0  0
  9 21  1  0  0  0
  9 31  1  0  0  0
  9 38  1  0  0  0
  9 39  1  0  0  0
 10 40  1  0  0  0
 11 12  1  0  0  0
 11 14  2  0  0  0
 11 15  1  0  0  0
 12 17  1  0  0  0
 12 28  2  0  0  0
 13 28  1  0  0  0
 13 29  2  0  0  0
 13 56  1  0  0  0
 14 29  1  0  0  0
 14 31  1  0  0  0
 15 30  2  0  0  0
 15 41  1  0  0  0
 16 17  2  0  0  0
 16 18  1  0  0  0
 16 30  1  0  0  0
 17 26  1  0  0  0
 18 23  2  0  0  0
 19 20  1  0  0  0
 19 31  1  0  0  0
 19 42  1  0  0  0
 19 43  1  0  0  0
 20 22  1  0  0  0
 20 32  1  0  0  0
 20 44  1  0  0  0
 21 32  1  0  0  0
 21 45  1  0  0  0
 22 46  1  0  0  0
 22 47  1  0  0  0
 23 48  1  0  0  0
 24 25  3  0  0  0
 25 49  1  0  0  0
 32 50  1  0  0  0
 33 51  1  0  0  0
 52 55  1  0  0  0
 52 56  1  0  0  0
 52 61  1  0  0  0
 53 54  1  0  0  0
 53 59  2  0  0  0
 54 58  1  0  0  0
 54 62  1  0  0  0
 55 57  1  0  0  0
 55 63  1  0  0  0
 55 64  1  0  0  0
 56 65  1  0  0  0
 56 66  1  0  0  0
 57 58  2  0  0  0
 57 59  1  0  0  0
 58 67  1  0  0  0
 59 60  1  0  0  0
 60 68  1  0  0  0
 60 69  1  0  0  0
 60 70  1  0  0  0
M  END
> <s_m_entry_id>
473

> <s_m_entry_name>
000000315.1

> <s_m_Source_Path>
/Users/zaksoul/Documents/3r_UNI/2nd_SEMESTER/BSC/FRAG_RECON/RESULTS/2

> <s_m_Source_File>
000000315.mol2

> <i_m_Source_File_Index>
1

$$$$
No_0_333
                    3D
 Schrodinger Suite 2022-4.
 71 77  0  0  1  0            999 V2000
   -5.1810    3.6090  -21.8530 C   0  0  0  0  0  0
   -5.4520    3.8050  -23.1860 C   0  0  0  0  0  0
   -3.9420    3.3510  -21.5190 C   0  0  0  0  0  0
   -3.0590    3.4860  -23.6870 C   0  0  0  0  0  0
   -2.8930    3.2340  -22.2690 C   0  0  0  0  0  0
   -4.4090    3.7540  -24.2010 C   0  0  0  0  0  0
   -3.6630    3.7850  -26.4030 C   0  0  0  0  0  0
    6.0870    3.0010  -21.1820 C   0  0  0  0  0  0
    5.9380    3.1560  -23.7310 C   0  0  0  0  0  0
   -4.6650    3.8890  -25.5350 C   0  0  0  0  0  0
    2.1540    3.7130  -23.7290 C   0  0  0  0  0  0
    1.3370    4.8230  -23.4210 C   0  0  0  0  0  0
    3.1410    6.0110  -22.7430 C   0  0  0  0  0  0
    3.5570    3.8990  -23.4210 C   0  0  0  0  0  0
    1.6030    2.6010  -24.3930 C   0  0  0  0  0  0
   -0.5220    3.4190  -24.2700 C   0  0  0  0  0  0
    0.0100    4.6350  -23.6670 C   0  0  0  0  0  0
   -1.9770    3.4300  -24.6180 C   0  0  0  0  0  0
    4.1570    1.3990  -23.1440 C   0  0  0  0  0  0
    5.0950    1.0350  -22.0030 C   0  0  2  0  0  0
    6.6890    2.5740  -22.5390 C   0  0  2  0  0  0
    5.0840    2.0310  -20.8310 C   0  0  0  0  0  0
   -2.3080    3.5970  -26.0440 C   0  0  0  0  0  0
   -1.5470    2.8150  -21.6780 C   0  0  0  0  0  0
   -0.5150    2.4620  -21.1780 C   0  0  0  0  0  0
   -0.8280    5.6800  -23.3140 F   0  0  0  0  0  0
   -3.7260    3.1020  -20.1390 F   0  0  0  0  0  0
    1.8200    5.9780  -22.8860 N   0  0  0  0  0  0
    4.0350    5.0470  -22.9720 N   0  0  0  0  0  0
    0.2950    2.5160  -24.6930 N   0  0  0  0  0  0
    4.4710    2.8500  -23.6070 N   0  0  0  0  0  0
    6.5000    1.1010  -22.4910 N   0  0  1  0  0  0
   -3.8410    3.8060  -27.7920 O   0  0  0  0  0  0
   -5.9796    3.6712  -21.1226 H   0  0  0  0  0  0
   -6.4675    4.0037  -23.5091 H   0  0  0  0  0  0
    5.6179    3.9906  -21.2849 H   0  0  0  0  0  0
    6.8763    3.0060  -20.4159 H   0  0  0  0  0  0
    6.3275    2.7150  -24.6604 H   0  0  0  0  0  0
    6.0833    4.2460  -23.7593 H   0  0  0  0  0  0
   -5.6765    4.0776  -25.8762 H   0  0  0  0  0  0
    2.2385    1.7718  -24.6821 H   0  0  0  0  0  0
    3.1157    1.3435  -22.7939 H   0  0  0  0  0  0
    4.3144    0.7047  -23.9826 H   0  0  0  0  0  0
    4.8700    0.0218  -21.6387 H   0  0  0  0  0  0
    7.7578    2.8293  -22.5885 H   0  0  0  0  0  0
    4.1018    2.5236  -20.7805 H   0  0  0  0  0  0
    5.3877    1.5123  -19.9097 H   0  0  0  0  0  0
   -1.5411    3.5789  -26.8099 H   0  0  0  0  0  0
    0.3934    2.1519  -20.7378 H   0  0  0  0  0  0
    7.1492    0.5983  -21.7894 H   0  0  0  0  0  0
   -2.9984    3.7179  -28.2217 H   0  0  0  0  0  0
    4.0450    7.2990  -20.8040 N   0  0  1  0  0  0
    6.2020    9.9050  -21.4910 N   0  0  0  0  0  0
    8.3880    8.3580  -20.6110 N   0  0  0  0  0  0
    4.6180    8.5710  -20.2350 C   0  0  0  0  0  0
    3.7060    7.3460  -22.2710 C   0  0  0  0  0  0
    6.0520    8.8560  -20.6700 C   0  0  0  0  0  0
    7.1260    8.0930  -20.2410 C   0  0  0  0  0  0
    6.9510    6.8900  -19.3310 C   0  0  0  0  0  0
    8.5290    9.4100  -21.4270 C   0  0  0  0  0  0
    7.4650   10.1610  -21.8570 C   0  0  0  0  0  0
    4.7551    6.4949  -20.6790 H   0  0  0  0  0  0
    4.5720    8.5330  -19.1366 H   0  0  0  0  0  0
    3.9762    9.4187  -20.5169 H   0  0  0  0  0  0
    4.6115    7.5859  -22.8477 H   0  0  0  0  0  0
    2.9672    8.1408  -22.4510 H   0  0  0  0  0  0
    5.8851    6.7640  -19.0900 H   0  0  0  0  0  0
    7.3209    5.9871  -19.8389 H   0  0  0  0  0  0
    7.5190    7.0460  -18.4020 H   0  0  0  0  0  0
    9.5148    9.6979  -21.7739 H   0  0  0  0  0  0
    7.6790   10.9908  -22.5208 H   0  0  0  0  0  0
  1  2  2  0  0  0
  1  3  1  0  0  0
  1 34  1  0  0  0
  2  6  1  0  0  0
  2 35  1  0  0  0
  3  5  2  0  0  0
  3 27  1  0  0  0
  4  5  1  0  0  0
  4  6  2  0  0  0
  4 18  1  0  0  0
  5 24  1  0  0  0
  6 10  1  0  0  0
  7 10  2  0  0  0
  7 23  1  0  0  0
  7 33  1  0  0  0
  8 21  1  0  0  0
  8 22  1  0  0  0
  8 36  1  0  0  0
  8 37  1  0  0  0
  9 21  1  0  0  0
  9 31  1  0  0  0
  9 38  1  0  0  0
  9 39  1  0  0  0
 10 40  1  0  0  0
 11 12  1  0  0  0
 11 14  2  0  0  0
 11 15  1  0  0  0
 12 17  1  0  0  0
 12 28  2  0  0  0
 13 28  1  0  0  0
 13 29  2  0  0  0
 13 56  1  0  0  0
 14 29  1  0  0  0
 14 31  1  0  0  0
 15 30  2  0  0  0
 15 41  1  0  0  0
 16 17  2  0  0  0
 16 18  1  0  0  0
 16 30  1  0  0  0
 17 26  1  0  0  0
 18 23  2  0  0  0
 19 20  1  0  0  0
 19 31  1  0  0  0
 19 42  1  0  0  0
 19 43  1  0  0  0
 20 22  1  0  0  0
 20 32  1  0  0  0
 20 44  1  0  0  0
 21 32  1  0  0  0
 21 45  1  0  0  0
 22 46  1  0  0  0
 22 47  1  0  0  0
 23 48  1  0  0  0
 24 25  3  0  0  0
 25 49  1  0  0  0
 32 50  1  0  0  0
 33 51  1  0  0  0
 52 55  1  0  0  0
 52 56  1  0  0  0
 52 62  1  0  0  0
 53 57  2  0  0  0
 53 61  1  0  0  0
 54 58  2  0  0  0
 54 60  1  0  0  0
 55 57  1  0  0  0
 55 63  1  0  0  0
 55 64  1  0  0  0
 56 65  1  0  0  0
 56 66  1  0  0  0
 57 58  1  0  0  0
 58 59  1  0  0  0
 59 67  1  0  0  0
 59 68  1  0  0  0
 59 69  1  0  0  0
 60 61  2  0  0  0
 60 70  1  0  0  0
 61 71  1  0  0  0
M  END
> <s_m_entry_id>
474

> <s_m_entry_name>
000000316.1

> <s_m_Source_Path>
/Users/zaksoul/Documents/3r_UNI/2nd_SEMESTER/BSC/FRAG_RECON/RESULTS/2

> <s_m_Source_File>
000000316.mol2

> <i_m_Source_File_Index>
1

$$$$
No_0_334
                    3D
 Schrodinger Suite 2022-4.
 71 77  0  0  1  0            999 V2000
   -5.4390    3.3760  -21.9270 C   0  0  0  0  0  0
   -5.7050    3.5680  -23.2620 C   0  0  0  0  0  0
   -4.2010    3.1240  -21.5860 C   0  0  0  0  0  0
   -3.3080    3.2590  -23.7510 C   0  0  0  0  0  0
   -3.1480    3.0110  -22.3310 C   0  0  0  0  0  0
   -4.6560    3.5200  -24.2720 C   0  0  0  0  0  0
   -3.8990    3.5500  -26.4690 C   0  0  0  0  0  0
    5.8280    2.8230  -21.1990 C   0  0  0  0  0  0
    5.6910    2.9730  -23.7480 C   0  0  0  0  0  0
   -4.9060    3.6510  -25.6070 C   0  0  0  0  0  0
    1.9050    3.5120  -23.7670 C   0  0  0  0  0  0
    1.0810    4.6170  -23.4650 C   0  0  0  0  0  0
    2.8760    5.8150  -22.7800 C   0  0  0  0  0  0
    3.3040    3.7050  -23.4520 C   0  0  0  0  0  0
    1.3620    2.3950  -24.4320 C   0  0  0  0  0  0
   -0.7680    3.2030  -24.3200 C   0  0  0  0  0  0
   -0.2440    4.4230  -23.7170 C   0  0  0  0  0  0
   -2.2200    3.2070  -24.6760 C   0  0  0  0  0  0
    3.9160    1.2080  -23.1670 C   0  0  0  0  0  0
    4.8490    0.8500  -22.0210 C   0  0  2  0  0  0
    6.4390    2.3960  -22.5510 C   0  0  2  0  0  0
    4.8280    1.8480  -20.8510 C   0  0  0  0  0  0
   -2.5450    3.3700  -26.1030 C   0  0  0  0  0  0
   -1.8030    2.5990  -21.7320 C   0  0  0  0  0  0
   -0.7720    2.2520  -21.2270 C   0  0  0  0  0  0
   -1.0890    5.4650  -23.3700 F   0  0  0  0  0  0
   -3.9910    2.8780  -20.2050 F   0  0  0  0  0  0
    1.5550    5.7760  -22.9290 N   0  0  0  0  0  0
    3.7750    4.8550  -23.0020 N   0  0  0  0  0  0
    0.0560    2.3040  -24.7380 N   0  0  0  0  0  0
    4.2250    2.6600  -23.6310 N   0  0  0  0  0  0
    6.2560    0.9220  -22.5020 N   0  0  1  0  0  0
   -4.0710    3.5690  -27.8590 O   0  0  0  0  0  0
   -6.2421    3.4342  -21.2012 H   0  0  0  0  0  0
   -6.7200    3.7608  -23.5903 H   0  0  0  0  0  0
    5.3546    3.8101  -21.3060 H   0  0  0  0  0  0
    6.6133    2.8331  -20.4288 H   0  0  0  0  0  0
    6.0867    2.5319  -24.6747 H   0  0  0  0  0  0
    5.8314    4.0636  -23.7773 H   0  0  0  0  0  0
   -5.9167    3.8347  -25.9533 H   0  0  0  0  0  0
    2.0031    1.5681  -24.7153 H   0  0  0  0  0  0
    2.8732    1.1475  -22.8221 H   0  0  0  0  0  0
    4.0805    0.5128  -24.0035 H   0  0  0  0  0  0
    4.6269   -0.1635  -21.6556 H   0  0  0  0  0  0
    7.5068    2.6564  -22.5964 H   0  0  0  0  0  0
    3.8435    2.3367  -20.8066 H   0  0  0  0  0  0
    5.1286    1.3325  -19.9269 H   0  0  0  0  0  0
   -1.7751    3.3539  -26.8659 H   0  0  0  0  0  0
    0.1358    1.9471  -20.7821 H   0  0  0  0  0  0
    6.9047    0.4240  -21.7966 H   0  0  0  0  0  0
   -3.2259    3.4839  -28.2845 H   0  0  0  0  0  0
    4.1590    7.0030  -20.9970 N   0  0  1  0  0  0
    5.8190    9.8960  -21.8890 N   0  0  0  0  0  0
    8.2850    8.5330  -21.8100 N   0  0  0  0  0  0
    4.7560    8.2710  -20.4420 C   0  0  0  0  0  0
    3.4320    7.1540  -22.3070 C   0  0  0  0  0  0
    5.9870    8.7610  -21.1960 C   0  0  0  0  0  0
    7.1980    8.0890  -21.1610 C   0  0  0  0  0  0
    7.3800    6.7900  -20.3950 C   0  0  0  0  0  0
    8.1090    9.6690  -22.4960 C   0  0  0  0  0  0
    6.9070   10.3310  -22.5360 C   0  0  0  0  0  0
    4.9430    6.2790  -21.1630 H   0  0  0  0  0  0
    5.0130    8.1200  -19.3831 H   0  0  0  0  0  0
    3.9913    9.0617  -20.4380 H   0  0  0  0  0  0
    4.1223    7.5522  -23.0653 H   0  0  0  0  0  0
    2.6072    7.8718  -22.1870 H   0  0  0  0  0  0
    6.4346    6.5179  -19.9028 H   0  0  0  0  0  0
    7.6741    5.9908  -21.0912 H   0  0  0  0  0  0
    8.1644    6.9189  -19.6346 H   0  0  0  0  0  0
    8.9344   10.1022  -23.0493 H   0  0  0  0  0  0
    6.8610   11.2411  -23.1231 H   0  0  0  0  0  0
  1  2  2  0  0  0
  1  3  1  0  0  0
  1 34  1  0  0  0
  2  6  1  0  0  0
  2 35  1  0  0  0
  3  5  2  0  0  0
  3 27  1  0  0  0
  4  5  1  0  0  0
  4  6  2  0  0  0
  4 18  1  0  0  0
  5 24  1  0  0  0
  6 10  1  0  0  0
  7 10  2  0  0  0
  7 23  1  0  0  0
  7 33  1  0  0  0
  8 21  1  0  0  0
  8 22  1  0  0  0
  8 36  1  0  0  0
  8 37  1  0  0  0
  9 21  1  0  0  0
  9 31  1  0  0  0
  9 38  1  0  0  0
  9 39  1  0  0  0
 10 40  1  0  0  0
 11 12  1  0  0  0
 11 14  2  0  0  0
 11 15  1  0  0  0
 12 17  1  0  0  0
 12 28  2  0  0  0
 13 28  1  0  0  0
 13 29  2  0  0  0
 13 56  1  0  0  0
 14 29  1  0  0  0
 14 31  1  0  0  0
 15 30  2  0  0  0
 15 41  1  0  0  0
 16 17  2  0  0  0
 16 18  1  0  0  0
 16 30  1  0  0  0
 17 26  1  0  0  0
 18 23  2  0  0  0
 19 20  1  0  0  0
 19 31  1  0  0  0
 19 42  1  0  0  0
 19 43  1  0  0  0
 20 22  1  0  0  0
 20 32  1  0  0  0
 20 44  1  0  0  0
 21 32  1  0  0  0
 21 45  1  0  0  0
 22 46  1  0  0  0
 22 47  1  0  0  0
 23 48  1  0  0  0
 24 25  3  0  0  0
 25 49  1  0  0  0
 32 50  1  0  0  0
 33 51  1  0  0  0
 52 55  1  0  0  0
 52 56  1  0  0  0
 52 62  1  0  0  0
 53 57  2  0  0  0
 53 61  1  0  0  0
 54 58  2  0  0  0
 54 60  1  0  0  0
 55 57  1  0  0  0
 55 63  1  0  0  0
 55 64  1  0  0  0
 56 65  1  0  0  0
 56 66  1  0  0  0
 57 58  1  0  0  0
 58 59  1  0  0  0
 59 67  1  0  0  0
 59 68  1  0  0  0
 59 69  1  0  0  0
 60 61  2  0  0  0
 60 70  1  0  0  0
 61 71  1  0  0  0
M  END
> <s_m_entry_id>
475

> <s_m_entry_name>
000000317.1

> <s_m_Source_Path>
/Users/zaksoul/Documents/3r_UNI/2nd_SEMESTER/BSC/FRAG_RECON/RESULTS/2

> <s_m_Source_File>
000000317.mol2

> <i_m_Source_File_Index>
1

$$$$
No_0_335
                    3D
 Schrodinger Suite 2022-4.
 69 75  0  0  1  0            999 V2000
   -5.1050    3.5650  -21.8470 C   0  0  0  0  0  0
   -5.3880    3.7680  -23.1780 C   0  0  0  0  0  0
   -3.8660    3.2920  -21.5260 C   0  0  0  0  0  0
   -3.0040    3.4230  -23.7030 C   0  0  0  0  0  0
   -2.8270    3.1650  -22.2870 C   0  0  0  0  0  0
   -4.3540    3.7080  -24.2030 C   0  0  0  0  0  0
   -3.6300    3.7360  -26.4110 C   0  0  0  0  0  0
    6.1600    2.8250  -21.2890 C   0  0  0  0  0  0
    5.9880    2.9890  -23.8350 C   0  0  0  0  0  0
   -4.6230    3.8490  -25.5340 C   0  0  0  0  0  0
    2.2120    3.5900  -23.7950 C   0  0  0  0  0  0
    1.4110    4.7080  -23.4760 C   0  0  0  0  0  0
    3.2350    5.8730  -22.8120 C   0  0  0  0  0  0
    3.6190    3.7590  -23.5000 C   0  0  0  0  0  0
    1.6410    2.4860  -24.4570 C   0  0  0  0  0  0
   -0.4730    3.3280  -24.3100 C   0  0  0  0  0  0
    0.0790    4.5360  -23.7090 C   0  0  0  0  0  0
   -1.9310    3.3570  -24.6440 C   0  0  0  0  0  0
    4.1930    1.2500  -23.2350 C   0  0  0  0  0  0
    5.1380    0.8730  -22.1050 C   0  0  2  0  0  0
    6.7450    2.3950  -22.6520 C   0  0  2  0  0  0
    5.1500    1.8650  -20.9300 C   0  0  0  0  0  0
   -2.2740    3.5320  -26.0660 C   0  0  0  0  0  0
   -1.4800    2.7280  -21.7100 C   0  0  0  0  0  0
   -0.4470    2.3620  -21.2210 C   0  0  0  0  0  0
   -0.7430    5.5900  -23.3450 F   0  0  0  0  0  0
   -3.6400    3.0360  -20.1490 F   0  0  0  0  0  0
    1.9120    5.8560  -22.9420 N   0  0  0  0  0  0
    4.1150    4.8990  -23.0520 N   0  0  0  0  0  0
    0.3290    2.4170  -24.7440 N   0  0  0  0  0  0
    4.5200    2.6990  -23.6980 N   0  0  0  0  0  0
    6.5380    0.9240  -22.6060 N   0  0  1  0  0  0
   -3.8220    3.7640  -27.7980 O   0  0  0  0  0  0
   -5.8961    3.6343  -21.1091 H   0  0  0  0  0  0
   -6.4042    3.9799  -23.4903 H   0  0  0  0  0  0
    5.7017    3.8204  -21.3849 H   0  0  0  0  0  0
    6.9572    2.8179  -20.5311 H   0  0  0  0  0  0
    6.3633    2.5461  -24.7693 H   0  0  0  0  0  0
    6.1465    4.0772  -23.8612 H   0  0  0  0  0  0
   -5.6355    4.0509  -25.8645 H   0  0  0  0  0  0
    2.2641    1.6502  -24.7540 H   0  0  0  0  0  0
    3.1543    1.2056  -22.8756 H   0  0  0  0  0  0
    4.3342    0.5569  -24.0774 H   0  0  0  0  0  0
    4.9050   -0.1385  -21.7409 H   0  0  0  0  0  0
    7.8163    2.6373  -22.7116 H   0  0  0  0  0  0
    4.1744    2.3694  -20.8685 H   0  0  0  0  0  0
    5.4557    1.3403  -20.0128 H   0  0  0  0  0  0
   -1.5152    3.5079  -26.8398 H   0  0  0  0  0  0
    0.4621    2.0400  -20.7909 H   0  0  0  0  0  0
    7.1892    0.4118  -21.9131 H   0  0  0  0  0  0
   -2.9848    3.6670  -28.2364 H   0  0  0  0  0  0
    6.8660    8.9530  -21.9090 O   0  0  0  0  0  0
    4.1750    7.1530  -20.8780 N   0  0  1  0  0  0
    8.5030    8.0040  -20.9290 N   0  0  0  0  0  0
    4.9280    8.3510  -20.3640 C   0  0  0  0  0  0
    3.8200    7.2000  -22.3420 C   0  0  0  0  0  0
    6.3900    8.3280  -20.7770 C   0  0  0  0  0  0
    7.4450    6.9120  -18.8880 C   0  0  0  0  0  0
    7.4070    7.7330  -20.1600 C   0  0  0  0  0  0
    8.1130    8.7300  -21.9490 C   0  0  0  0  0  0
    4.7710    6.2640  -20.7340 H   0  0  0  0  0  0
    4.8570    8.3850  -19.2668 H   0  0  0  0  0  0
    4.4554    9.2693  -20.7427 H   0  0  0  0  0  0
    4.7202    7.4320  -22.9301 H   0  0  0  0  0  0
    3.0893    8.0036  -22.5159 H   0  0  0  0  0  0
    6.4322    6.8450  -18.4641 H   0  0  0  0  0  0
    7.8150    5.9010  -19.1140 H   0  0  0  0  0  0
    8.1147    7.3938  -18.1604 H   0  0  0  0  0  0
    8.8370    9.0590  -22.6930 H   0  0  0  0  0  0
  1  2  2  0  0  0
  1  3  1  0  0  0
  1 34  1  0  0  0
  2  6  1  0  0  0
  2 35  1  0  0  0
  3  5  2  0  0  0
  3 27  1  0  0  0
  4  5  1  0  0  0
  4  6  2  0  0  0
  4 18  1  0  0  0
  5 24  1  0  0  0
  6 10  1  0  0  0
  7 10  2  0  0  0
  7 23  1  0  0  0
  7 33  1  0  0  0
  8 21  1  0  0  0
  8 22  1  0  0  0
  8 36  1  0  0  0
  8 37  1  0  0  0
  9 21  1  0  0  0
  9 31  1  0  0  0
  9 38  1  0  0  0
  9 39  1  0  0  0
 10 40  1  0  0  0
 11 12  1  0  0  0
 11 14  2  0  0  0
 11 15  1  0  0  0
 12 17  1  0  0  0
 12 28  2  0  0  0
 13 28  1  0  0  0
 13 29  2  0  0  0
 13 56  1  0  0  0
 14 29  1  0  0  0
 14 31  1  0  0  0
 15 30  2  0  0  0
 15 41  1  0  0  0
 16 17  2  0  0  0
 16 18  1  0  0  0
 16 30  1  0  0  0
 17 26  1  0  0  0
 18 23  2  0  0  0
 19 20  1  0  0  0
 19 31  1  0  0  0
 19 42  1  0  0  0
 19 43  1  0  0  0
 20 22  1  0  0  0
 20 32  1  0  0  0
 20 44  1  0  0  0
 21 32  1  0  0  0
 21 45  1  0  0  0
 22 46  1  0  0  0
 22 47  1  0  0  0
 23 48  1  0  0  0
 24 25  3  0  0  0
 25 49  1  0  0  0
 32 50  1  0  0  0
 33 51  1  0  0  0
 52 57  1  0  0  0
 52 60  1  0  0  0
 53 55  1  0  0  0
 53 56  1  0  0  0
 53 61  1  0  0  0
 54 59  1  0  0  0
 54 60  2  0  0  0
 55 57  1  0  0  0
 55 62  1  0  0  0
 55 63  1  0  0  0
 56 64  1  0  0  0
 56 65  1  0  0  0
 57 59  2  0  0  0
 58 59  1  0  0  0
 58 66  1  0  0  0
 58 67  1  0  0  0
 58 68  1  0  0  0
 60 69  1  0  0  0
M  END
> <s_m_entry_id>
476

> <s_m_entry_name>
000000318.1

> <s_m_Source_Path>
/Users/zaksoul/Documents/3r_UNI/2nd_SEMESTER/BSC/FRAG_RECON/RESULTS/2

> <s_m_Source_File>
000000318.mol2

> <i_m_Source_File_Index>
1

$$$$
No_0_336
                    3D
 Schrodinger Suite 2022-4.
 69 75  0  0  1  0            999 V2000
   -5.1810    3.6090  -21.8530 C   0  0  0  0  0  0
   -5.4520    3.8050  -23.1860 C   0  0  0  0  0  0
   -3.9420    3.3510  -21.5190 C   0  0  0  0  0  0
   -3.0590    3.4860  -23.6870 C   0  0  0  0  0  0
   -2.8930    3.2340  -22.2690 C   0  0  0  0  0  0
   -4.4090    3.7540  -24.2010 C   0  0  0  0  0  0
   -3.6630    3.7850  -26.4030 C   0  0  0  0  0  0
    6.0870    3.0010  -21.1820 C   0  0  0  0  0  0
    5.9380    3.1560  -23.7310 C   0  0  0  0  0  0
   -4.6650    3.8890  -25.5350 C   0  0  0  0  0  0
    2.1540    3.7130  -23.7290 C   0  0  0  0  0  0
    1.3370    4.8230  -23.4210 C   0  0  0  0  0  0
    3.1410    6.0110  -22.7430 C   0  0  0  0  0  0
    3.5570    3.8990  -23.4210 C   0  0  0  0  0  0
    1.6030    2.6010  -24.3930 C   0  0  0  0  0  0
   -0.5220    3.4190  -24.2700 C   0  0  0  0  0  0
    0.0100    4.6350  -23.6670 C   0  0  0  0  0  0
   -1.9770    3.4300  -24.6180 C   0  0  0  0  0  0
    4.1570    1.3990  -23.1440 C   0  0  0  0  0  0
    5.0950    1.0350  -22.0030 C   0  0  2  0  0  0
    6.6890    2.5740  -22.5390 C   0  0  2  0  0  0
    5.0840    2.0310  -20.8310 C   0  0  0  0  0  0
   -2.3080    3.5970  -26.0440 C   0  0  0  0  0  0
   -1.5470    2.8150  -21.6780 C   0  0  0  0  0  0
   -0.5150    2.4620  -21.1780 C   0  0  0  0  0  0
   -0.8280    5.6800  -23.3140 F   0  0  0  0  0  0
   -3.7260    3.1020  -20.1390 F   0  0  0  0  0  0
    1.8200    5.9780  -22.8860 N   0  0  0  0  0  0
    4.0350    5.0470  -22.9720 N   0  0  0  0  0  0
    0.2950    2.5160  -24.6930 N   0  0  0  0  0  0
    4.4710    2.8500  -23.6070 N   0  0  0  0  0  0
    6.5000    1.1010  -22.4910 N   0  0  1  0  0  0
   -3.8410    3.8060  -27.7920 O   0  0  0  0  0  0
   -5.9796    3.6712  -21.1226 H   0  0  0  0  0  0
   -6.4675    4.0037  -23.5091 H   0  0  0  0  0  0
    5.6179    3.9906  -21.2849 H   0  0  0  0  0  0
    6.8763    3.0060  -20.4159 H   0  0  0  0  0  0
    6.3275    2.7150  -24.6604 H   0  0  0  0  0  0
    6.0833    4.2460  -23.7593 H   0  0  0  0  0  0
   -5.6765    4.0776  -25.8762 H   0  0  0  0  0  0
    2.2385    1.7718  -24.6821 H   0  0  0  0  0  0
    3.1157    1.3435  -22.7939 H   0  0  0  0  0  0
    4.3144    0.7047  -23.9826 H   0  0  0  0  0  0
    4.8700    0.0218  -21.6387 H   0  0  0  0  0  0
    7.7578    2.8293  -22.5885 H   0  0  0  0  0  0
    4.1018    2.5236  -20.7805 H   0  0  0  0  0  0
    5.3877    1.5123  -19.9097 H   0  0  0  0  0  0
   -1.5411    3.5789  -26.8099 H   0  0  0  0  0  0
    0.3934    2.1519  -20.7378 H   0  0  0  0  0  0
    7.1492    0.5983  -21.7894 H   0  0  0  0  0  0
   -2.9984    3.7179  -28.2217 H   0  0  0  0  0  0
    6.5840    9.4060  -22.4060 O   0  0  0  0  0  0
    4.4410    7.1970  -20.9640 N   0  0  1  0  0  0
    8.5030    8.5710  -22.0040 N   0  0  0  0  0  0
    5.1910    8.4210  -20.5090 C   0  0  0  0  0  0
    3.7060    7.3460  -22.2710 C   0  0  0  0  0  0
    6.4860    8.6170  -21.2790 C   0  0  0  0  0  0
    8.1310    7.1600  -19.9180 C   0  0  0  0  0  0
    7.6810    8.0930  -21.0230 C   0  0  0  0  0  0
    7.7890    9.3420  -22.7900 C   0  0  0  0  0  0
    5.1326    6.3774  -21.0919 H   0  0  0  0  0  0
    5.4130    8.3370  -19.4349 H   0  0  0  0  0  0
    4.5523    9.3076  -20.6350 H   0  0  0  0  0  0
    4.3917    7.7438  -23.0336 H   0  0  0  0  0  0
    2.8851    8.0679  -22.1490 H   0  0  0  0  0  0
    7.2786    6.9279  -19.2627 H   0  0  0  0  0  0
    8.5192    6.2296  -20.3582 H   0  0  0  0  0  0
    8.9237    7.6448  -19.3292 H   0  0  0  0  0  0
    8.2559    9.8289  -23.6449 H   0  0  0  0  0  0
  1  2  2  0  0  0
  1  3  1  0  0  0
  1 34  1  0  0  0
  2  6  1  0  0  0
  2 35  1  0  0  0
  3  5  2  0  0  0
  3 27  1  0  0  0
  4  5  1  0  0  0
  4  6  2  0  0  0
  4 18  1  0  0  0
  5 24  1  0  0  0
  6 10  1  0  0  0
  7 10  2  0  0  0
  7 23  1  0  0  0
  7 33  1  0  0  0
  8 21  1  0  0  0
  8 22  1  0  0  0
  8 36  1  0  0  0
  8 37  1  0  0  0
  9 21  1  0  0  0
  9 31  1  0  0  0
  9 38  1  0  0  0
  9 39  1  0  0  0
 10 40  1  0  0  0
 11 12  1  0  0  0
 11 14  2  0  0  0
 11 15  1  0  0  0
 12 17  1  0  0  0
 12 28  2  0  0  0
 13 28  1  0  0  0
 13 29  2  0  0  0
 13 56  1  0  0  0
 14 29  1  0  0  0
 14 31  1  0  0  0
 15 30  2  0  0  0
 15 41  1  0  0  0
 16 17  2  0  0  0
 16 18  1  0  0  0
 16 30  1  0  0  0
 17 26  1  0  0  0
 18 23  2  0  0  0
 19 20  1  0  0  0
 19 31  1  0  0  0
 19 42  1  0  0  0
 19 43  1  0  0  0
 20 22  1  0  0  0
 20 32  1  0  0  0
 20 44  1  0  0  0
 21 32  1  0  0  0
 21 45  1  0  0  0
 22 46  1  0  0  0
 22 47  1  0  0  0
 23 48  1  0  0  0
 24 25  3  0  0  0
 25 49  1  0  0  0
 32 50  1  0  0  0
 33 51  1  0  0  0
 52 57  1  0  0  0
 52 60  1  0  0  0
 53 55  1  0  0  0
 53 56  1  0  0  0
 53 61  1  0  0  0
 54 59  1  0  0  0
 54 60  2  0  0  0
 55 57  1  0  0  0
 55 62  1  0  0  0
 55 63  1  0  0  0
 56 64  1  0  0  0
 56 65  1  0  0  0
 57 59  2  0  0  0
 58 59  1  0  0  0
 58 66  1  0  0  0
 58 67  1  0  0  0
 58 68  1  0  0  0
 60 69  1  0  0  0
M  END
> <s_m_entry_id>
477

> <s_m_entry_name>
000000319.1

> <s_m_Source_Path>
/Users/zaksoul/Documents/3r_UNI/2nd_SEMESTER/BSC/FRAG_RECON/RESULTS/2

> <s_m_Source_File>
000000319.mol2

> <i_m_Source_File_Index>
1

$$$$
No_0_337
                    3D
 Schrodinger Suite 2022-4.
 69 75  0  0  1  0            999 V2000
   -5.3940    3.5320  -21.8380 C   0  0  0  0  0  0
   -5.6650    3.7180  -23.1730 C   0  0  0  0  0  0
   -4.1560    3.2670  -21.5030 C   0  0  0  0  0  0
   -3.2750    3.3750  -23.6730 C   0  0  0  0  0  0
   -3.1090    3.1350  -22.2530 C   0  0  0  0  0  0
   -4.6220    3.6500  -24.1890 C   0  0  0  0  0  0
   -3.8790    3.6540  -26.3910 C   0  0  0  0  0  0
    5.8700    2.8410  -21.1720 C   0  0  0  0  0  0
    5.7190    2.9740  -23.7220 C   0  0  0  0  0  0
   -4.8790    3.7740  -25.5230 C   0  0  0  0  0  0
    1.9400    3.5610  -23.7220 C   0  0  0  0  0  0
    1.1330    4.6800  -23.4230 C   0  0  0  0  0  0
    2.9470    5.8590  -22.7580 C   0  0  0  0  0  0
    3.3440    3.7390  -23.4170 C   0  0  0  0  0  0
    1.3790    2.4470  -24.3750 C   0  0  0  0  0  0
   -0.7390    3.2830  -24.2570 C   0  0  0  0  0  0
   -0.1970    4.5000  -23.6660 C   0  0  0  0  0  0
   -2.1940    3.3030  -24.6040 C   0  0  0  0  0  0
    3.9260    1.2360  -23.1170 C   0  0  0  0  0  0
    4.8610    0.8760  -21.9740 C   0  0  2  0  0  0
    6.4670    2.3970  -22.5250 C   0  0  2  0  0  0
    4.8600    1.8820  -20.8110 C   0  0  0  0  0  0
   -2.5250    3.4600  -26.0310 C   0  0  0  0  0  0
   -1.7660    2.7100  -21.6590 C   0  0  0  0  0  0
   -0.7370    2.3540  -21.1570 C   0  0  0  0  0  0
   -1.0260    5.5550  -23.3220 F   0  0  0  0  0  0
   -3.9410    3.0280  -20.1210 F   0  0  0  0  0  0
    1.6240    5.8360  -22.8990 N   0  0  0  0  0  0
    3.8320    4.8870  -22.9780 N   0  0  0  0  0  0
    0.0700    2.3700  -24.6740 N   0  0  0  0  0  0
    4.2510    2.6810  -23.5940 N   0  0  0  0  0  0
    6.2660    0.9260  -22.4640 N   0  0  1  0  0  0
   -4.0580    3.6650  -27.7800 O   0  0  0  0  0  0
   -6.1916    3.6063  -21.1077 H   0  0  0  0  0  0
   -6.6791    3.9218  -23.4973 H   0  0  0  0  0  0
    5.4091    3.8335  -21.2840 H   0  0  0  0  0  0
    6.6603    2.8471  -20.4069 H   0  0  0  0  0  0
    6.1046    2.5218  -24.6476 H   0  0  0  0  0  0
    5.8733    4.0624  -23.7603 H   0  0  0  0  0  0
   -5.8892    3.9676  -25.8651 H   0  0  0  0  0  0
    2.0084    1.6108  -24.6571 H   0  0  0  0  0  0
    2.8844    1.1916  -22.7661 H   0  0  0  0  0  0
    4.0763    0.5328  -23.9494 H   0  0  0  0  0  0
    4.6289   -0.1323  -21.6006 H   0  0  0  0  0  0
    7.5377    2.6432  -22.5785 H   0  0  0  0  0  0
    3.8817    2.3828  -20.7646 H   0  0  0  0  0  0
    5.1598    1.3691  -19.8852 H   0  0  0  0  0  0
   -1.7593    3.4289  -26.7977 H   0  0  0  0  0  0
    0.1698    2.0401  -20.7161 H   0  0  0  0  0  0
    6.9118    0.4246  -21.7584 H   0  0  0  0  0  0
   -3.2165    3.5660  -28.2097 H   0  0  0  0  0  0
    6.1590    9.4860  -22.8770 O   0  0  0  0  0  0
    4.5470    7.0020  -21.2100 N   0  0  1  0  0  0
    8.1670    8.7810  -22.9980 N   0  0  0  0  0  0
    5.3050    8.2430  -20.8190 C   0  0  0  0  0  0
    3.5220    7.1950  -22.2980 C   0  0  0  0  0  0
    6.3730    8.6050  -21.8380 C   0  0  0  0  0  0
    8.3740    7.1830  -21.0270 C   0  0  0  0  0  0
    7.6240    8.1610  -21.9080 C   0  0  0  0  0  0
    7.2450    9.5520  -23.5260 C   0  0  0  0  0  0
    5.2400    6.2550  -21.5680 H   0  0  0  0  0  0
    5.7734    8.0919  -19.8352 H   0  0  0  0  0  0
    4.6023    9.0826  -20.7130 H   0  0  0  0  0  0
    3.9881    7.7061  -23.1532 H   0  0  0  0  0  0
    2.7086    7.8353  -21.9258 H   0  0  0  0  0  0
    7.7110    6.8310  -20.2230 H   0  0  0  0  0  0
    8.7062    6.3254  -21.6304 H   0  0  0  0  0  0
    9.2500    7.6830  -20.5880 H   0  0  0  0  0  0
    7.4711   10.1413  -24.4134 H   0  0  0  0  0  0
  1  2  2  0  0  0
  1  3  1  0  0  0
  1 34  1  0  0  0
  2  6  1  0  0  0
  2 35  1  0  0  0
  3  5  2  0  0  0
  3 27  1  0  0  0
  4  5  1  0  0  0
  4  6  2  0  0  0
  4 18  1  0  0  0
  5 24  1  0  0  0
  6 10  1  0  0  0
  7 10  2  0  0  0
  7 23  1  0  0  0
  7 33  1  0  0  0
  8 21  1  0  0  0
  8 22  1  0  0  0
  8 36  1  0  0  0
  8 37  1  0  0  0
  9 21  1  0  0  0
  9 31  1  0  0  0
  9 38  1  0  0  0
  9 39  1  0  0  0
 10 40  1  0  0  0
 11 12  1  0  0  0
 11 14  2  0  0  0
 11 15  1  0  0  0
 12 17  1  0  0  0
 12 28  2  0  0  0
 13 28  1  0  0  0
 13 29  2  0  0  0
 13 56  1  0  0  0
 14 29  1  0  0  0
 14 31  1  0  0  0
 15 30  2  0  0  0
 15 41  1  0  0  0
 16 17  2  0  0  0
 16 18  1  0  0  0
 16 30  1  0  0  0
 17 26  1  0  0  0
 18 23  2  0  0  0
 19 20  1  0  0  0
 19 31  1  0  0  0
 19 42  1  0  0  0
 19 43  1  0  0  0
 20 22  1  0  0  0
 20 32  1  0  0  0
 20 44  1  0  0  0
 21 32  1  0  0  0
 21 45  1  0  0  0
 22 46  1  0  0  0
 22 47  1  0  0  0
 23 48  1  0  0  0
 24 25  3  0  0  0
 25 49  1  0  0  0
 32 50  1  0  0  0
 33 51  1  0  0  0
 52 57  1  0  0  0
 52 60  1  0  0  0
 53 55  1  0  0  0
 53 56  1  0  0  0
 53 61  1  0  0  0
 54 59  1  0  0  0
 54 60  2  0  0  0
 55 57  1  0  0  0
 55 62  1  0  0  0
 55 63  1  0  0  0
 56 64  1  0  0  0
 56 65  1  0  0  0
 57 59  2  0  0  0
 58 59  1  0  0  0
 58 66  1  0  0  0
 58 67  1  0  0  0
 58 68  1  0  0  0
 60 69  1  0  0  0
M  END
> <s_m_entry_id>
478

> <s_m_entry_name>
000000320.1

> <s_m_Source_Path>
/Users/zaksoul/Documents/3r_UNI/2nd_SEMESTER/BSC/FRAG_RECON/RESULTS/2

> <s_m_Source_File>
000000320.mol2

> <i_m_Source_File_Index>
1

$$$$
No_0_338
                    3D
 Schrodinger Suite 2022-4.
 69 75  0  0  1  0            999 V2000
   -5.2830    3.5760  -21.9250 C   0  0  0  0  0  0
   -5.5340    3.7180  -23.2690 C   0  0  0  0  0  0
   -4.0500    3.3280  -21.5620 C   0  0  0  0  0  0
   -3.1360    3.3710  -23.7220 C   0  0  0  0  0  0
   -2.9910    3.1770  -22.2920 C   0  0  0  0  0  0
   -4.4760    3.6230  -24.2660 C   0  0  0  0  0  0
   -3.6990    3.5610  -26.4550 C   0  0  0  0  0  0
    5.9720    2.9610  -21.0660 C   0  0  0  0  0  0
    5.8600    3.0130  -23.6200 C   0  0  0  0  0  0
   -4.7130    3.7030  -25.6070 C   0  0  0  0  0  0
    2.0790    3.5810  -23.6960 C   0  0  0  0  0  0
    1.2620    4.7040  -23.4460 C   0  0  0  0  0  0
    3.0600    5.9140  -22.7910 C   0  0  0  0  0  0
    3.4770    3.7750  -23.3760 C   0  0  0  0  0  0
    1.5330    2.4440  -24.3230 C   0  0  0  0  0  0
   -0.5910    3.2730  -24.2640 C   0  0  0  0  0  0
   -0.0630    4.5110  -23.7030 C   0  0  0  0  0  0
   -2.0400    3.2750  -24.6330 C   0  0  0  0  0  0
    4.0650    1.2860  -22.9880 C   0  0  0  0  0  0
    4.9840    0.9660  -21.8200 C   0  0  2  0  0  0
    6.5920    2.4780  -22.3940 C   0  0  2  0  0  0
    4.9610    2.0090  -20.6890 C   0  0  0  0  0  0
   -2.3500    3.3840  -26.0690 C   0  0  0  0  0  0
   -1.6550    2.7780  -21.6650 C   0  0  0  0  0  0
   -0.6320    2.4430  -21.1360 C   0  0  0  0  0  0
   -0.9020    5.5730  -23.4050 F   0  0  0  0  0  0
   -3.8550    3.1340  -20.1700 F   0  0  0  0  0  0
    1.7400    5.8790  -22.9510 N   0  0  0  0  0  0
    3.9530    4.9390  -22.9670 N   0  0  0  0  0  0
    0.2290    2.3510  -24.6380 N   0  0  0  0  0  0
    4.3910    2.7160  -23.5050 N   0  0  0  0  0  0
    6.3960    1.0080  -22.2890 N   0  0  1  0  0  0
   -3.8570    3.5270  -27.8460 O   0  0  0  0  0  0
   -6.0919    3.6693  -21.2094 H   0  0  0  0  0  0
   -6.5442    3.9066  -23.6141 H   0  0  0  0  0  0
    5.5081    3.9472  -21.2152 H   0  0  0  0  0  0
    6.7499    2.9953  -20.2891 H   0  0  0  0  0  0
    6.2605    2.5328  -24.5250 H   0  0  0  0  0  0
    6.0094    4.1005  -23.6907 H   0  0  0  0  0  0
   -5.7186    3.8816  -25.9703 H   0  0  0  0  0  0
    2.1696    1.6015  -24.5680 H   0  0  0  0  0  0
    3.0186    1.2477  -22.6510 H   0  0  0  0  0  0
    4.2315    0.5575  -23.7952 H   0  0  0  0  0  0
    4.7498   -0.0304  -21.4172 H   0  0  0  0  0  0
    7.6624    2.7272  -22.4394 H   0  0  0  0  0  0
    3.9801    2.5065  -20.6739 H   0  0  0  0  0  0
    5.2488    1.5273  -19.7429 H   0  0  0  0  0  0
   -1.5724    3.3328  -26.8225 H   0  0  0  0  0  0
    0.2687    2.1481  -20.6702 H   0  0  0  0  0  0
    7.0334    0.5321  -21.5585 H   0  0  0  0  0  0
   -3.0088    3.4181  -28.2597 H   0  0  0  0  0  0
    5.8990    9.8070  -23.3150 O   0  0  0  0  0  0
    4.8700    7.1010  -21.5340 N   0  0  1  0  0  0
    7.8790    9.2870  -23.9080 N   0  0  0  0  0  0
    5.6010    8.3800  -21.2210 C   0  0  0  0  0  0
    3.6230    7.2660  -22.3650 C   0  0  0  0  0  0
    6.3950    8.8900  -22.4120 C   0  0  0  0  0  0
    8.6220    7.6040  -22.1490 C   0  0  0  0  0  0
    7.6310    8.5610  -22.7770 C   0  0  0  0  0  0
    6.8120   10.0030  -24.1710 C   0  0  0  0  0  0
    5.5211    6.4378  -22.0841 H   0  0  0  0  0  0
    6.2813    8.2139  -20.3727 H   0  0  0  0  0  0
    4.8785    9.1476  -20.9068 H   0  0  0  0  0  0
    3.8540    7.8639  -23.2589 H   0  0  0  0  0  0
    2.8647    7.8112  -21.7838 H   0  0  0  0  0  0
    8.1759    7.1499  -21.2519 H   0  0  0  0  0  0
    8.8768    6.8137  -22.8704 H   0  0  0  0  0  0
    9.5340    8.1510  -21.8680 H   0  0  0  0  0  0
    6.7970   10.6591  -25.0401 H   0  0  0  0  0  0
  1  2  2  0  0  0
  1  3  1  0  0  0
  1 34  1  0  0  0
  2  6  1  0  0  0
  2 35  1  0  0  0
  3  5  2  0  0  0
  3 27  1  0  0  0
  4  5  1  0  0  0
  4  6  2  0  0  0
  4 18  1  0  0  0
  5 24  1  0  0  0
  6 10  1  0  0  0
  7 10  2  0  0  0
  7 23  1  0  0  0
  7 33  1  0  0  0
  8 21  1  0  0  0
  8 22  1  0  0  0
  8 36  1  0  0  0
  8 37  1  0  0  0
  9 21  1  0  0  0
  9 31  1  0  0  0
  9 38  1  0  0  0
  9 39  1  0  0  0
 10 40  1  0  0  0
 11 12  1  0  0  0
 11 14  2  0  0  0
 11 15  1  0  0  0
 12 17  1  0  0  0
 12 28  2  0  0  0
 13 28  1  0  0  0
 13 29  2  0  0  0
 13 56  1  0  0  0
 14 29  1  0  0  0
 14 31  1  0  0  0
 15 30  2  0  0  0
 15 41  1  0  0  0
 16 17  2  0  0  0
 16 18  1  0  0  0
 16 30  1  0  0  0
 17 26  1  0  0  0
 18 23  2  0  0  0
 19 20  1  0  0  0
 19 31  1  0  0  0
 19 42  1  0  0  0
 19 43  1  0  0  0
 20 22  1  0  0  0
 20 32  1  0  0  0
 20 44  1  0  0  0
 21 32  1  0  0  0
 21 45  1  0  0  0
 22 46  1  0  0  0
 22 47  1  0  0  0
 23 48  1  0  0  0
 24 25  3  0  0  0
 25 49  1  0  0  0
 32 50  1  0  0  0
 33 51  1  0  0  0
 52 57  1  0  0  0
 52 60  1  0  0  0
 53 55  1  0  0  0
 53 56  1  0  0  0
 53 61  1  0  0  0
 54 59  1  0  0  0
 54 60  2  0  0  0
 55 57  1  0  0  0
 55 62  1  0  0  0
 55 63  1  0  0  0
 56 64  1  0  0  0
 56 65  1  0  0  0
 57 59  2  0  0  0
 58 59  1  0  0  0
 58 66  1  0  0  0
 58 67  1  0  0  0
 58 68  1  0  0  0
 60 69  1  0  0  0
M  END
> <s_m_entry_id>
479

> <s_m_entry_name>
000000321.1

> <s_m_Source_Path>
/Users/zaksoul/Documents/3r_UNI/2nd_SEMESTER/BSC/FRAG_RECON/RESULTS/2

> <s_m_Source_File>
000000321.mol2

> <i_m_Source_File_Index>
1

$$$$
No_0_339
                    3D
 Schrodinger Suite 2022-4.
 73 79  0  0  1  0            999 V2000
   -5.0890    3.5380  -22.2960 C   0  0  0  0  0  0
   -5.3200    3.7070  -23.6410 C   0  0  0  0  0  0
   -3.8660    3.2600  -21.9220 C   0  0  0  0  0  0
   -2.9220    3.3210  -24.0680 C   0  0  0  0  0  0
   -2.8000    3.1010  -22.6400 C   0  0  0  0  0  0
   -4.2500    3.6080  -24.6250 C   0  0  0  0  0  0
   -3.4450    3.5680  -26.8050 C   0  0  0  0  0  0
    6.1390    2.6880  -21.3020 C   0  0  0  0  0  0
    6.0630    2.7840  -23.8560 C   0  0  0  0  0  0
   -4.4680    3.7160  -25.9680 C   0  0  0  0  0  0
    2.2950    3.4280  -23.9720 C   0  0  0  0  0  0
    1.4960    4.5630  -23.7130 C   0  0  0  0  0  0
    3.3090    5.7250  -23.0140 C   0  0  0  0  0  0
    3.6920    3.5890  -23.6300 C   0  0  0  0  0  0
    1.7350    2.3130  -24.6240 C   0  0  0  0  0  0
   -0.3730    3.1820  -24.5790 C   0  0  0  0  0  0
    0.1720    4.4000  -23.9910 C   0  0  0  0  0  0
   -1.8170    3.2180  -24.9670 C   0  0  0  0  0  0
    4.2260    1.0830  -23.2770 C   0  0  0  0  0  0
    5.1240    0.7260  -22.1020 C   0  0  2  0  0  0
    6.7680    2.2150  -22.6300 C   0  0  2  0  0  0
    5.1050    1.7500  -20.9550 C   0  0  0  0  0  0
   -2.1050    3.3580  -26.4050 C   0  0  0  0  0  0
   -1.4810    2.6650  -22.0020 C   0  0  0  0  0  0
   -0.4720    2.3010  -21.4660 C   0  0  0  0  0  0
   -0.6500    5.4730  -23.6860 F   0  0  0  0  0  0
   -3.6930    3.0390  -20.5310 F   0  0  0  0  0  0
    1.9910    5.7190  -23.1920 N   0  0  0  0  0  0
    4.1850    4.7360  -23.1950 N   0  0  0  0  0  0
    0.4340    2.2500  -24.9580 N   0  0  0  0  0  0
    4.5860    2.5150  -23.7660 N   0  0  0  0  0  0
    6.5420    0.7480  -22.5530 N   0  0  1  0  0  0
   -3.5860    3.5600  -28.1980 O   0  0  0  0  0  0
   -5.9052    3.6354  -21.5893 H   0  0  0  0  0  0
   -6.3212    3.9219  -23.9965 H   0  0  0  0  0  0
    5.6968    3.6855  -21.4413 H   0  0  0  0  0  0
    6.9077    2.6930  -20.5152 H   0  0  0  0  0  0
    6.4668    2.3115  -24.7636 H   0  0  0  0  0  0
    6.2345    3.8694  -23.9064 H   0  0  0  0  0  0
   -5.4650    3.9198  -26.3415 H   0  0  0  0  0  0
    2.3579    1.4623  -24.8758 H   0  0  0  0  0  0
    3.1747    1.0598  -22.9541 H   0  0  0  0  0  0
    4.3885    0.3642  -24.0937 H   0  0  0  0  0  0
    4.8648   -0.2724  -21.7198 H   0  0  0  0  0  0
    7.8438    2.4431  -22.6572 H   0  0  0  0  0  0
    4.1340    2.2668  -20.9429 H   0  0  0  0  0  0
    5.3704    1.2465  -20.0137 H   0  0  0  0  0  0
   -1.3187    3.3038  -27.1492 H   0  0  0  0  0  0
    0.4166    1.9801  -20.9942 H   0  0  0  0  0  0
    7.1602    0.2474  -21.8225 H   0  0  0  0  0  0
   -2.7346    3.4413  -28.6024 H   0  0  0  0  0  0
    3.5390    7.3600  -21.1250 N   0  0  1  0  0  0
    7.2620    9.9500  -21.5180 N   0  0  0  0  0  0
    7.5780    9.1190  -20.5050 N   0  0  0  0  0  0
    3.8800    8.7480  -20.6490 C   0  0  0  0  0  0
    6.3960    8.6080  -20.0890 C   0  0  0  0  0  0
    3.8920    7.0590  -22.5580 C   0  0  0  0  0  0
    5.3570    9.0750  -20.7920 C   0  0  0  0  0  0
    8.9380    8.8680  -20.0210 C   0  0  0  0  0  0
    5.2910   10.7800  -22.7740 C   0  0  0  0  0  0
    5.9680    9.9460  -21.7070 C   0  0  0  0  0  0
    4.0651    6.6339  -20.5229 H   0  0  0  0  0  0
    3.5819    8.8570  -19.5958 H   0  0  0  0  0  0
    3.2874    9.4836  -21.2127 H   0  0  0  0  0  0
    6.3700    7.9003  -19.2683 H   0  0  0  0  0  0
    4.9861    7.0360  -22.6690 H   0  0  0  0  0  0
    3.5139    7.8642  -23.2051 H   0  0  0  0  0  0
    8.9040    8.1502  -19.1882 H   0  0  0  0  0  0
    9.5473    8.4528  -20.8374 H   0  0  0  0  0  0
    9.3841    9.8113  -19.6729 H   0  0  0  0  0  0
    4.2049   10.6090  -22.7390 H   0  0  0  0  0  0
    5.5000   11.8450  -22.5950 H   0  0  0  0  0  0
    5.6749   10.4921  -23.7638 H   0  0  0  0  0  0
  1  2  2  0  0  0
  1  3  1  0  0  0
  1 34  1  0  0  0
  2  6  1  0  0  0
  2 35  1  0  0  0
  3  5  2  0  0  0
  3 27  1  0  0  0
  4  5  1  0  0  0
  4  6  2  0  0  0
  4 18  1  0  0  0
  5 24  1  0  0  0
  6 10  1  0  0  0
  7 10  2  0  0  0
  7 23  1  0  0  0
  7 33  1  0  0  0
  8 21  1  0  0  0
  8 22  1  0  0  0
  8 36  1  0  0  0
  8 37  1  0  0  0
  9 21  1  0  0  0
  9 31  1  0  0  0
  9 38  1  0  0  0
  9 39  1  0  0  0
 10 40  1  0  0  0
 11 12  1  0  0  0
 11 14  2  0  0  0
 11 15  1  0  0  0
 12 17  1  0  0  0
 12 28  2  0  0  0
 13 28  1  0  0  0
 13 29  2  0  0  0
 13 57  1  0  0  0
 14 29  1  0  0  0
 14 31  1  0  0  0
 15 30  2  0  0  0
 15 41  1  0  0  0
 16 17  2  0  0  0
 16 18  1  0  0  0
 16 30  1  0  0  0
 17 26  1  0  0  0
 18 23  2  0  0  0
 19 20  1  0  0  0
 19 31  1  0  0  0
 19 42  1  0  0  0
 19 43  1  0  0  0
 20 22  1  0  0  0
 20 32  1  0  0  0
 20 44  1  0  0  0
 21 32  1  0  0  0
 21 45  1  0  0  0
 22 46  1  0  0  0
 22 47  1  0  0  0
 23 48  1  0  0  0
 24 25  3  0  0  0
 25 49  1  0  0  0
 32 50  1  0  0  0
 33 51  1  0  0  0
 52 55  1  0  0  0
 52 57  1  0  0  0
 52 62  1  0  0  0
 53 54  1  0  0  0
 53 61  2  0  0  0
 54 56  1  0  0  0
 54 59  1  0  0  0
 55 58  1  0  0  0
 55 63  1  0  0  0
 55 64  1  0  0  0
 56 58  2  0  0  0
 56 65  1  0  0  0
 57 66  1  0  0  0
 57 67  1  0  0  0
 58 61  1  0  0  0
 59 68  1  0  0  0
 59 69  1  0  0  0
 59 70  1  0  0  0
 60 61  1  0  0  0
 60 71  1  0  0  0
 60 72  1  0  0  0
 60 73  1  0  0  0
M  END
> <s_m_entry_id>
480

> <s_m_entry_name>
000000322.1

> <s_m_Source_Path>
/Users/zaksoul/Documents/3r_UNI/2nd_SEMESTER/BSC/FRAG_RECON/RESULTS/2

> <s_m_Source_File>
000000322.mol2

> <i_m_Source_File_Index>
1

$$$$
No_0_340
                    3D
 Schrodinger Suite 2022-4.
 69 75  0  0  1  0            999 V2000
   -5.2640    3.6390  -22.0310 C   0  0  0  0  0  0
   -5.5620    3.7990  -23.3630 C   0  0  0  0  0  0
   -4.0130    3.4190  -21.7120 C   0  0  0  0  0  0
   -3.1710    3.5280  -23.8980 C   0  0  0  0  0  0
   -2.9750    3.3110  -22.4780 C   0  0  0  0  0  0
   -4.5340    3.7520  -24.3940 C   0  0  0  0  0  0
   -3.8260    3.7530  -26.6080 C   0  0  0  0  0  0
    6.0250    3.3190  -21.5410 C   0  0  0  0  0  0
    5.8300    3.4150  -24.0890 C   0  0  0  0  0  0
   -4.8160    3.8520  -25.7260 C   0  0  0  0  0  0
    2.0340    3.8810  -24.0340 C   0  0  0  0  0  0
    1.1960    4.9760  -23.7360 C   0  0  0  0  0  0
    2.9810    6.2220  -23.1140 C   0  0  0  0  0  0
    3.4370    4.1070  -23.7540 C   0  0  0  0  0  0
    1.4990    2.7410  -24.6650 C   0  0  0  0  0  0
   -0.6430    3.5100  -24.5220 C   0  0  0  0  0  0
   -0.1310    4.7510  -23.9550 C   0  0  0  0  0  0
   -2.1030    3.4780  -24.8460 C   0  0  0  0  0  0
    4.1030    1.6280  -23.4340 C   0  0  0  0  0  0
    5.0680    1.3120  -22.3020 C   0  0  2  0  0  0
    6.6150    2.8780  -22.8980 C   0  0  2  0  0  0
    5.0530    2.3320  -21.1520 C   0  0  0  0  0  0
   -2.4610    3.6070  -26.2690 C   0  0  0  0  0  0
   -1.6100    2.9370  -21.9010 C   0  0  0  0  0  0
   -0.5610    2.6200  -21.4120 C   0  0  0  0  0  0
   -0.9880    5.7830  -23.6090 F   0  0  0  0  0  0
   -3.7690    3.2040  -20.3310 F   0  0  0  0  0  0
    1.6580    6.1540  -23.2330 N   0  0  0  0  0  0
    3.8940    5.2750  -23.3370 N   0  0  0  0  0  0
    0.1890    2.6180  -24.9410 N   0  0  0  0  0  0
    4.3740    3.0760  -23.9340 N   0  0  0  0  0  0
    6.4630    1.4020  -22.8160 N   0  0  1  0  0  0
   -4.0290    3.7410  -27.9940 O   0  0  0  0  0  0
   -6.0516    3.6972  -21.2885 H   0  0  0  0  0  0
   -6.5873    3.9667  -23.6723 H   0  0  0  0  0  0
    5.5305    4.2948  -21.6560 H   0  0  0  0  0  0
    6.8271    3.3594  -20.7893 H   0  0  0  0  0  0
    6.2146    2.9638  -25.0156 H   0  0  0  0  0  0
    5.9480    4.5073  -24.1425 H   0  0  0  0  0  0
   -5.8375    4.0085  -26.0531 H   0  0  0  0  0  0
    2.1505    1.9218  -24.9471 H   0  0  0  0  0  0
    3.0691    1.5553  -23.0655 H   0  0  0  0  0  0
    4.2634    0.9198  -24.2603 H   0  0  0  0  0  0
    4.8742    0.3017  -21.9124 H   0  0  0  0  0  0
    7.6764    3.1575  -22.9716 H   0  0  0  0  0  0
    4.0602    2.8022  -21.0945 H   0  0  0  0  0  0
    5.3838    1.8408  -20.2250 H   0  0  0  0  0  0
   -1.7077    3.5909  -27.0484 H   0  0  0  0  0  0
    0.3618    2.3410  -20.9811 H   0  0  0  0  0  0
    7.1356    0.9294  -22.1156 H   0  0  0  0  0  0
   -3.1916    3.6639  -28.4359 H   0  0  0  0  0  0
    7.9080    9.2520  -20.3380 O   0  0  0  0  0  0
    3.8820    7.5650  -21.2170 N   0  0  1  0  0  0
    7.6970   10.1180  -21.4320 N   0  0  0  0  0  0
    4.2620    8.8960  -20.6130 C   0  0  0  0  0  0
    3.5210    7.5800  -22.6800 C   0  0  0  0  0  0
    5.7400    9.2330  -20.7510 C   0  0  0  0  0  0
    5.8030   10.9070  -22.7740 C   0  0  0  0  0  0
    6.7190    8.7680  -19.9870 C   0  0  0  0  0  0
    6.4180   10.0880  -21.6570 C   0  0  0  0  0  0
    4.7081    6.8759  -21.1210 H   0  0  0  0  0  0
    3.9830    8.9060  -19.5490 H   0  0  0  0  0  0
    3.6610    9.6920  -21.0770 H   0  0  0  0  0  0
    4.4122    7.8281  -23.2751 H   0  0  0  0  0  0
    2.7582    8.3518  -22.8600 H   0  0  0  0  0  0
    4.7158   10.7411  -22.7940 H   0  0  0  0  0  0
    6.0070   11.9741  -22.6020 H   0  0  0  0  0  0
    6.2383   10.6008  -23.7367 H   0  0  0  0  0  0
    6.4959    8.0708  -19.1807 H   0  0  0  0  0  0
  1  2  2  0  0  0
  1  3  1  0  0  0
  1 34  1  0  0  0
  2  6  1  0  0  0
  2 35  1  0  0  0
  3  5  2  0  0  0
  3 27  1  0  0  0
  4  5  1  0  0  0
  4  6  2  0  0  0
  4 18  1  0  0  0
  5 24  1  0  0  0
  6 10  1  0  0  0
  7 10  2  0  0  0
  7 23  1  0  0  0
  7 33  1  0  0  0
  8 21  1  0  0  0
  8 22  1  0  0  0
  8 36  1  0  0  0
  8 37  1  0  0  0
  9 21  1  0  0  0
  9 31  1  0  0  0
  9 38  1  0  0  0
  9 39  1  0  0  0
 10 40  1  0  0  0
 11 12  1  0  0  0
 11 14  2  0  0  0
 11 15  1  0  0  0
 12 17  1  0  0  0
 12 28  2  0  0  0
 13 28  1  0  0  0
 13 29  2  0  0  0
 13 56  1  0  0  0
 14 29  1  0  0  0
 14 31  1  0  0  0
 15 30  2  0  0  0
 15 41  1  0  0  0
 16 17  2  0  0  0
 16 18  1  0  0  0
 16 30  1  0  0  0
 17 26  1  0  0  0
 18 23  2  0  0  0
 19 20  1  0  0  0
 19 31  1  0  0  0
 19 42  1  0  0  0
 19 43  1  0  0  0
 20 22  1  0  0  0
 20 32  1  0  0  0
 20 44  1  0  0  0
 21 32  1  0  0  0
 21 45  1  0  0  0
 22 46  1  0  0  0
 22 47  1  0  0  0
 23 48  1  0  0  0
 24 25  3  0  0  0
 25 49  1  0  0  0
 32 50  1  0  0  0
 33 51  1  0  0  0
 52 54  1  0  0  0
 52 59  1  0  0  0
 53 55  1  0  0  0
 53 56  1  0  0  0
 53 61  1  0  0  0
 54 60  2  0  0  0
 55 57  1  0  0  0
 55 62  1  0  0  0
 55 63  1  0  0  0
 56 64  1  0  0  0
 56 65  1  0  0  0
 57 59  2  0  0  0
 57 60  1  0  0  0
 58 60  1  0  0  0
 58 66  1  0  0  0
 58 67  1  0  0  0
 58 68  1  0  0  0
 59 69  1  0  0  0
M  END
> <s_m_entry_id>
481

> <s_m_entry_name>
000000323.1

> <s_m_Source_Path>
/Users/zaksoul/Documents/3r_UNI/2nd_SEMESTER/BSC/FRAG_RECON/RESULTS/2

> <s_m_Source_File>
000000323.mol2

> <i_m_Source_File_Index>
1

$$$$
No_0_341
                    3D
 Schrodinger Suite 2022-4.
 69 75  0  0  1  0            999 V2000
   -5.1810    3.6090  -21.8530 C   0  0  0  0  0  0
   -5.4520    3.8050  -23.1860 C   0  0  0  0  0  0
   -3.9420    3.3510  -21.5190 C   0  0  0  0  0  0
   -3.0590    3.4860  -23.6870 C   0  0  0  0  0  0
   -2.8930    3.2340  -22.2690 C   0  0  0  0  0  0
   -4.4090    3.7540  -24.2010 C   0  0  0  0  0  0
   -3.6630    3.7850  -26.4030 C   0  0  0  0  0  0
    6.0870    3.0010  -21.1820 C   0  0  0  0  0  0
    5.9380    3.1560  -23.7310 C   0  0  0  0  0  0
   -4.6650    3.8890  -25.5350 C   0  0  0  0  0  0
    2.1540    3.7130  -23.7290 C   0  0  0  0  0  0
    1.3370    4.8230  -23.4210 C   0  0  0  0  0  0
    3.1410    6.0110  -22.7430 C   0  0  0  0  0  0
    3.5570    3.8990  -23.4210 C   0  0  0  0  0  0
    1.6030    2.6010  -24.3930 C   0  0  0  0  0  0
   -0.5220    3.4190  -24.2700 C   0  0  0  0  0  0
    0.0100    4.6350  -23.6670 C   0  0  0  0  0  0
   -1.9770    3.4300  -24.6180 C   0  0  0  0  0  0
    4.1570    1.3990  -23.1440 C   0  0  0  0  0  0
    5.0950    1.0350  -22.0030 C   0  0  2  0  0  0
    6.6890    2.5740  -22.5390 C   0  0  2  0  0  0
    5.0840    2.0310  -20.8310 C   0  0  0  0  0  0
   -2.3080    3.5970  -26.0440 C   0  0  0  0  0  0
   -1.5470    2.8150  -21.6780 C   0  0  0  0  0  0
   -0.5150    2.4620  -21.1780 C   0  0  0  0  0  0
   -0.8280    5.6800  -23.3140 F   0  0  0  0  0  0
   -3.7260    3.1020  -20.1390 F   0  0  0  0  0  0
    1.8200    5.9780  -22.8860 N   0  0  0  0  0  0
    4.0350    5.0470  -22.9720 N   0  0  0  0  0  0
    0.2950    2.5160  -24.6930 N   0  0  0  0  0  0
    4.4710    2.8500  -23.6070 N   0  0  0  0  0  0
    6.5000    1.1010  -22.4910 N   0  0  1  0  0  0
   -3.8410    3.8060  -27.7920 O   0  0  0  0  0  0
   -5.9796    3.6712  -21.1226 H   0  0  0  0  0  0
   -6.4675    4.0037  -23.5091 H   0  0  0  0  0  0
    5.6179    3.9906  -21.2849 H   0  0  0  0  0  0
    6.8763    3.0060  -20.4159 H   0  0  0  0  0  0
    6.3275    2.7150  -24.6604 H   0  0  0  0  0  0
    6.0833    4.2460  -23.7593 H   0  0  0  0  0  0
   -5.6765    4.0776  -25.8762 H   0  0  0  0  0  0
    2.2385    1.7718  -24.6821 H   0  0  0  0  0  0
    3.1157    1.3435  -22.7939 H   0  0  0  0  0  0
    4.3144    0.7047  -23.9826 H   0  0  0  0  0  0
    4.8700    0.0218  -21.6387 H   0  0  0  0  0  0
    7.7578    2.8293  -22.5885 H   0  0  0  0  0  0
    4.1018    2.5236  -20.7805 H   0  0  0  0  0  0
    5.3877    1.5123  -19.9097 H   0  0  0  0  0  0
   -1.5411    3.5789  -26.8099 H   0  0  0  0  0  0
    0.3934    2.1519  -20.7378 H   0  0  0  0  0  0
    7.1492    0.5983  -21.7894 H   0  0  0  0  0  0
   -2.9984    3.7179  -28.2217 H   0  0  0  0  0  0
    8.3750    8.9920  -20.5320 O   0  0  0  0  0  0
    4.3100    7.2110  -20.8970 N   0  0  1  0  0  0
    7.9570    9.9450  -21.4850 N   0  0  0  0  0  0
    4.7470    8.4960  -20.2350 C   0  0  0  0  0  0
    3.7060    7.3460  -22.2710 C   0  0  0  0  0  0
    6.1700    8.9120  -20.5810 C   0  0  0  0  0  0
    5.8400   10.7680  -22.4090 C   0  0  0  0  0  0
    7.2770    8.4230  -20.0390 C   0  0  0  0  0  0
    6.6600    9.8780  -21.4970 C   0  0  0  0  0  0
    5.1600    6.5540  -21.0080 H   0  0  0  0  0  0
    4.6520    8.3940  -19.1439 H   0  0  0  0  0  0
    4.0527    9.3033  -20.5111 H   0  0  0  0  0  0
    4.4766    7.6878  -22.9776 H   0  0  0  0  0  0
    2.9019    8.0961  -22.2450 H   0  0  0  0  0  0
    4.7704   10.5549  -22.2659 H   0  0  0  0  0  0
    6.0389   11.8227  -22.1681 H   0  0  0  0  0  0
    6.1160   10.5730  -23.4558 H   0  0  0  0  0  0
    7.2140    7.6443  -19.2803 H   0  0  0  0  0  0
  1  2  2  0  0  0
  1  3  1  0  0  0
  1 34  1  0  0  0
  2  6  1  0  0  0
  2 35  1  0  0  0
  3  5  2  0  0  0
  3 27  1  0  0  0
  4  5  1  0  0  0
  4  6  2  0  0  0
  4 18  1  0  0  0
  5 24  1  0  0  0
  6 10  1  0  0  0
  7 10  2  0  0  0
  7 23  1  0  0  0
  7 33  1  0  0  0
  8 21  1  0  0  0
  8 22  1  0  0  0
  8 36  1  0  0  0
  8 37  1  0  0  0
  9 21  1  0  0  0
  9 31  1  0  0  0
  9 38  1  0  0  0
  9 39  1  0  0  0
 10 40  1  0  0  0
 11 12  1  0  0  0
 11 14  2  0  0  0
 11 15  1  0  0  0
 12 17  1  0  0  0
 12 28  2  0  0  0
 13 28  1  0  0  0
 13 29  2  0  0  0
 13 56  1  0  0  0
 14 29  1  0  0  0
 14 31  1  0  0  0
 15 30  2  0  0  0
 15 41  1  0  0  0
 16 17  2  0  0  0
 16 18  1  0  0  0
 16 30  1  0  0  0
 17 26  1  0  0  0
 18 23  2  0  0  0
 19 20  1  0  0  0
 19 31  1  0  0  0
 19 42  1  0  0  0
 19 43  1  0  0  0
 20 22  1  0  0  0
 20 32  1  0  0  0
 20 44  1  0  0  0
 21 32  1  0  0  0
 21 45  1  0  0  0
 22 46  1  0  0  0
 22 47  1  0  0  0
 23 48  1  0  0  0
 24 25  3  0  0  0
 25 49  1  0  0  0
 32 50  1  0  0  0
 33 51  1  0  0  0
 52 54  1  0  0  0
 52 59  1  0  0  0
 53 55  1  0  0  0
 53 56  1  0  0  0
 53 61  1  0  0  0
 54 60  2  0  0  0
 55 57  1  0  0  0
 55 62  1  0  0  0
 55 63  1  0  0  0
 56 64  1  0  0  0
 56 65  1  0  0  0
 57 59  2  0  0  0
 57 60  1  0  0  0
 58 60  1  0  0  0
 58 66  1  0  0  0
 58 67  1  0  0  0
 58 68  1  0  0  0
 59 69  1  0  0  0
M  END
> <s_m_entry_id>
482

> <s_m_entry_name>
000000324.1

> <s_m_Source_Path>
/Users/zaksoul/Documents/3r_UNI/2nd_SEMESTER/BSC/FRAG_RECON/RESULTS/2

> <s_m_Source_File>
000000324.mol2

> <i_m_Source_File_Index>
1

$$$$
No_0_342
                    3D
 Schrodinger Suite 2022-4.
 69 75  0  0  1  0            999 V2000
   -5.2350    3.4680  -21.8100 C   0  0  0  0  0  0
   -5.4940    3.6350  -23.1500 C   0  0  0  0  0  0
   -3.9970    3.2320  -21.4580 C   0  0  0  0  0  0
   -3.0920    3.3370  -23.6190 C   0  0  0  0  0  0
   -2.9390    3.1140  -22.1940 C   0  0  0  0  0  0
   -4.4390    3.5780  -24.1530 C   0  0  0  0  0  0
   -3.6700    3.5770  -26.3460 C   0  0  0  0  0  0
    6.0310    3.0160  -21.0080 C   0  0  0  0  0  0
    5.9080    3.1210  -23.5600 C   0  0  0  0  0  0
   -4.6830    3.6840  -25.4920 C   0  0  0  0  0  0
    2.1180    3.6300  -23.6100 C   0  0  0  0  0  0
    1.2840    4.7340  -23.3320 C   0  0  0  0  0  0
    3.0660    5.9580  -22.6570 C   0  0  0  0  0  0
    3.5150    3.8400  -23.2900 C   0  0  0  0  0  0
    1.5880    2.4980  -24.2580 C   0  0  0  0  0  0
   -0.5480    3.2910  -24.1730 C   0  0  0  0  0  0
   -0.0380    4.5250  -23.5880 C   0  0  0  0  0  0
   -1.9990    3.2780  -24.5370 C   0  0  0  0  0  0
    4.1430    1.3520  -22.9590 C   0  0  0  0  0  0
    5.0730    1.0220  -21.8010 C   0  0  2  0  0  0
    6.6540    2.5720  -22.3490 C   0  0  2  0  0  0
    5.0370    2.0400  -20.6480 C   0  0  0  0  0  0
   -2.3170    3.4130  -25.9690 C   0  0  0  0  0  0
   -1.5940    2.7230  -21.5810 C   0  0  0  0  0  0
   -0.5630    2.3930  -21.0640 C   0  0  0  0  0  0
   -0.8920    5.5660  -23.2640 F   0  0  0  0  0  0
   -3.7930    3.0120  -20.0710 F   0  0  0  0  0  0
    1.7460    5.9060  -22.8130 N   0  0  0  0  0  0
    3.9730    5.0010  -22.8580 N   0  0  0  0  0  0
    0.2840    2.3910  -24.5710 N   0  0  0  0  0  0
    4.4440    2.7990  -23.4460 N   0  0  0  0  0  0
    6.4820    1.0970  -22.2750 N   0  0  1  0  0  0
   -3.8330    3.5700  -27.7370 O   0  0  0  0  0  0
   -6.0426    3.5333  -21.0898 H   0  0  0  0  0  0
   -6.5085    3.8146  -23.4872 H   0  0  0  0  0  0
    5.5516    3.9980  -21.1342 H   0  0  0  0  0  0
    6.8121    3.0453  -20.2340 H   0  0  0  0  0  0
    6.3129    2.6676  -24.4768 H   0  0  0  0  0  0
    6.0402    4.2120  -23.6074 H   0  0  0  0  0  0
   -5.6929    3.8537  -25.8474 H   0  0  0  0  0  0
    2.2375    1.6719  -24.5240 H   0  0  0  0  0  0
    3.0988    1.2904  -22.6187 H   0  0  0  0  0  0
    4.3186    0.6444  -23.7827 H   0  0  0  0  0  0
    4.8569    0.0132  -21.4193 H   0  0  0  0  0  0
    7.7203    2.8386  -22.3924 H   0  0  0  0  0  0
    4.0485    2.5216  -20.6177 H   0  0  0  0  0  0
    5.3369    1.5422  -19.7140 H   0  0  0  0  0  0
   -1.5417    3.3909  -26.7263 H   0  0  0  0  0  0
    0.3446    2.1028  -20.6087 H   0  0  0  0  0  0
    7.1300    0.6158  -21.5575 H   0  0  0  0  0  0
   -2.9846    3.4839  -28.1557 H   0  0  0  0  0  0
    8.3590    9.1830  -21.0000 O   0  0  0  0  0  0
    4.3900    7.1650  -20.9250 N   0  0  1  0  0  0
    7.7680   10.1400  -21.8520 N   0  0  0  0  0  0
    4.8340    8.4510  -20.2690 C   0  0  0  0  0  0
    3.6090    7.3090  -22.2040 C   0  0  0  0  0  0
    6.1740    8.9670  -20.7740 C   0  0  0  0  0  0
    5.5070   10.8600  -22.4670 C   0  0  0  0  0  0
    7.3680    8.5300  -20.3970 C   0  0  0  0  0  0
    6.4860    9.9920  -21.7030 C   0  0  0  0  0  0
    5.2557    6.5672  -21.1689 H   0  0  0  0  0  0
    4.8850    8.3070  -19.1797 H   0  0  0  0  0  0
    4.0652    9.2228  -20.4220 H   0  0  0  0  0  0
    4.2611    7.7231  -22.9871 H   0  0  0  0  0  0
    2.7725    8.0056  -22.0461 H   0  0  0  0  0  0
    4.4783   10.5761  -22.2001 H   0  0  0  0  0  0
    5.6740   11.9162  -22.2090 H   0  0  0  0  0  0
    5.6569   10.7191  -23.5476 H   0  0  0  0  0  0
    7.4480    7.7231  -19.6701 H   0  0  0  0  0  0
  1  2  2  0  0  0
  1  3  1  0  0  0
  1 34  1  0  0  0
  2  6  1  0  0  0
  2 35  1  0  0  0
  3  5  2  0  0  0
  3 27  1  0  0  0
  4  5  1  0  0  0
  4  6  2  0  0  0
  4 18  1  0  0  0
  5 24  1  0  0  0
  6 10  1  0  0  0
  7 10  2  0  0  0
  7 23  1  0  0  0
  7 33  1  0  0  0
  8 21  1  0  0  0
  8 22  1  0  0  0
  8 36  1  0  0  0
  8 37  1  0  0  0
  9 21  1  0  0  0
  9 31  1  0  0  0
  9 38  1  0  0  0
  9 39  1  0  0  0
 10 40  1  0  0  0
 11 12  1  0  0  0
 11 14  2  0  0  0
 11 15  1  0  0  0
 12 17  1  0  0  0
 12 28  2  0  0  0
 13 28  1  0  0  0
 13 29  2  0  0  0
 13 56  1  0  0  0
 14 29  1  0  0  0
 14 31  1  0  0  0
 15 30  2  0  0  0
 15 41  1  0  0  0
 16 17  2  0  0  0
 16 18  1  0  0  0
 16 30  1  0  0  0
 17 26  1  0  0  0
 18 23  2  0  0  0
 19 20  1  0  0  0
 19 31  1  0  0  0
 19 42  1  0  0  0
 19 43  1  0  0  0
 20 22  1  0  0  0
 20 32  1  0  0  0
 20 44  1  0  0  0
 21 32  1  0  0  0
 21 45  1  0  0  0
 22 46  1  0  0  0
 22 47  1  0  0  0
 23 48  1  0  0  0
 24 25  3  0  0  0
 25 49  1  0  0  0
 32 50  1  0  0  0
 33 51  1  0  0  0
 52 54  1  0  0  0
 52 59  1  0  0  0
 53 55  1  0  0  0
 53 56  1  0  0  0
 53 61  1  0  0  0
 54 60  2  0  0  0
 55 57  1  0  0  0
 55 62  1  0  0  0
 55 63  1  0  0  0
 56 64  1  0  0  0
 56 65  1  0  0  0
 57 59  2  0  0  0
 57 60  1  0  0  0
 58 60  1  0  0  0
 58 66  1  0  0  0
 58 67  1  0  0  0
 58 68  1  0  0  0
 59 69  1  0  0  0
M  END
> <s_m_entry_id>
483

> <s_m_entry_name>
000000325.1

> <s_m_Source_Path>
/Users/zaksoul/Documents/3r_UNI/2nd_SEMESTER/BSC/FRAG_RECON/RESULTS/2

> <s_m_Source_File>
000000325.mol2

> <i_m_Source_File_Index>
1

$$$$
No_0_343
                    3D
 Schrodinger Suite 2022-4.
 69 75  0  0  1  0            999 V2000
   -5.3990    3.3880  -21.8730 C   0  0  0  0  0  0
   -5.6670    3.6080  -23.2030 C   0  0  0  0  0  0
   -4.1560    3.1470  -21.5370 C   0  0  0  0  0  0
   -3.2650    3.3470  -23.6970 C   0  0  0  0  0  0
   -3.1020    3.0670  -22.2830 C   0  0  0  0  0  0
   -4.6170    3.6000  -24.2130 C   0  0  0  0  0  0
   -3.8600    3.6940  -26.4090 C   0  0  0  0  0  0
    5.8750    2.9870  -21.1510 C   0  0  0  0  0  0
    5.7370    3.1950  -23.6960 C   0  0  0  0  0  0
   -4.8690    3.7590  -25.5450 C   0  0  0  0  0  0
    1.9430    3.6780  -23.7040 C   0  0  0  0  0  0
    1.1030    4.7630  -23.3760 C   0  0  0  0  0  0
    2.8790    5.9710  -22.6620 C   0  0  0  0  0  0
    3.3400    3.8840  -23.3840 C   0  0  0  0  0  0
    1.4170    2.5690  -24.3950 C   0  0  0  0  0  0
   -0.7240    3.3430  -24.2660 C   0  0  0  0  0  0
   -0.2190    4.5550  -23.6340 C   0  0  0  0  0  0
   -2.1770    3.3330  -24.6220 C   0  0  0  0  0  0
    3.9880    1.3900  -23.1580 C   0  0  0  0  0  0
    4.9270    1.0200  -22.0200 C   0  0  2  0  0  0
    6.4930    2.6020  -22.5130 C   0  0  2  0  0  0
    4.8900    1.9890  -20.8260 C   0  0  0  0  0  0
   -2.5040    3.5250  -26.0460 C   0  0  0  0  0  0
   -1.7510    2.6610  -21.6940 C   0  0  0  0  0  0
   -0.7150    2.3180  -21.1960 C   0  0  0  0  0  0
   -1.0790    5.5760  -23.2630 F   0  0  0  0  0  0
   -3.9430    2.8720  -20.1620 F   0  0  0  0  0  0
    1.5590    5.9160  -22.8130 N   0  0  0  0  0  0
    3.7930    5.0310  -22.9070 N   0  0  0  0  0  0
    0.1120    2.4650  -24.7050 N   0  0  0  0  0  0
    4.2760    2.8570  -23.5880 N   0  0  0  0  0  0
    6.3320    1.1240  -22.4980 N   0  0  1  0  0  0
   -4.0320    3.7430  -27.7980 O   0  0  0  0  0  0
   -6.2019    3.4181  -21.1454 H   0  0  0  0  0  0
   -6.6845    3.7938  -23.5274 H   0  0  0  0  0  0
    5.3873    3.9694  -21.2348 H   0  0  0  0  0  0
    6.6603    2.9900  -20.3808 H   0  0  0  0  0  0
    6.1397    2.7822  -24.6327 H   0  0  0  0  0  0
    5.8611    4.2880  -23.6990 H   0  0  0  0  0  0
   -5.8822    3.9357  -25.8874 H   0  0  0  0  0  0
    2.0703    1.7592  -24.6991 H   0  0  0  0  0  0
    2.9460    1.3062  -22.8157 H   0  0  0  0  0  0
    4.1626    0.7177  -24.0110 H   0  0  0  0  0  0
    4.7202   -0.0051  -21.6790 H   0  0  0  0  0  0
    7.5570    2.8786  -22.5514 H   0  0  0  0  0  0
    3.8980    2.4613  -20.7715 H   0  0  0  0  0  0
    5.1988    1.4561  -19.9146 H   0  0  0  0  0  0
   -1.7331    3.5391  -26.8079 H   0  0  0  0  0  0
    0.1971    2.0160  -20.7579 H   0  0  0  0  0  0
    6.9880    0.6189  -21.8045 H   0  0  0  0  0  0
   -3.1853    3.6807  -28.2243 H   0  0  0  0  0  0
    8.1850    9.4300  -21.6320 O   0  0  0  0  0  0
    4.4360    7.0920  -21.0700 N   0  0  1  0  0  0
    7.3830   10.4200  -22.2380 N   0  0  0  0  0  0
    4.9180    8.3330  -20.3580 C   0  0  0  0  0  0
    3.4150    7.3070  -22.1570 C   0  0  0  0  0  0
    6.1020    9.0100  -21.0350 C   0  0  0  0  0  0
    5.0060   11.0110  -22.3350 C   0  0  0  0  0  0
    7.3710    8.6360  -20.9400 C   0  0  0  0  0  0
    6.1650   10.1510  -21.8750 C   0  0  0  0  0  0
    5.2733    6.5978  -21.5402 H   0  0  0  0  0  0
    5.1869    8.0781  -19.3223 H   0  0  0  0  0  0
    4.0881    9.0499  -20.2720 H   0  0  0  0  0  0
    3.8776    7.8546  -22.9913 H   0  0  0  0  0  0
    2.5837    7.9112  -21.7648 H   0  0  0  0  0  0
    4.0676   10.6153  -21.9193 H   0  0  0  0  0  0
    5.1540   12.0437  -21.9861 H   0  0  0  0  0  0
    4.9530   10.9990  -23.4337 H   0  0  0  0  0  0
    7.6381    7.7655  -20.3427 H   0  0  0  0  0  0
  1  2  2  0  0  0
  1  3  1  0  0  0
  1 34  1  0  0  0
  2  6  1  0  0  0
  2 35  1  0  0  0
  3  5  2  0  0  0
  3 27  1  0  0  0
  4  5  1  0  0  0
  4  6  2  0  0  0
  4 18  1  0  0  0
  5 24  1  0  0  0
  6 10  1  0  0  0
  7 10  2  0  0  0
  7 23  1  0  0  0
  7 33  1  0  0  0
  8 21  1  0  0  0
  8 22  1  0  0  0
  8 36  1  0  0  0
  8 37  1  0  0  0
  9 21  1  0  0  0
  9 31  1  0  0  0
  9 38  1  0  0  0
  9 39  1  0  0  0
 10 40  1  0  0  0
 11 12  1  0  0  0
 11 14  2  0  0  0
 11 15  1  0  0  0
 12 17  1  0  0  0
 12 28  2  0  0  0
 13 28  1  0  0  0
 13 29  2  0  0  0
 13 56  1  0  0  0
 14 29  1  0  0  0
 14 31  1  0  0  0
 15 30  2  0  0  0
 15 41  1  0  0  0
 16 17  2  0  0  0
 16 18  1  0  0  0
 16 30  1  0  0  0
 17 26  1  0  0  0
 18 23  2  0  0  0
 19 20  1  0  0  0
 19 31  1  0  0  0
 19 42  1  0  0  0
 19 43  1  0  0  0
 20 22  1  0  0  0
 20 32  1  0  0  0
 20 44  1  0  0  0
 21 32  1  0  0  0
 21 45  1  0  0  0
 22 46  1  0  0  0
 22 47  1  0  0  0
 23 48  1  0  0  0
 24 25  3  0  0  0
 25 49  1  0  0  0
 32 50  1  0  0  0
 33 51  1  0  0  0
 52 54  1  0  0  0
 52 59  1  0  0  0
 53 55  1  0  0  0
 53 56  1  0  0  0
 53 61  1  0  0  0
 54 60  2  0  0  0
 55 57  1  0  0  0
 55 62  1  0  0  0
 55 63  1  0  0  0
 56 64  1  0  0  0
 56 65  1  0  0  0
 57 59  2  0  0  0
 57 60  1  0  0  0
 58 60  1  0  0  0
 58 66  1  0  0  0
 58 67  1  0  0  0
 58 68  1  0  0  0
 59 69  1  0  0  0
M  END
> <s_m_entry_id>
484

> <s_m_entry_name>
000000326.1

> <s_m_Source_Path>
/Users/zaksoul/Documents/3r_UNI/2nd_SEMESTER/BSC/FRAG_RECON/RESULTS/2

> <s_m_Source_File>
000000326.mol2

> <i_m_Source_File_Index>
1

$$$$
No_0_344
                    3D
 Schrodinger Suite 2022-4.
 69 75  0  0  1  0            999 V2000
   -5.1330    3.6960  -21.8010 C   0  0  0  0  0  0
   -5.4060    3.8910  -23.1340 C   0  0  0  0  0  0
   -3.8940    3.4380  -21.4670 C   0  0  0  0  0  0
   -3.0140    3.5720  -23.6370 C   0  0  0  0  0  0
   -2.8460    3.3210  -22.2190 C   0  0  0  0  0  0
   -4.3630    3.8400  -24.1500 C   0  0  0  0  0  0
   -3.6200    3.8700  -26.3520 C   0  0  0  0  0  0
    6.1350    3.0920  -21.1410 C   0  0  0  0  0  0
    5.9830    3.2450  -23.6890 C   0  0  0  0  0  0
   -4.6210    3.9740  -25.4830 C   0  0  0  0  0  0
    2.2000    3.8020  -23.6840 C   0  0  0  0  0  0
    1.3830    4.9110  -23.3760 C   0  0  0  0  0  0
    3.1870    6.0990  -22.7000 C   0  0  0  0  0  0
    3.6020    3.9880  -23.3770 C   0  0  0  0  0  0
    1.6480    2.6880  -24.3470 C   0  0  0  0  0  0
   -0.4770    3.5060  -24.2220 C   0  0  0  0  0  0
    0.0550    4.7220  -23.6200 C   0  0  0  0  0  0
   -1.9320    3.5170  -24.5690 C   0  0  0  0  0  0
    4.2040    1.4880  -23.1000 C   0  0  0  0  0  0
    5.1430    1.1250  -21.9590 C   0  0  2  0  0  0
    6.7360    2.6640  -22.4980 C   0  0  2  0  0  0
    5.1330    2.1210  -20.7880 C   0  0  0  0  0  0
   -2.2650    3.6830  -25.9940 C   0  0  0  0  0  0
   -1.5000    2.9020  -21.6290 C   0  0  0  0  0  0
   -0.4670    2.5500  -21.1300 C   0  0  0  0  0  0
   -0.7820    5.7680  -23.2670 F   0  0  0  0  0  0
   -3.6770    3.1890  -20.0880 F   0  0  0  0  0  0
    1.8650    6.0660  -22.8420 N   0  0  0  0  0  0
    4.0800    5.1360  -22.9290 N   0  0  0  0  0  0
    0.3400    2.6030  -24.6460 N   0  0  0  0  0  0
    4.5170    2.9390  -23.5640 N   0  0  0  0  0  0
    6.5470    1.1910  -22.4490 N   0  0  1  0  0  0
   -3.8000    3.8910  -27.7410 O   0  0  0  0  0  0
   -5.9307    3.7572  -21.0695 H   0  0  0  0  0  0
   -6.4218    4.0897  -23.4562 H   0  0  0  0  0  0
    5.6655    4.0814  -21.2440 H   0  0  0  0  0  0
    6.9253    3.0970  -20.3759 H   0  0  0  0  0  0
    6.3725    2.8040  -24.6184 H   0  0  0  0  0  0
    6.1282    4.3350  -23.7182 H   0  0  0  0  0  0
   -5.6329    4.1625  -25.8230 H   0  0  0  0  0  0
    2.2835    1.8588  -24.6361 H   0  0  0  0  0  0
    3.1630    1.4315  -22.7490 H   0  0  0  0  0  0
    4.3605    0.7925  -23.9378 H   0  0  0  0  0  0
    4.9189    0.1116  -21.5946 H   0  0  0  0  0  0
    7.8048    2.9193  -22.5485 H   0  0  0  0  0  0
    4.1508    2.6136  -20.7365 H   0  0  0  0  0  0
    5.4377    1.6025  -19.8670 H   0  0  0  0  0  0
   -1.4996    3.6649  -26.7614 H   0  0  0  0  0  0
    0.4420    2.2400  -20.6910 H   0  0  0  0  0  0
    7.1973    0.6883  -21.7484 H   0  0  0  0  0  0
   -2.9577    3.8029  -28.1715 H   0  0  0  0  0  0
    7.3890   10.7640  -24.0240 O   0  0  0  0  0  0
    5.2520    7.3620  -22.1030 N   0  0  1  0  0  0
    6.2720   11.5550  -23.6830 N   0  0  0  0  0  0
    5.9240    8.5600  -21.4760 C   0  0  0  0  0  0
    3.7520    7.4350  -22.2290 C   0  0  0  0  0  0
    6.2790    9.6560  -22.4710 C   0  0  0  0  0  0
    4.3630   11.4230  -22.1490 C   0  0  0  0  0  0
    7.3340    9.6650  -23.2750 C   0  0  0  0  0  0
    5.6350   10.8840  -22.7720 C   0  0  0  0  0  0
    5.6290    7.2200  -23.1050 H   0  0  0  0  0  0
    6.8343    8.2342  -20.9514 H   0  0  0  0  0  0
    5.2734    8.9757  -20.6925 H   0  0  0  0  0  0
    3.4830    8.2210  -22.9500 H   0  0  0  0  0  0
    3.3148    7.6941  -21.2535 H   0  0  0  0  0  0
    3.9848   10.7057  -21.4057 H   0  0  0  0  0  0
    4.5740   12.3840  -21.6570 H   0  0  0  0  0  0
    3.6060   11.5720  -22.9330 H   0  0  0  0  0  0
    8.0324    8.8295  -23.2670 H   0  0  0  0  0  0
  1  2  2  0  0  0
  1  3  1  0  0  0
  1 34  1  0  0  0
  2  6  1  0  0  0
  2 35  1  0  0  0
  3  5  2  0  0  0
  3 27  1  0  0  0
  4  5  1  0  0  0
  4  6  2  0  0  0
  4 18  1  0  0  0
  5 24  1  0  0  0
  6 10  1  0  0  0
  7 10  2  0  0  0
  7 23  1  0  0  0
  7 33  1  0  0  0
  8 21  1  0  0  0
  8 22  1  0  0  0
  8 36  1  0  0  0
  8 37  1  0  0  0
  9 21  1  0  0  0
  9 31  1  0  0  0
  9 38  1  0  0  0
  9 39  1  0  0  0
 10 40  1  0  0  0
 11 12  1  0  0  0
 11 14  2  0  0  0
 11 15  1  0  0  0
 12 17  1  0  0  0
 12 28  2  0  0  0
 13 28  1  0  0  0
 13 29  2  0  0  0
 13 56  1  0  0  0
 14 29  1  0  0  0
 14 31  1  0  0  0
 15 30  2  0  0  0
 15 41  1  0  0  0
 16 17  2  0  0  0
 16 18  1  0  0  0
 16 30  1  0  0  0
 17 26  1  0  0  0
 18 23  2  0  0  0
 19 20  1  0  0  0
 19 31  1  0  0  0
 19 42  1  0  0  0
 19 43  1  0  0  0
 20 22  1  0  0  0
 20 32  1  0  0  0
 20 44  1  0  0  0
 21 32  1  0  0  0
 21 45  1  0  0  0
 22 46  1  0  0  0
 22 47  1  0  0  0
 23 48  1  0  0  0
 24 25  3  0  0  0
 25 49  1  0  0  0
 32 50  1  0  0  0
 33 51  1  0  0  0
 52 54  1  0  0  0
 52 59  1  0  0  0
 53 55  1  0  0  0
 53 56  1  0  0  0
 53 61  1  0  0  0
 54 60  2  0  0  0
 55 57  1  0  0  0
 55 62  1  0  0  0
 55 63  1  0  0  0
 56 64  1  0  0  0
 56 65  1  0  0  0
 57 59  2  0  0  0
 57 60  1  0  0  0
 58 60  1  0  0  0
 58 66  1  0  0  0
 58 67  1  0  0  0
 58 68  1  0  0  0
 59 69  1  0  0  0
M  END
> <s_m_entry_id>
485

> <s_m_entry_name>
000000327.1

> <s_m_Source_Path>
/Users/zaksoul/Documents/3r_UNI/2nd_SEMESTER/BSC/FRAG_RECON/RESULTS/2

> <s_m_Source_File>
000000327.mol2

> <i_m_Source_File_Index>
1

$$$$
No_0_345
                    3D
 Schrodinger Suite 2022-4.
 74 80  0  0  1  0            999 V2000
   -4.9400    3.7490  -22.1680 C   0  0  0  0  0  0
   -5.1930    3.9270  -23.5070 C   0  0  0  0  0  0
   -3.7060    3.4920  -21.8140 C   0  0  0  0  0  0
   -2.7950    3.5940  -23.9730 C   0  0  0  0  0  0
   -2.6480    3.3620  -22.5490 C   0  0  0  0  0  0
   -4.1370    3.8590  -24.5080 C   0  0  0  0  0  0
   -3.3630    3.8560  -26.7000 C   0  0  0  0  0  0
    6.3170    3.1180  -21.3450 C   0  0  0  0  0  0
    6.2000    3.2370  -23.8960 C   0  0  0  0  0  0
   -4.3760    3.9760  -25.8460 C   0  0  0  0  0  0
    2.4190    3.8060  -23.9510 C   0  0  0  0  0  0
    1.6020    4.9210  -23.6690 C   0  0  0  0  0  0
    3.4010    6.1140  -22.9850 C   0  0  0  0  0  0
    3.8180    3.9920  -23.6280 C   0  0  0  0  0  0
    1.8720    2.6860  -24.6070 C   0  0  0  0  0  0
   -0.2510    3.5110  -24.5220 C   0  0  0  0  0  0
    0.2770    4.7340  -23.9290 C   0  0  0  0  0  0
   -1.7010    3.5220  -24.8890 C   0  0  0  0  0  0
    4.4070    1.4940  -23.3080 C   0  0  0  0  0  0
    5.3290    1.1430  -22.1500 C   0  0  2  0  0  0
    6.9350    2.6700  -22.6870 C   0  0  2  0  0  0
    5.3070    2.1550  -20.9920 C   0  0  0  0  0  0
   -2.0140    3.6700  -26.3210 C   0  0  0  0  0  0
   -1.3110    2.9470  -21.9350 C   0  0  0  0  0  0
   -0.2870    2.5980  -21.4170 C   0  0  0  0  0  0
   -0.5620    5.7870  -23.6020 F   0  0  0  0  0  0
   -3.5080    3.2610  -20.4280 F   0  0  0  0  0  0
    2.0810    6.0830  -23.1440 N   0  0  0  0  0  0
    4.2940    5.1440  -23.1880 N   0  0  0  0  0  0
    0.5680    2.6000  -24.9220 N   0  0  0  0  0  0
    4.7320    2.9370  -23.7870 N   0  0  0  0  0  0
    6.7400    1.1980  -22.6210 N   0  0  1  0  0  0
   -3.5240    3.8590  -28.0910 O   0  0  0  0  0  0
   -5.7471    3.8233  -21.4482 H   0  0  0  0  0  0
   -6.2037    4.1247  -23.8452 H   0  0  0  0  0  0
    5.8517    4.1072  -21.4671 H   0  0  0  0  0  0
    7.0963    3.1311  -20.5688 H   0  0  0  0  0  0
    6.6005    2.7821  -24.8140 H   0  0  0  0  0  0
    6.3492    4.3260  -23.9384 H   0  0  0  0  0  0
   -5.3823    4.1626  -26.2032 H   0  0  0  0  0  0
    2.5091    1.8512  -24.8759 H   0  0  0  0  0  0
    3.3611    1.4455  -22.9708 H   0  0  0  0  0  0
    4.5724    0.7869  -24.1342 H   0  0  0  0  0  0
    5.0958    0.1357  -21.7745 H   0  0  0  0  0  0
    8.0051    2.9214  -22.7274 H   0  0  0  0  0  0
    4.3259    2.6516  -20.9617 H   0  0  0  0  0  0
    5.5966    1.6484  -20.0595 H   0  0  0  0  0  0
   -1.2373    3.6399  -27.0766 H   0  0  0  0  0  0
    0.6151    2.2910  -20.9619 H   0  0  0  0  0  0
    7.3792    0.7031  -21.9048 H   0  0  0  0  0  0
   -2.6761    3.7630  -28.5085 H   0  0  0  0  0  0
    8.3460    9.4670  -21.2300 O   0  0  0  0  0  0
    4.2860    7.4340  -21.0530 N   0  3  0  0  0  0
    4.8050    8.7310  -20.4830 C   0  0  0  0  0  0
    3.9640    7.4540  -22.5240 C   0  0  0  0  0  0
    6.3130    8.8750  -20.6040 C   0  0  0  0  0  0
    7.2760    8.2610  -19.7650 C   0  0  0  0  0  0
    7.0370    9.5900  -21.4630 C   0  0  0  0  0  0
    9.8070    8.2760  -19.5860 C   0  0  0  0  0  0
    6.5120   10.4690  -22.5800 C   0  0  0  0  0  0
    8.4690    8.6560  -20.1830 C   0  0  0  0  0  0
    3.4690    7.1470  -20.5370 H   0  0  0  0  0  0
    4.9501    6.6989  -20.8670 H   0  0  0  0  0  0
    4.5130    8.8070  -19.4252 H   0  0  0  0  0  0
    4.3151    9.5748  -20.9909 H   0  0  0  0  0  0
    4.8754    7.6841  -23.0953 H   0  0  0  0  0  0
    3.2302    8.2477  -22.7279 H   0  0  0  0  0  0
    6.9552    7.6045  -18.9576 H   0  0  0  0  0  0
    9.6500    7.5981  -18.7341 H   0  0  0  0  0  0
   10.4180    7.7700  -20.3480 H   0  0  0  0  0  0
   10.3272    9.1824  -19.2428 H   0  0  0  0  0  0
    5.4129   10.4260  -22.5950 H   0  0  0  0  0  0
    6.8351   11.5073  -22.4140 H   0  0  0  0  0  0
    6.9060   10.1120  -23.5430 H   0  0  0  0  0  0
  1  2  2  0  0  0
  1  3  1  0  0  0
  1 34  1  0  0  0
  2  6  1  0  0  0
  2 35  1  0  0  0
  3  5  2  0  0  0
  3 27  1  0  0  0
  4  5  1  0  0  0
  4  6  2  0  0  0
  4 18  1  0  0  0
  5 24  1  0  0  0
  6 10  1  0  0  0
  7 10  2  0  0  0
  7 23  1  0  0  0
  7 33  1  0  0  0
  8 21  1  0  0  0
  8 22  1  0  0  0
  8 36  1  0  0  0
  8 37  1  0  0  0
  9 21  1  0  0  0
  9 31  1  0  0  0
  9 38  1  0  0  0
  9 39  1  0  0  0
 10 40  1  0  0  0
 11 12  1  0  0  0
 11 14  2  0  0  0
 11 15  1  0  0  0
 12 17  1  0  0  0
 12 28  2  0  0  0
 13 28  1  0  0  0
 13 29  2  0  0  0
 13 55  1  0  0  0
 14 29  1  0  0  0
 14 31  1  0  0  0
 15 30  2  0  0  0
 15 41  1  0  0  0
 16 17  2  0  0  0
 16 18  1  0  0  0
 16 30  1  0  0  0
 17 26  1  0  0  0
 18 23  2  0  0  0
 19 20  1  0  0  0
 19 31  1  0  0  0
 19 42  1  0  0  0
 19 43  1  0  0  0
 20 22  1  0  0  0
 20 32  1  0  0  0
 20 44  1  0  0  0
 21 32  1  0  0  0
 21 45  1  0  0  0
 22 46  1  0  0  0
 22 47  1  0  0  0
 23 48  1  0  0  0
 24 25  3  0  0  0
 25 49  1  0  0  0
 32 50  1  0  0  0
 33 51  1  0  0  0
 52 58  1  0  0  0
 52 61  1  0  0  0
 53 54  1  0  0  0
 53 55  1  0  0  0
 53 62  1  0  0  0
 53 63  1  0  0  0
 54 56  1  0  0  0
 54 64  1  0  0  0
 54 65  1  0  0  0
 55 66  1  0  0  0
 55 67  1  0  0  0
 56 57  1  0  0  0
 56 58  2  0  0  0
 57 61  2  0  0  0
 57 68  1  0  0  0
 58 60  1  0  0  0
 59 61  1  0  0  0
 59 69  1  0  0  0
 59 70  1  0  0  0
 59 71  1  0  0  0
 60 72  1  0  0  0
 60 73  1  0  0  0
 60 74  1  0  0  0
M  CHG  1  53   1
M  END
> <s_m_entry_id>
486

> <s_m_entry_name>
000000328.1

> <s_m_Source_Path>
/Users/zaksoul/Documents/3r_UNI/2nd_SEMESTER/BSC/FRAG_RECON/RESULTS/2

> <s_m_Source_File>
000000328.mol2

> <i_m_Source_File_Index>
1

$$$$
No_0_346
                    3D
 Schrodinger Suite 2022-4.
 74 80  0  0  1  0            999 V2000
   -5.1810    3.6090  -21.8530 C   0  0  0  0  0  0
   -5.4520    3.8050  -23.1860 C   0  0  0  0  0  0
   -3.9420    3.3510  -21.5190 C   0  0  0  0  0  0
   -3.0590    3.4860  -23.6870 C   0  0  0  0  0  0
   -2.8930    3.2340  -22.2690 C   0  0  0  0  0  0
   -4.4090    3.7540  -24.2010 C   0  0  0  0  0  0
   -3.6630    3.7850  -26.4030 C   0  0  0  0  0  0
    6.0870    3.0010  -21.1820 C   0  0  0  0  0  0
    5.9380    3.1560  -23.7310 C   0  0  0  0  0  0
   -4.6650    3.8890  -25.5350 C   0  0  0  0  0  0
    2.1540    3.7130  -23.7290 C   0  0  0  0  0  0
    1.3370    4.8230  -23.4210 C   0  0  0  0  0  0
    3.1410    6.0110  -22.7430 C   0  0  0  0  0  0
    3.5570    3.8990  -23.4210 C   0  0  0  0  0  0
    1.6030    2.6010  -24.3930 C   0  0  0  0  0  0
   -0.5220    3.4190  -24.2700 C   0  0  0  0  0  0
    0.0100    4.6350  -23.6670 C   0  0  0  0  0  0
   -1.9770    3.4300  -24.6180 C   0  0  0  0  0  0
    4.1570    1.3990  -23.1440 C   0  0  0  0  0  0
    5.0950    1.0350  -22.0030 C   0  0  2  0  0  0
    6.6890    2.5740  -22.5390 C   0  0  2  0  0  0
    5.0840    2.0310  -20.8310 C   0  0  0  0  0  0
   -2.3080    3.5970  -26.0440 C   0  0  0  0  0  0
   -1.5470    2.8150  -21.6780 C   0  0  0  0  0  0
   -0.5150    2.4620  -21.1780 C   0  0  0  0  0  0
   -0.8280    5.6800  -23.3140 F   0  0  0  0  0  0
   -3.7260    3.1020  -20.1390 F   0  0  0  0  0  0
    1.8200    5.9780  -22.8860 N   0  0  0  0  0  0
    4.0350    5.0470  -22.9720 N   0  0  0  0  0  0
    0.2950    2.5160  -24.6930 N   0  0  0  0  0  0
    4.4710    2.8500  -23.6070 N   0  0  0  0  0  0
    6.5000    1.1010  -22.4910 N   0  0  1  0  0  0
   -3.8410    3.8060  -27.7920 O   0  0  0  0  0  0
   -5.9796    3.6712  -21.1226 H   0  0  0  0  0  0
   -6.4675    4.0037  -23.5091 H   0  0  0  0  0  0
    5.6179    3.9906  -21.2849 H   0  0  0  0  0  0
    6.8763    3.0060  -20.4159 H   0  0  0  0  0  0
    6.3275    2.7150  -24.6604 H   0  0  0  0  0  0
    6.0833    4.2460  -23.7593 H   0  0  0  0  0  0
   -5.6765    4.0776  -25.8762 H   0  0  0  0  0  0
    2.2385    1.7718  -24.6821 H   0  0  0  0  0  0
    3.1157    1.3435  -22.7939 H   0  0  0  0  0  0
    4.3144    0.7047  -23.9826 H   0  0  0  0  0  0
    4.8700    0.0218  -21.6387 H   0  0  0  0  0  0
    7.7578    2.8293  -22.5885 H   0  0  0  0  0  0
    4.1018    2.5236  -20.7805 H   0  0  0  0  0  0
    5.3877    1.5123  -19.9097 H   0  0  0  0  0  0
   -1.5411    3.5789  -26.8099 H   0  0  0  0  0  0
    0.3934    2.1519  -20.7378 H   0  0  0  0  0  0
    7.1492    0.5983  -21.7894 H   0  0  0  0  0  0
   -2.9984    3.7179  -28.2217 H   0  0  0  0  0  0
    8.1230    9.6300  -21.8110 O   0  0  0  0  0  0
    4.3780    7.2110  -20.9300 N   0  3  0  0  0  0
    4.9300    8.4890  -20.3480 C   0  0  0  0  0  0
    3.7060    7.3460  -22.2710 C   0  0  0  0  0  0
    6.3490    8.7870  -20.8010 C   0  0  0  0  0  0
    7.5280    8.1880  -20.2910 C   0  0  0  0  0  0
    6.7910    9.6500  -21.7140 C   0  0  0  0  0  0
   10.0190    8.4260  -20.7110 C   0  0  0  0  0  0
    5.9510   10.5810  -22.5640 C   0  0  0  0  0  0
    8.5540    8.7340  -20.9270 C   0  0  0  0  0  0
    3.7333    6.7982  -20.2743 H   0  0  0  0  0  0
    5.1173    6.5288  -20.9940 H   0  0  0  0  0  0
    4.9010    8.4320  -19.2499 H   0  0  0  0  0  0
    4.2738    9.3282  -20.6221 H   0  0  0  0  0  0
    4.4325    7.7178  -23.0085 H   0  0  0  0  0  0
    2.8927    8.0833  -22.2010 H   0  0  0  0  0  0
    7.4600    7.4265  -19.5155 H   0  0  0  0  0  0
   10.1220    7.6551  -19.9331 H   0  0  0  0  0  0
   10.4590    8.0590  -21.6500 H   0  0  0  0  0  0
   10.5433    9.3395  -20.3938 H   0  0  0  0  0  0
    4.8870   10.4350  -22.3260 H   0  0  0  0  0  0
    6.2332   11.6236  -22.3559 H   0  0  0  0  0  0
    6.1210   10.3609  -23.6283 H   0  0  0  0  0  0
  1  2  2  0  0  0
  1  3  1  0  0  0
  1 34  1  0  0  0
  2  6  1  0  0  0
  2 35  1  0  0  0
  3  5  2  0  0  0
  3 27  1  0  0  0
  4  5  1  0  0  0
  4  6  2  0  0  0
  4 18  1  0  0  0
  5 24  1  0  0  0
  6 10  1  0  0  0
  7 10  2  0  0  0
  7 23  1  0  0  0
  7 33  1  0  0  0
  8 21  1  0  0  0
  8 22  1  0  0  0
  8 36  1  0  0  0
  8 37  1  0  0  0
  9 21  1  0  0  0
  9 31  1  0  0  0
  9 38  1  0  0  0
  9 39  1  0  0  0
 10 40  1  0  0  0
 11 12  1  0  0  0
 11 14  2  0  0  0
 11 15  1  0  0  0
 12 17  1  0  0  0
 12 28  2  0  0  0
 13 28  1  0  0  0
 13 29  2  0  0  0
 13 55  1  0  0  0
 14 29  1  0  0  0
 14 31  1  0  0  0
 15 30  2  0  0  0
 15 41  1  0  0  0
 16 17  2  0  0  0
 16 18  1  0  0  0
 16 30  1  0  0  0
 17 26  1  0  0  0
 18 23  2  0  0  0
 19 20  1  0  0  0
 19 31  1  0  0  0
 19 42  1  0  0  0
 19 43  1  0  0  0
 20 22  1  0  0  0
 20 32  1  0  0  0
 20 44  1  0  0  0
 21 32  1  0  0  0
 21 45  1  0  0  0
 22 46  1  0  0  0
 22 47  1  0  0  0
 23 48  1  0  0  0
 24 25  3  0  0  0
 25 49  1  0  0  0
 32 50  1  0  0  0
 33 51  1  0  0  0
 52 58  1  0  0  0
 52 61  1  0  0  0
 53 54  1  0  0  0
 53 55  1  0  0  0
 53 62  1  0  0  0
 53 63  1  0  0  0
 54 56  1  0  0  0
 54 64  1  0  0  0
 54 65  1  0  0  0
 55 66  1  0  0  0
 55 67  1  0  0  0
 56 57  1  0  0  0
 56 58  2  0  0  0
 57 61  2  0  0  0
 57 68  1  0  0  0
 58 60  1  0  0  0
 59 61  1  0  0  0
 59 69  1  0  0  0
 59 70  1  0  0  0
 59 71  1  0  0  0
 60 72  1  0  0  0
 60 73  1  0  0  0
 60 74  1  0  0  0
M  CHG  1  53   1
M  END
> <s_m_entry_id>
487

> <s_m_entry_name>
000000329.1

> <s_m_Source_Path>
/Users/zaksoul/Documents/3r_UNI/2nd_SEMESTER/BSC/FRAG_RECON/RESULTS/2

> <s_m_Source_File>
000000329.mol2

> <i_m_Source_File_Index>
1

$$$$
No_0_347
                    3D
 Schrodinger Suite 2022-4.
 74 80  0  0  1  0            999 V2000
   -5.1360    3.4650  -22.0680 C   0  0  0  0  0  0
   -5.4000    3.6610  -23.4030 C   0  0  0  0  0  0
   -3.9000    3.1990  -21.7280 C   0  0  0  0  0  0
   -3.0070    3.3240  -23.8930 C   0  0  0  0  0  0
   -2.8490    3.0730  -22.4730 C   0  0  0  0  0  0
   -4.3520    3.6010  -24.4130 C   0  0  0  0  0  0
   -3.5960    3.6230  -26.6110 C   0  0  0  0  0  0
    6.1240    2.7750  -21.3470 C   0  0  0  0  0  0
    5.9870    2.9280  -23.8960 C   0  0  0  0  0  0
   -4.6020    3.7360  -25.7480 C   0  0  0  0  0  0
    2.2080    3.5130  -23.9120 C   0  0  0  0  0  0
    1.3980    4.6280  -23.6090 C   0  0  0  0  0  0
    3.2080    5.8040  -22.9240 C   0  0  0  0  0  0
    3.6100    3.6890  -23.5980 C   0  0  0  0  0  0
    1.6510    2.4040  -24.5770 C   0  0  0  0  0  0
   -0.4680    3.2370  -24.4640 C   0  0  0  0  0  0
    0.0700    4.4500  -23.8600 C   0  0  0  0  0  0
   -1.9210    3.2590  -24.8180 C   0  0  0  0  0  0
    4.1910    1.1840  -23.3140 C   0  0  0  0  0  0
    5.1210    0.8150  -22.1690 C   0  0  2  0  0  0
    6.7290    2.3420  -22.7000 C   0  0  2  0  0  0
    5.1130    1.8130  -20.9980 C   0  0  0  0  0  0
   -2.2440    3.4270  -26.2460 C   0  0  0  0  0  0
   -1.5090    2.6440  -21.8760 C   0  0  0  0  0  0
   -0.4820    2.2850  -21.3710 C   0  0  0  0  0  0
   -0.7610    5.5020  -23.5120 F   0  0  0  0  0  0
   -3.6920    2.9490  -20.3470 F   0  0  0  0  0  0
    1.8860    5.7810  -23.0730 N   0  0  0  0  0  0
    4.0950    4.8330  -23.1480 N   0  0  0  0  0  0
    0.3440    2.3280  -24.8830 N   0  0  0  0  0  0
    4.5180    2.6330  -23.7780 N   0  0  0  0  0  0
    6.5290    0.8700  -22.6510 N   0  0  1  0  0  0
   -3.7690    3.6450  -28.0010 O   0  0  0  0  0  0
   -5.9372    3.5333  -21.3411 H   0  0  0  0  0  0
   -6.4127    3.8668  -23.7302 H   0  0  0  0  0  0
    5.6628    3.7680  -21.4530 H   0  0  0  0  0  0
    6.9098    2.7750  -20.5773 H   0  0  0  0  0  0
    6.3777    2.4827  -24.8229 H   0  0  0  0  0  0
    6.1414    4.0167  -23.9243 H   0  0  0  0  0  0
   -5.6104    3.9317  -26.0942 H   0  0  0  0  0  0
    2.2818    1.5697  -24.8618 H   0  0  0  0  0  0
    3.1476    1.1366  -22.9689 H   0  0  0  0  0  0
    4.3464    0.4879  -24.1514 H   0  0  0  0  0  0
    4.8869   -0.1959  -21.8038 H   0  0  0  0  0  0
    7.7999    2.5891  -22.7454 H   0  0  0  0  0  0
    4.1340    2.3126  -20.9526 H   0  0  0  0  0  0
    5.4076    1.2924  -20.0749 H   0  0  0  0  0  0
   -1.4747    3.4019  -27.0093 H   0  0  0  0  0  0
    0.4221    1.9680  -20.9269 H   0  0  0  0  0  0
    7.1716    0.3632  -21.9463 H   0  0  0  0  0  0
   -2.9249    3.5500  -28.4265 H   0  0  0  0  0  0
    8.1310    9.5880  -22.4400 O   0  0  0  0  0  0
    4.6300    6.9590  -21.2200 N   0  3  0  0  0  0
    5.2060    8.2260  -20.6400 C   0  0  0  0  0  0
    3.7800    7.1360  -22.4510 C   0  0  0  0  0  0
    6.5410    8.6130  -21.2570 C   0  0  0  0  0  0
    7.7980    8.0400  -20.9430 C   0  0  0  0  0  0
    6.8240    9.5430  -22.1680 C   0  0  0  0  0  0
   10.2000    8.4120  -21.6720 C   0  0  0  0  0  0
    5.8430   10.4800  -22.8420 C   0  0  0  0  0  0
    8.7080    8.6650  -21.6750 C   0  0  0  0  0  0
    4.0940    6.4820  -20.5120 H   0  0  0  0  0  0
    5.3784    6.3147  -21.4221 H   0  0  0  0  0  0
    5.3270    8.1090  -19.5530 H   0  0  0  0  0  0
    4.4890    9.0490  -20.7760 H   0  0  0  0  0  0
    4.3869    7.5799  -23.2539 H   0  0  0  0  0  0
    2.9566    7.8314  -22.2309 H   0  0  0  0  0  0
    7.8630    7.2352  -20.2122 H   0  0  0  0  0  0
   10.4350    7.6061  -20.9611 H   0  0  0  0  0  0
   10.5240    8.1170  -22.6810 H   0  0  0  0  0  0
   10.7277    9.3294  -21.3722 H   0  0  0  0  0  0
    4.8266   10.2729  -22.4759 H   0  0  0  0  0  0
    6.1111   11.5215  -22.6109 H   0  0  0  0  0  0
    5.8780   10.3261  -23.9306 H   0  0  0  0  0  0
  1  2  2  0  0  0
  1  3  1  0  0  0
  1 34  1  0  0  0
  2  6  1  0  0  0
  2 35  1  0  0  0
  3  5  2  0  0  0
  3 27  1  0  0  0
  4  5  1  0  0  0
  4  6  2  0  0  0
  4 18  1  0  0  0
  5 24  1  0  0  0
  6 10  1  0  0  0
  7 10  2  0  0  0
  7 23  1  0  0  0
  7 33  1  0  0  0
  8 21  1  0  0  0
  8 22  1  0  0  0
  8 36  1  0  0  0
  8 37  1  0  0  0
  9 21  1  0  0  0
  9 31  1  0  0  0
  9 38  1  0  0  0
  9 39  1  0  0  0
 10 40  1  0  0  0
 11 12  1  0  0  0
 11 14  2  0  0  0
 11 15  1  0  0  0
 12 17  1  0  0  0
 12 28  2  0  0  0
 13 28  1  0  0  0
 13 29  2  0  0  0
 13 55  1  0  0  0
 14 29  1  0  0  0
 14 31  1  0  0  0
 15 30  2  0  0  0
 15 41  1  0  0  0
 16 17  2  0  0  0
 16 18  1  0  0  0
 16 30  1  0  0  0
 17 26  1  0  0  0
 18 23  2  0  0  0
 19 20  1  0  0  0
 19 31  1  0  0  0
 19 42  1  0  0  0
 19 43  1  0  0  0
 20 22  1  0  0  0
 20 32  1  0  0  0
 20 44  1  0  0  0
 21 32  1  0  0  0
 21 45  1  0  0  0
 22 46  1  0  0  0
 22 47  1  0  0  0
 23 48  1  0  0  0
 24 25  3  0  0  0
 25 49  1  0  0  0
 32 50  1  0  0  0
 33 51  1  0  0  0
 52 58  1  0  0  0
 52 61  1  0  0  0
 53 54  1  0  0  0
 53 55  1  0  0  0
 53 62  1  0  0  0
 53 63  1  0  0  0
 54 56  1  0  0  0
 54 64  1  0  0  0
 54 65  1  0  0  0
 55 66  1  0  0  0
 55 67  1  0  0  0
 56 57  1  0  0  0
 56 58  2  0  0  0
 57 61  2  0  0  0
 57 68  1  0  0  0
 58 60  1  0  0  0
 59 61  1  0  0  0
 59 69  1  0  0  0
 59 70  1  0  0  0
 59 71  1  0  0  0
 60 72  1  0  0  0
 60 73  1  0  0  0
 60 74  1  0  0  0
M  CHG  1  53   1
M  END
> <s_m_entry_id>
488

> <s_m_entry_name>
000000330.1

> <s_m_Source_Path>
/Users/zaksoul/Documents/3r_UNI/2nd_SEMESTER/BSC/FRAG_RECON/RESULTS/2

> <s_m_Source_File>
000000330.mol2

> <i_m_Source_File_Index>
1

$$$$
No_0_348
                    3D
 Schrodinger Suite 2022-4.
 72 78  0  0  1  0            999 V2000
   -5.0100    3.6730  -22.1600 C   0  0  0  0  0  0
   -5.2710    3.8240  -23.5020 C   0  0  0  0  0  0
   -3.7790    3.3990  -21.8100 C   0  0  0  0  0  0
   -2.8840    3.4290  -23.9770 C   0  0  0  0  0  0
   -2.7300    3.2280  -22.5490 C   0  0  0  0  0  0
   -4.2240    3.7100  -24.5080 C   0  0  0  0  0  0
   -3.4680    3.6390  -26.7050 C   0  0  0  0  0  0
    6.2370    2.8260  -21.4060 C   0  0  0  0  0  0
    6.1030    2.8870  -23.9590 C   0  0  0  0  0  0
   -4.4710    3.7990  -25.8480 C   0  0  0  0  0  0
    2.3340    3.5330  -23.9990 C   0  0  0  0  0  0
    1.5420    4.6710  -23.7380 C   0  0  0  0  0  0
    3.3710    5.8420  -23.0960 C   0  0  0  0  0  0
    3.7390    3.6970  -23.6910 C   0  0  0  0  0  0
    1.7590    2.4090  -24.6240 C   0  0  0  0  0  0
   -0.3460    3.2810  -24.5430 C   0  0  0  0  0  0
    0.2120    4.5060  -23.9840 C   0  0  0  0  0  0
   -1.7990    3.3130  -24.8990 C   0  0  0  0  0  0
    4.2790    1.1950  -23.3150 C   0  0  0  0  0  0
    5.2020    0.8530  -22.1560 C   0  0  2  0  0  0
    6.8350    2.3330  -22.7420 C   0  0  2  0  0  0
    5.2100    1.8930  -21.0230 C   0  0  0  0  0  0
   -2.1190    3.4330  -26.3320 C   0  0  0  0  0  0
   -1.3970    2.8000  -21.9360 C   0  0  0  0  0  0
   -0.3760    2.4420  -21.4170 C   0  0  0  0  0  0
   -0.6020    5.5840  -23.6750 F   0  0  0  0  0  0
   -3.5750    3.1970  -20.4200 F   0  0  0  0  0  0
    2.0490    5.8350  -23.2450 N   0  0  0  0  0  0
    4.2420    4.8490  -23.2830 N   0  0  0  0  0  0
    0.4510    2.3430  -24.9270 N   0  0  0  0  0  0
    4.6290    2.6200  -23.8320 N   0  0  0  0  0  0
    6.6110    0.8680  -22.6390 N   0  0  1  0  0  0
   -3.6390    3.6120  -28.0950 O   0  0  0  0  0  0
   -5.8104    3.7805  -21.4369 H   0  0  0  0  0  0
   -6.2802    4.0339  -23.8374 H   0  0  0  0  0  0
    5.7917    3.8216  -21.5494 H   0  0  0  0  0  0
    7.0233    2.8411  -20.6369 H   0  0  0  0  0  0
    6.4863    2.4018  -24.8688 H   0  0  0  0  0  0
    6.2746    3.9714  -24.0277 H   0  0  0  0  0  0
   -5.4761    3.9988  -26.2014 H   0  0  0  0  0  0
    2.3764    1.5547  -24.8770 H   0  0  0  0  0  0
    3.2347    1.1778  -22.9699 H   0  0  0  0  0  0
    4.4232    0.4658  -24.1259 H   0  0  0  0  0  0
    4.9516   -0.1403  -21.7552 H   0  0  0  0  0  0
    7.9098    2.5611  -22.7955 H   0  0  0  0  0  0
    4.2399    2.4109  -20.9968 H   0  0  0  0  0  0
    5.4967    1.4024  -20.0811 H   0  0  0  0  0  0
   -1.3499    3.3677  -27.0931 H   0  0  0  0  0  0
    0.5232    2.1279  -20.9609 H   0  0  0  0  0  0
    7.2453    0.3770  -21.9159 H   0  0  0  0  0  0
   -2.7968    3.4873  -28.5166 H   0  0  0  0  0  0
    7.7760    9.6110  -21.3030 O   0  0  0  0  0  0
    3.9570    7.3210  -21.1740 N   0  0  1  0  0  0
    7.1200   10.5700  -22.1020 N   0  0  0  0  0  0
    4.2660    8.6970  -20.6400 C   0  0  0  0  0  0
    3.9650    7.1810  -22.6720 C   0  0  0  0  0  0
    5.6210    9.2450  -21.0660 C   0  0  0  0  0  0
    5.8550   10.3310  -21.9440 C   0  0  0  0  0  0
    6.8430    8.8620  -20.7120 C   0  0  0  0  0  0
    7.2100    7.7400  -19.7630 C   0  0  0  0  0  0
    4.7910   11.1600  -22.6330 C   0  0  0  0  0  0
    4.6881    6.6179  -20.8030 H   0  0  0  0  0  0
    4.2070    8.6840  -19.5417 H   0  0  0  0  0  0
    3.4760    9.3950  -20.9540 H   0  0  0  0  0  0
    4.9982    7.2560  -23.0421 H   0  0  0  0  0  0
    3.3819    7.9991  -23.1201 H   0  0  0  0  0  0
    6.2937    7.2568  -19.3929 H   0  0  0  0  0  0
    7.8271    6.9989  -20.2921 H   0  0  0  0  0  0
    7.7767    8.1488  -18.9134 H   0  0  0  0  0  0
    3.7952   10.7821  -22.3581 H   0  0  0  0  0  0
    4.8840   12.2104  -22.3199 H   0  0  0  0  0  0
    4.9199   11.0901  -23.7232 H   0  0  0  0  0  0
  1  2  2  0  0  0
  1  3  1  0  0  0
  1 34  1  0  0  0
  2  6  1  0  0  0
  2 35  1  0  0  0
  3  5  2  0  0  0
  3 27  1  0  0  0
  4  5  1  0  0  0
  4  6  2  0  0  0
  4 18  1  0  0  0
  5 24  1  0  0  0
  6 10  1  0  0  0
  7 10  2  0  0  0
  7 23  1  0  0  0
  7 33  1  0  0  0
  8 21  1  0  0  0
  8 22  1  0  0  0
  8 36  1  0  0  0
  8 37  1  0  0  0
  9 21  1  0  0  0
  9 31  1  0  0  0
  9 38  1  0  0  0
  9 39  1  0  0  0
 10 40  1  0  0  0
 11 12  1  0  0  0
 11 14  2  0  0  0
 11 15  1  0  0  0
 12 17  1  0  0  0
 12 28  2  0  0  0
 13 28  1  0  0  0
 13 29  2  0  0  0
 13 56  1  0  0  0
 14 29  1  0  0  0
 14 31  1  0  0  0
 15 30  2  0  0  0
 15 41  1  0  0  0
 16 17  2  0  0  0
 16 18  1  0  0  0
 16 30  1  0  0  0
 17 26  1  0  0  0
 18 23  2  0  0  0
 19 20  1  0  0  0
 19 31  1  0  0  0
 19 42  1  0  0  0
 19 43  1  0  0  0
 20 22  1  0  0  0
 20 32  1  0  0  0
 20 44  1  0  0  0
 21 32  1  0  0  0
 21 45  1  0  0  0
 22 46  1  0  0  0
 22 47  1  0  0  0
 23 48  1  0  0  0
 24 25  3  0  0  0
 25 49  1  0  0  0
 32 50  1  0  0  0
 33 51  1  0  0  0
 52 54  1  0  0  0
 52 59  1  0  0  0
 53 55  1  0  0  0
 53 56  1  0  0  0
 53 62  1  0  0  0
 54 58  2  0  0  0
 55 57  1  0  0  0
 55 63  1  0  0  0
 55 64  1  0  0  0
 56 65  1  0  0  0
 56 66  1  0  0  0
 57 58  1  0  0  0
 57 59  2  0  0  0
 58 61  1  0  0  0
 59 60  1  0  0  0
 60 67  1  0  0  0
 60 68  1  0  0  0
 60 69  1  0  0  0
 61 70  1  0  0  0
 61 71  1  0  0  0
 61 72  1  0  0  0
M  END
> <s_m_entry_id>
489

> <s_m_entry_name>
000000331.1

> <s_m_Source_Path>
/Users/zaksoul/Documents/3r_UNI/2nd_SEMESTER/BSC/FRAG_RECON/RESULTS/2

> <s_m_Source_File>
000000331.mol2

> <i_m_Source_File_Index>
1

$$$$
No_0_349
                    3D
 Schrodinger Suite 2022-4.
 72 78  0  0  1  0            999 V2000
   -5.4150    3.4110  -22.2010 C   0  0  0  0  0  0
   -5.6360    3.5610  -23.5500 C   0  0  0  0  0  0
   -4.1890    3.1730  -21.8110 C   0  0  0  0  0  0
   -3.2230    3.2430  -23.9470 C   0  0  0  0  0  0
   -3.1110    3.0390  -22.5160 C   0  0  0  0  0  0
   -4.5530    3.4850  -24.5210 C   0  0  0  0  0  0
   -3.7230    3.4490  -26.6920 C   0  0  0  0  0  0
    5.8210    2.9050  -21.0760 C   0  0  0  0  0  0
    5.7700    2.9760  -23.6320 C   0  0  0  0  0  0
   -4.7580    3.5740  -25.8680 C   0  0  0  0  0  0
    1.9870    3.5060  -23.7950 C   0  0  0  0  0  0
    1.1520    4.6190  -23.5550 C   0  0  0  0  0  0
    2.9210    5.8410  -22.8470 C   0  0  0  0  0  0
    3.3750    3.7120  -23.4390 C   0  0  0  0  0  0
    1.4680    2.3690  -24.4430 C   0  0  0  0  0  0
   -0.6650    3.1750  -24.4280 C   0  0  0  0  0  0
   -0.1640    4.4140  -23.8460 C   0  0  0  0  0  0
   -2.1050    3.1650  -24.8330 C   0  0  0  0  0  0
    3.9790    1.2260  -23.0570 C   0  0  0  0  0  0
    4.8740    0.9060  -21.8690 C   0  0  2  0  0  0
    6.4790    2.4380  -22.3930 C   0  0  2  0  0  0
    4.8120    1.9390  -20.7320 C   0  0  0  0  0  0
   -2.3820    3.2830  -26.2750 C   0  0  0  0  0  0
   -1.7870    2.6480  -21.8600 C   0  0  0  0  0  0
   -0.7730    2.3190  -21.3090 C   0  0  0  0  0  0
   -1.0210    5.4640  -23.5600 F   0  0  0  0  0  0
   -4.0250    2.9690  -20.4160 F   0  0  0  0  0  0
    1.6060    5.7940  -23.0400 N   0  0  0  0  0  0
    3.8280    4.8770  -23.0100 N   0  0  0  0  0  0
    0.1730    2.2650  -24.7900 N   0  0  0  0  0  0
    4.3020    2.6630  -23.5550 N   0  0  0  0  0  0
    6.2960    0.9660  -22.3050 N   0  0  1  0  0  0
   -3.8470    3.4250  -28.0870 O   0  0  0  0  0  0
   -6.2419    3.4903  -21.5046 H   0  0  0  0  0  0
   -6.6394    3.7428  -23.9176 H   0  0  0  0  0  0
    5.3513    3.8878  -21.2295 H   0  0  0  0  0  0
    6.5806    2.9403  -20.2811 H   0  0  0  0  0  0
    6.1981    2.5076  -24.5305 H   0  0  0  0  0  0
    5.9103    4.0654  -23.6906 H   0  0  0  0  0  0
   -5.7567    3.7446  -26.2534 H   0  0  0  0  0  0
    2.1191    1.5353  -24.6798 H   0  0  0  0  0  0
    2.9250    1.1746  -22.7464 H   0  0  0  0  0  0
    4.1718    0.5054  -23.8654 H   0  0  0  0  0  0
    4.6398   -0.0964  -21.4814 H   0  0  0  0  0  0
    7.5473    2.6995  -22.4102 H   0  0  0  0  0  0
    3.8259    2.4265  -20.7360 H   0  0  0  0  0  0
    5.0816    1.4524  -19.7830 H   0  0  0  0  0  0
   -1.5859    3.2459  -27.0098 H   0  0  0  0  0  0
    0.1200    2.0300  -20.8250 H   0  0  0  0  0  0
    6.9206    0.4912  -21.5628 H   0  0  0  0  0  0
   -2.9876    3.3280  -28.4801 H   0  0  0  0  0  0
    7.2210    9.9110  -21.5180 O   0  0  0  0  0  0
    3.7400    7.1970  -20.9200 N   0  0  1  0  0  0
    6.3300   10.8580  -22.0650 N   0  0  0  0  0  0
    4.0190    8.5450  -20.3040 C   0  0  0  0  0  0
    3.4600    7.1950  -22.3970 C   0  0  0  0  0  0
    5.2020    9.2810  -20.9170 C   0  0  0  0  0  0
    5.1510   10.4620  -21.6970 C   0  0  0  0  0  0
    6.5010    9.0110  -20.8470 C   0  0  0  0  0  0
    7.1560    7.8570  -20.1170 C   0  0  0  0  0  0
    3.8970   11.2230  -22.0740 C   0  0  0  0  0  0
    4.5940    6.5520  -20.7750 H   0  0  0  0  0  0
    4.1840    8.4260  -19.2230 H   0  0  0  0  0  0
    3.1196    9.1736  -20.3810 H   0  0  0  0  0  0
    4.3851    7.4220  -22.9471 H   0  0  0  0  0  0
    2.7235    7.9775  -22.6319 H   0  0  0  0  0  0
    6.3832    7.2401  -19.6351 H   0  0  0  0  0  0
    7.7210    7.2420  -20.8330 H   0  0  0  0  0  0
    7.8411    8.2491  -19.3509 H   0  0  0  0  0  0
    3.0175   10.7103  -21.6573 H   0  0  0  0  0  0
    3.9510   12.2439  -21.6680 H   0  0  0  0  0  0
    3.8100   11.2680  -23.1696 H   0  0  0  0  0  0
  1  2  2  0  0  0
  1  3  1  0  0  0
  1 34  1  0  0  0
  2  6  1  0  0  0
  2 35  1  0  0  0
  3  5  2  0  0  0
  3 27  1  0  0  0
  4  5  1  0  0  0
  4  6  2  0  0  0
  4 18  1  0  0  0
  5 24  1  0  0  0
  6 10  1  0  0  0
  7 10  2  0  0  0
  7 23  1  0  0  0
  7 33  1  0  0  0
  8 21  1  0  0  0
  8 22  1  0  0  0
  8 36  1  0  0  0
  8 37  1  0  0  0
  9 21  1  0  0  0
  9 31  1  0  0  0
  9 38  1  0  0  0
  9 39  1  0  0  0
 10 40  1  0  0  0
 11 12  1  0  0  0
 11 14  2  0  0  0
 11 15  1  0  0  0
 12 17  1  0  0  0
 12 28  2  0  0  0
 13 28  1  0  0  0
 13 29  2  0  0  0
 13 56  1  0  0  0
 14 29  1  0  0  0
 14 31  1  0  0  0
 15 30  2  0  0  0
 15 41  1  0  0  0
 16 17  2  0  0  0
 16 18  1  0  0  0
 16 30  1  0  0  0
 17 26  1  0  0  0
 18 23  2  0  0  0
 19 20  1  0  0  0
 19 31  1  0  0  0
 19 42  1  0  0  0
 19 43  1  0  0  0
 20 22  1  0  0  0
 20 32  1  0  0  0
 20 44  1  0  0  0
 21 32  1  0  0  0
 21 45  1  0  0  0
 22 46  1  0  0  0
 22 47  1  0  0  0
 23 48  1  0  0  0
 24 25  3  0  0  0
 25 49  1  0  0  0
 32 50  1  0  0  0
 33 51  1  0  0  0
 52 54  1  0  0  0
 52 59  1  0  0  0
 53 55  1  0  0  0
 53 56  1  0  0  0
 53 62  1  0  0  0
 54 58  2  0  0  0
 55 57  1  0  0  0
 55 63  1  0  0  0
 55 64  1  0  0  0
 56 65  1  0  0  0
 56 66  1  0  0  0
 57 58  1  0  0  0
 57 59  2  0  0  0
 58 61  1  0  0  0
 59 60  1  0  0  0
 60 67  1  0  0  0
 60 68  1  0  0  0
 60 69  1  0  0  0
 61 70  1  0  0  0
 61 71  1  0  0  0
 61 72  1  0  0  0
M  END
> <s_m_entry_id>
490

> <s_m_entry_name>
000000332.1

> <s_m_Source_Path>
/Users/zaksoul/Documents/3r_UNI/2nd_SEMESTER/BSC/FRAG_RECON/RESULTS/2

> <s_m_Source_File>
000000332.mol2

> <i_m_Source_File_Index>
1

$$$$
No_0_350
                    3D
 Schrodinger Suite 2022-4.
 70 76  0  0  1  0            999 V2000
   -5.1900    3.6680  -22.3050 C   0  0  0  0  0  0
   -5.4380    3.8460  -23.6450 C   0  0  0  0  0  0
   -3.9600    3.4000  -21.9470 C   0  0  0  0  0  0
   -3.0420    3.4870  -24.1030 C   0  0  0  0  0  0
   -2.9010    3.2560  -22.6780 C   0  0  0  0  0  0
   -4.3790    3.7650  -24.6430 C   0  0  0  0  0  0
   -3.5980    3.7500  -26.8320 C   0  0  0  0  0  0
    6.0570    2.9230  -21.4440 C   0  0  0  0  0  0
    5.9500    3.0380  -23.9970 C   0  0  0  0  0  0
   -4.6120    3.8810  -25.9820 C   0  0  0  0  0  0
    2.1750    3.6450  -24.0650 C   0  0  0  0  0  0
    1.3680    4.7700  -23.7880 C   0  0  0  0  0  0
    3.1770    5.9450  -23.1000 C   0  0  0  0  0  0
    3.5740    3.8180  -23.7370 C   0  0  0  0  0  0
    1.6190    2.5290  -24.7200 C   0  0  0  0  0  0
   -0.4970    3.3770  -24.6430 C   0  0  0  0  0  0
    0.0420    4.5960  -24.0520 C   0  0  0  0  0  0
   -1.9450    3.4020  -25.0150 C   0  0  0  0  0  0
    4.1370    1.3140  -23.4100 C   0  0  0  0  0  0
    5.0510    0.9570  -22.2490 C   0  0  2  0  0  0
    6.6750    2.4660  -22.7840 C   0  0  2  0  0  0
    5.0360    1.9710  -21.0930 C   0  0  0  0  0  0
   -2.2520    3.5500  -26.4480 C   0  0  0  0  0  0
   -1.5710    2.8290  -22.0590 C   0  0  0  0  0  0
   -0.5520    2.4710  -21.5370 C   0  0  0  0  0  0
   -0.7870    5.6580  -23.7290 F   0  0  0  0  0  0
   -3.7690    3.1700  -20.5590 F   0  0  0  0  0  0
    1.8570    5.9270  -23.2640 N   0  0  0  0  0  0
    4.0610    4.9660  -23.2990 N   0  0  0  0  0  0
    0.3150    2.4570  -25.0390 N   0  0  0  0  0  0
    4.4780    2.7530  -23.8920 N   0  0  0  0  0  0
    6.4640    0.9960  -22.7150 N   0  0  1  0  0  0
   -3.7540    3.7510  -28.2240 O   0  0  0  0  0  0
   -5.9990    3.7523  -21.5884 H   0  0  0  0  0  0
   -6.4454    4.0529  -23.9875 H   0  0  0  0  0  0
    5.6030    3.9168  -21.5711 H   0  0  0  0  0  0
    6.8343    2.9291  -20.6657 H   0  0  0  0  0  0
    6.3478    2.5765  -24.9128 H   0  0  0  0  0  0
    6.1105    4.1254  -24.0404 H   0  0  0  0  0  0
   -5.6153    4.0777  -26.3422 H   0  0  0  0  0  0
    2.2476    1.6866  -24.9851 H   0  0  0  0  0  0
    3.0896    1.2777  -23.0760 H   0  0  0  0  0  0
    4.2974    0.6036  -24.2344 H   0  0  0  0  0  0
    4.8068   -0.0470  -21.8716 H   0  0  0  0  0  0
    7.7478    2.7062  -22.8203 H   0  0  0  0  0  0
    4.0600    2.4777  -21.0668 H   0  0  0  0  0  0
    5.3175    1.4634  -20.1586 H   0  0  0  0  0  0
   -1.4736    3.5099  -27.2013 H   0  0  0  0  0  0
    0.3455    2.1562  -21.0782 H   0  0  0  0  0  0
    7.0959    0.4967  -21.9954 H   0  0  0  0  0  0
   -2.9059    3.6451  -28.6387 H   0  0  0  0  0  0
    9.6680    8.4880  -20.2280 Br  0  0  0  0  0  0
    3.7340    7.4040  -21.1400 N   0  0  1  0  0  0
    6.2410    9.7190  -21.8050 N   0  0  0  0  0  0
    7.5900    9.6380  -21.6830 N   0  0  0  0  0  0
    4.2450    8.7140  -20.5990 C   0  0  0  0  0  0
    5.7350    8.9150  -20.8290 C   0  0  0  0  0  0
    3.7520    7.2800  -22.6410 C   0  0  0  0  0  0
    5.5510   10.5420  -22.8040 C   0  0  0  0  0  0
    6.7090    8.3430  -20.1120 C   0  0  0  0  0  0
    7.8800    8.8350  -20.6940 C   0  0  0  0  0  0
    4.3388    6.5953  -20.7571 H   0  0  0  0  0  0
    4.0311    8.7730  -19.5216 H   0  0  0  0  0  0
    3.6892    9.5427  -21.0619 H   0  0  0  0  0  0
    4.7861    7.3780  -23.0030 H   0  0  0  0  0  0
    3.1692    8.1017  -23.0828 H   0  0  0  0  0  0
    4.4633   10.4270  -22.6870 H   0  0  0  0  0  0
    5.8259   11.5977  -22.6630 H   0  0  0  0  0  0
    5.8460   10.2180  -23.8130 H   0  0  0  0  0  0
    6.4591    7.6732  -19.2972 H   0  0  0  0  0  0
  1  2  2  0  0  0
  1  3  1  0  0  0
  1 34  1  0  0  0
  2  6  1  0  0  0
  2 35  1  0  0  0
  3  5  2  0  0  0
  3 27  1  0  0  0
  4  5  1  0  0  0
  4  6  2  0  0  0
  4 18  1  0  0  0
  5 24  1  0  0  0
  6 10  1  0  0  0
  7 10  2  0  0  0
  7 23  1  0  0  0
  7 33  1  0  0  0
  8 21  1  0  0  0
  8 22  1  0  0  0
  8 36  1  0  0  0
  8 37  1  0  0  0
  9 21  1  0  0  0
  9 31  1  0  0  0
  9 38  1  0  0  0
  9 39  1  0  0  0
 10 40  1  0  0  0
 11 12  1  0  0  0
 11 14  2  0  0  0
 11 15  1  0  0  0
 12 17  1  0  0  0
 12 28  2  0  0  0
 13 28  1  0  0  0
 13 29  2  0  0  0
 13 58  1  0  0  0
 14 29  1  0  0  0
 14 31  1  0  0  0
 15 30  2  0  0  0
 15 41  1  0  0  0
 16 17  2  0  0  0
 16 18  1  0  0  0
 16 30  1  0  0  0
 17 26  1  0  0  0
 18 23  2  0  0  0
 19 20  1  0  0  0
 19 31  1  0  0  0
 19 42  1  0  0  0
 19 43  1  0  0  0
 20 22  1  0  0  0
 20 32  1  0  0  0
 20 44  1  0  0  0
 21 32  1  0  0  0
 21 45  1  0  0  0
 22 46  1  0  0  0
 22 47  1  0  0  0
 23 48  1  0  0  0
 24 25  3  0  0  0
 25 49  1  0  0  0
 32 50  1  0  0  0
 33 51  1  0  0  0
 52 61  1  0  0  0
 53 56  1  0  0  0
 53 58  1  0  0  0
 53 62  1  0  0  0
 54 55  1  0  0  0
 54 57  1  0  0  0
 54 59  1  0  0  0
 55 61  2  0  0  0
 56 57  1  0  0  0
 56 63  1  0  0  0
 56 64  1  0  0  0
 57 60  2  0  0  0
 58 65  1  0  0  0
 58 66  1  0  0  0
 59 67  1  0  0  0
 59 68  1  0  0  0
 59 69  1  0  0  0
 60 61  1  0  0  0
 60 70  1  0  0  0
M  END
> <s_m_entry_id>
491

> <s_m_entry_name>
000000333.1

> <s_m_Source_Path>
/Users/zaksoul/Documents/3r_UNI/2nd_SEMESTER/BSC/FRAG_RECON/RESULTS/2

> <s_m_Source_File>
000000333.mol2

> <i_m_Source_File_Index>
1

$$$$
No_0_351
                    3D
 Schrodinger Suite 2022-4.
 70 76  0  0  1  0            999 V2000
   -5.1810    3.6090  -21.8530 C   0  0  0  0  0  0
   -5.4520    3.8050  -23.1860 C   0  0  0  0  0  0
   -3.9420    3.3510  -21.5190 C   0  0  0  0  0  0
   -3.0590    3.4860  -23.6870 C   0  0  0  0  0  0
   -2.8930    3.2340  -22.2690 C   0  0  0  0  0  0
   -4.4090    3.7540  -24.2010 C   0  0  0  0  0  0
   -3.6630    3.7850  -26.4030 C   0  0  0  0  0  0
    6.0870    3.0010  -21.1820 C   0  0  0  0  0  0
    5.9380    3.1560  -23.7310 C   0  0  0  0  0  0
   -4.6650    3.8890  -25.5350 C   0  0  0  0  0  0
    2.1540    3.7130  -23.7290 C   0  0  0  0  0  0
    1.3370    4.8230  -23.4210 C   0  0  0  0  0  0
    3.1410    6.0110  -22.7430 C   0  0  0  0  0  0
    3.5570    3.8990  -23.4210 C   0  0  0  0  0  0
    1.6030    2.6010  -24.3930 C   0  0  0  0  0  0
   -0.5220    3.4190  -24.2700 C   0  0  0  0  0  0
    0.0100    4.6350  -23.6670 C   0  0  0  0  0  0
   -1.9770    3.4300  -24.6180 C   0  0  0  0  0  0
    4.1570    1.3990  -23.1440 C   0  0  0  0  0  0
    5.0950    1.0350  -22.0030 C   0  0  2  0  0  0
    6.6890    2.5740  -22.5390 C   0  0  2  0  0  0
    5.0840    2.0310  -20.8310 C   0  0  0  0  0  0
   -2.3080    3.5970  -26.0440 C   0  0  0  0  0  0
   -1.5470    2.8150  -21.6780 C   0  0  0  0  0  0
   -0.5150    2.4620  -21.1780 C   0  0  0  0  0  0
   -0.8280    5.6800  -23.3140 F   0  0  0  0  0  0
   -3.7260    3.1020  -20.1390 F   0  0  0  0  0  0
    1.8200    5.9780  -22.8860 N   0  0  0  0  0  0
    4.0350    5.0470  -22.9720 N   0  0  0  0  0  0
    0.2950    2.5160  -24.6930 N   0  0  0  0  0  0
    4.4710    2.8500  -23.6070 N   0  0  0  0  0  0
    6.5000    1.1010  -22.4910 N   0  0  1  0  0  0
   -3.8410    3.8060  -27.7920 O   0  0  0  0  0  0
   -5.9796    3.6712  -21.1226 H   0  0  0  0  0  0
   -6.4675    4.0037  -23.5091 H   0  0  0  0  0  0
    5.6179    3.9906  -21.2849 H   0  0  0  0  0  0
    6.8763    3.0060  -20.4159 H   0  0  0  0  0  0
    6.3275    2.7150  -24.6604 H   0  0  0  0  0  0
    6.0833    4.2460  -23.7593 H   0  0  0  0  0  0
   -5.6765    4.0776  -25.8762 H   0  0  0  0  0  0
    2.2385    1.7718  -24.6821 H   0  0  0  0  0  0
    3.1157    1.3435  -22.7939 H   0  0  0  0  0  0
    4.3144    0.7047  -23.9826 H   0  0  0  0  0  0
    4.8700    0.0218  -21.6387 H   0  0  0  0  0  0
    7.7578    2.8293  -22.5885 H   0  0  0  0  0  0
    4.1018    2.5236  -20.7805 H   0  0  0  0  0  0
    5.3877    1.5123  -19.9097 H   0  0  0  0  0  0
   -1.5411    3.5789  -26.8099 H   0  0  0  0  0  0
    0.3934    2.1519  -20.7378 H   0  0  0  0  0  0
    7.1492    0.5983  -21.7894 H   0  0  0  0  0  0
   -2.9984    3.7179  -28.2217 H   0  0  0  0  0  0
    9.9210    8.9230  -21.1970 Br  0  0  0  0  0  0
    4.0500    7.3150  -20.8050 N   0  0  1  0  0  0
    6.1260    9.9380  -21.7530 N   0  0  0  0  0  0
    7.4650    9.9880  -21.9650 N   0  0  0  0  0  0
    4.5750    8.6110  -20.2420 C   0  0  0  0  0  0
    5.9410    8.9900  -20.7920 C   0  0  0  0  0  0
    3.7060    7.3460  -22.2710 C   0  0  0  0  0  0
    5.1480   10.7790  -22.4510 C   0  0  0  0  0  0
    7.1040    8.4550  -20.4020 C   0  0  0  0  0  0
    8.0520    9.1240  -21.1790 C   0  0  0  0  0  0
    4.7919    6.5401  -20.6800 H   0  0  0  0  0  0
    4.6300    8.5370  -19.1459 H   0  0  0  0  0  0
    3.8588    9.4182  -20.4551 H   0  0  0  0  0  0
    4.6075    7.5889  -22.8527 H   0  0  0  0  0  0
    2.9701    8.1419  -22.4580 H   0  0  0  0  0  0
    4.1357   10.5389  -22.0939 H   0  0  0  0  0  0
    5.3658   11.8382  -22.2492 H   0  0  0  0  0  0
    5.2090   10.5920  -23.5333 H   0  0  0  0  0  0
    7.1170    7.6831  -19.6411 H   0  0  0  0  0  0
  1  2  2  0  0  0
  1  3  1  0  0  0
  1 34  1  0  0  0
  2  6  1  0  0  0
  2 35  1  0  0  0
  3  5  2  0  0  0
  3 27  1  0  0  0
  4  5  1  0  0  0
  4  6  2  0  0  0
  4 18  1  0  0  0
  5 24  1  0  0  0
  6 10  1  0  0  0
  7 10  2  0  0  0
  7 23  1  0  0  0
  7 33  1  0  0  0
  8 21  1  0  0  0
  8 22  1  0  0  0
  8 36  1  0  0  0
  8 37  1  0  0  0
  9 21  1  0  0  0
  9 31  1  0  0  0
  9 38  1  0  0  0
  9 39  1  0  0  0
 10 40  1  0  0  0
 11 12  1  0  0  0
 11 14  2  0  0  0
 11 15  1  0  0  0
 12 17  1  0  0  0
 12 28  2  0  0  0
 13 28  1  0  0  0
 13 29  2  0  0  0
 13 58  1  0  0  0
 14 29  1  0  0  0
 14 31  1  0  0  0
 15 30  2  0  0  0
 15 41  1  0  0  0
 16 17  2  0  0  0
 16 18  1  0  0  0
 16 30  1  0  0  0
 17 26  1  0  0  0
 18 23  2  0  0  0
 19 20  1  0  0  0
 19 31  1  0  0  0
 19 42  1  0  0  0
 19 43  1  0  0  0
 20 22  1  0  0  0
 20 32  1  0  0  0
 20 44  1  0  0  0
 21 32  1  0  0  0
 21 45  1  0  0  0
 22 46  1  0  0  0
 22 47  1  0  0  0
 23 48  1  0  0  0
 24 25  3  0  0  0
 25 49  1  0  0  0
 32 50  1  0  0  0
 33 51  1  0  0  0
 52 61  1  0  0  0
 53 56  1  0  0  0
 53 58  1  0  0  0
 53 62  1  0  0  0
 54 55  1  0  0  0
 54 57  1  0  0  0
 54 59  1  0  0  0
 55 61  2  0  0  0
 56 57  1  0  0  0
 56 63  1  0  0  0
 56 64  1  0  0  0
 57 60  2  0  0  0
 58 65  1  0  0  0
 58 66  1  0  0  0
 59 67  1  0  0  0
 59 68  1  0  0  0
 59 69  1  0  0  0
 60 61  1  0  0  0
 60 70  1  0  0  0
M  END
> <s_m_entry_id>
492

> <s_m_entry_name>
000000334.1

> <s_m_Source_Path>
/Users/zaksoul/Documents/3r_UNI/2nd_SEMESTER/BSC/FRAG_RECON/RESULTS/2

> <s_m_Source_File>
000000334.mol2

> <i_m_Source_File_Index>
1

$$$$
No_0_352
                    3D
 Schrodinger Suite 2022-4.
 74 80  0  0  1  0            999 V2000
   -5.2200    3.5690  -21.8820 C   0  0  0  0  0  0
   -5.4980    3.7510  -23.2160 C   0  0  0  0  0  0
   -3.9780    3.3220  -21.5500 C   0  0  0  0  0  0
   -3.1050    3.4420  -23.7240 C   0  0  0  0  0  0
   -2.9310    3.2040  -22.3040 C   0  0  0  0  0  0
   -4.4580    3.6980  -24.2350 C   0  0  0  0  0  0
   -3.7220    3.7130  -26.4390 C   0  0  0  0  0  0
    6.0550    3.0370  -21.2540 C   0  0  0  0  0  0
    5.8940    3.1680  -23.8030 C   0  0  0  0  0  0
   -4.7210    3.8190  -25.5680 C   0  0  0  0  0  0
    2.1070    3.7020  -23.7900 C   0  0  0  0  0  0
    1.2840    4.8090  -23.4880 C   0  0  0  0  0  0
    3.0840    6.0140  -22.8290 C   0  0  0  0  0  0
    3.5090    3.8990  -23.4890 C   0  0  0  0  0  0
    1.5590    2.5800  -24.4420 C   0  0  0  0  0  0
   -0.5700    3.3860  -24.3160 C   0  0  0  0  0  0
   -0.0430    4.6110  -23.7270 C   0  0  0  0  0  0
   -2.0260    3.3850  -24.6580 C   0  0  0  0  0  0
    4.1270    1.4050  -23.1920 C   0  0  0  0  0  0
    5.0710    1.0570  -22.0520 C   0  0  2  0  0  0
    6.6540    2.6020  -22.6090 C   0  0  2  0  0  0
    5.0600    2.0630  -20.8890 C   0  0  0  0  0  0
   -2.3640    3.5370  -26.0840 C   0  0  0  0  0  0
   -1.5810    2.7990  -21.7150 C   0  0  0  0  0  0
   -0.5440    2.4570  -21.2170 C   0  0  0  0  0  0
   -0.8860    5.6540  -23.3800 F   0  0  0  0  0  0
   -3.7540    3.0860  -20.1690 F   0  0  0  0  0  0
    1.7620    5.9720  -22.9660 N   0  0  0  0  0  0
    3.9820    5.0540  -23.0530 N   0  0  0  0  0  0
    0.2510    2.4840  -24.7360 N   0  0  0  0  0  0
    4.4300    2.8540  -23.6700 N   0  0  0  0  0  0
    6.4740    1.1280  -22.5470 N   0  0  1  0  0  0
   -3.9060    3.7210  -27.8270 O   0  0  0  0  0  0
   -6.0152    3.6323  -21.1480 H   0  0  0  0  0  0
   -6.5161    3.9408  -23.5363 H   0  0  0  0  0  0
    5.5789    4.0225  -21.3640 H   0  0  0  0  0  0
    6.8472    3.0531  -20.4910 H   0  0  0  0  0  0
    6.2818    2.7206  -24.7301 H   0  0  0  0  0  0
    6.0322    4.2586  -23.8413 H   0  0  0  0  0  0
   -5.7350    3.9987  -25.9063 H   0  0  0  0  0  0
    2.1990    1.7524  -24.7259 H   0  0  0  0  0  0
    3.0872    1.3455  -22.8380 H   0  0  0  0  0  0
    4.2843    0.7041  -24.0250 H   0  0  0  0  0  0
    4.8540    0.0457  -21.6776 H   0  0  0  0  0  0
    7.7212    2.8625  -22.6655 H   0  0  0  0  0  0
    4.0751    2.5504  -20.8396 H   0  0  0  0  0  0
    5.3699    1.5542  -19.9643 H   0  0  0  0  0  0
   -1.6011    3.5169  -26.8539 H   0  0  0  0  0  0
    0.3680    2.1560  -20.7780 H   0  0  0  0  0  0
    7.1295    0.6350  -21.8444 H   0  0  0  0  0  0
   -3.0646    3.6349  -28.2596 H   0  0  0  0  0  0
    9.2510    7.5710  -19.9890 F   0  0  0  0  0  0
    3.9870    7.3240  -20.9050 N   0  3  0  0  0  0
    4.5490    8.6060  -20.3470 C   0  0  0  0  0  0
    3.6420    7.3570  -22.3710 C   0  0  0  0  0  0
    5.9770    8.8730  -20.8110 C   0  0  0  0  0  0
    6.3100    9.8080  -21.7740 C   0  0  0  0  0  0
    6.9730    8.1260  -20.2190 C   0  0  0  0  0  0
    8.6200    9.2330  -21.5340 C   0  0  0  0  0  0
    7.6310    9.9810  -22.1280 C   0  0  0  0  0  0
    8.2920    8.3020  -20.5750 C   0  0  0  0  0  0
    5.2790   10.6790  -22.4730 C   0  0  0  0  0  0
    3.1697    7.0609  -20.3768 H   0  0  0  0  0  0
    4.6363    6.5727  -20.7319 H   0  0  0  0  0  0
    4.5230    8.5680  -19.2480 H   0  0  0  0  0  0
    3.9049    9.4471  -20.6430 H   0  0  0  0  0  0
    4.5436    7.5969  -22.9537 H   0  0  0  0  0  0
    2.8969    8.1451  -22.5550 H   0  0  0  0  0  0
    6.7220    7.3909  -19.4629 H   0  0  0  0  0  0
    9.6552    9.3780  -21.8211 H   0  0  0  0  0  0
    7.8990   10.7111  -22.8831 H   0  0  0  0  0  0
    5.7839   11.3399  -23.1929 H   0  0  0  0  0  0
    4.5589   10.0399  -23.0051 H   0  0  0  0  0  0
    4.7460   11.2880  -21.7280 H   0  0  0  0  0  0
  1  2  2  0  0  0
  1  3  1  0  0  0
  1 34  1  0  0  0
  2  6  1  0  0  0
  2 35  1  0  0  0
  3  5  2  0  0  0
  3 27  1  0  0  0
  4  5  1  0  0  0
  4  6  2  0  0  0
  4 18  1  0  0  0
  5 24  1  0  0  0
  6 10  1  0  0  0
  7 10  2  0  0  0
  7 23  1  0  0  0
  7 33  1  0  0  0
  8 21  1  0  0  0
  8 22  1  0  0  0
  8 36  1  0  0  0
  8 37  1  0  0  0
  9 21  1  0  0  0
  9 31  1  0  0  0
  9 38  1  0  0  0
  9 39  1  0  0  0
 10 40  1  0  0  0
 11 12  1  0  0  0
 11 14  2  0  0  0
 11 15  1  0  0  0
 12 17  1  0  0  0
 12 28  2  0  0  0
 13 28  1  0  0  0
 13 29  2  0  0  0
 13 55  1  0  0  0
 14 29  1  0  0  0
 14 31  1  0  0  0
 15 30  2  0  0  0
 15 41  1  0  0  0
 16 17  2  0  0  0
 16 18  1  0  0  0
 16 30  1  0  0  0
 17 26  1  0  0  0
 18 23  2  0  0  0
 19 20  1  0  0  0
 19 31  1  0  0  0
 19 42  1  0  0  0
 19 43  1  0  0  0
 20 22  1  0  0  0
 20 32  1  0  0  0
 20 44  1  0  0  0
 21 32  1  0  0  0
 21 45  1  0  0  0
 22 46  1  0  0  0
 22 47  1  0  0  0
 23 48  1  0  0  0
 24 25  3  0  0  0
 25 49  1  0  0  0
 32 50  1  0  0  0
 33 51  1  0  0  0
 52 61  1  0  0  0
 53 54  1  0  0  0
 53 55  1  0  0  0
 53 63  1  0  0  0
 53 64  1  0  0  0
 54 56  1  0  0  0
 54 65  1  0  0  0
 54 66  1  0  0  0
 55 67  1  0  0  0
 55 68  1  0  0  0
 56 57  2  0  0  0
 56 58  1  0  0  0
 57 60  1  0  0  0
 57 62  1  0  0  0
 58 61  2  0  0  0
 58 69  1  0  0  0
 59 60  2  0  0  0
 59 61  1  0  0  0
 59 70  1  0  0  0
 60 71  1  0  0  0
 62 72  1  0  0  0
 62 73  1  0  0  0
 62 74  1  0  0  0
M  CHG  1  53   1
M  END
> <s_m_entry_id>
493

> <s_m_entry_name>
000000335.1

> <s_m_Source_Path>
/Users/zaksoul/Documents/3r_UNI/2nd_SEMESTER/BSC/FRAG_RECON/RESULTS/2

> <s_m_Source_File>
000000335.mol2

> <i_m_Source_File_Index>
1

$$$$
No_0_353
                    3D
 Schrodinger Suite 2022-4.
 70 76  0  0  1  0            999 V2000
   -5.2190    3.3200  -21.9050 C   0  0  0  0  0  0
   -5.5190    3.4660  -23.2390 C   0  0  0  0  0  0
   -3.9690    3.0950  -21.5870 C   0  0  0  0  0  0
   -3.1300    3.1720  -23.7750 C   0  0  0  0  0  0
   -2.9330    2.9710  -22.3530 C   0  0  0  0  0  0
   -4.4930    3.3990  -24.2720 C   0  0  0  0  0  0
   -3.7900    3.3690  -26.4870 C   0  0  0  0  0  0
    6.0690    2.9310  -21.4330 C   0  0  0  0  0  0
    5.8690    2.9980  -23.9820 C   0  0  0  0  0  0
   -4.7770    3.4840  -25.6040 C   0  0  0  0  0  0
    2.0770    3.4890  -23.9250 C   0  0  0  0  0  0
    1.2460    4.5930  -23.6390 C   0  0  0  0  0  0
    3.0410    5.8350  -23.0360 C   0  0  0  0  0  0
    3.4810    3.7090  -23.6510 C   0  0  0  0  0  0
    1.5330    2.3450  -24.5410 C   0  0  0  0  0  0
   -0.6040    3.1300  -24.4040 C   0  0  0  0  0  0
   -0.0820    4.3740  -23.8530 C   0  0  0  0  0  0
   -2.0640    3.1040  -24.7240 C   0  0  0  0  0  0
    4.1320    1.2300  -23.3020 C   0  0  0  0  0  0
    5.0970    0.9210  -22.1680 C   0  0  2  0  0  0
    6.6530    2.4690  -22.7860 C   0  0  2  0  0  0
    5.0910    1.9560  -21.0300 C   0  0  0  0  0  0
   -2.4250    3.2170  -26.1480 C   0  0  0  0  0  0
   -1.5690    2.5950  -21.7740 C   0  0  0  0  0  0
   -0.5210    2.2770  -21.2830 C   0  0  0  0  0  0
   -0.9320    5.4160  -23.5180 F   0  0  0  0  0  0
   -3.7230    2.8960  -20.2030 F   0  0  0  0  0  0
    1.7170    5.7740  -23.1520 N   0  0  0  0  0  0
    3.9470    4.8790  -23.2500 N   0  0  0  0  0  0
    0.2210    2.2270  -24.8130 N   0  0  0  0  0  0
    4.4110    2.6700  -23.8200 N   0  0  0  0  0  0
    6.4910    0.9950  -22.6850 N   0  0  1  0  0  0
   -3.9950    3.3410  -27.8720 O   0  0  0  0  0  0
   -6.0051    3.3923  -21.1621 H   0  0  0  0  0  0
   -6.5438    3.6368  -23.5484 H   0  0  0  0  0  0
    5.5808    3.9085  -21.5601 H   0  0  0  0  0  0
    6.8725    2.9754  -20.6830 H   0  0  0  0  0  0
    6.2486    2.5326  -24.9036 H   0  0  0  0  0  0
    5.9942    4.0888  -24.0487 H   0  0  0  0  0  0
   -5.7979    3.6446  -25.9312 H   0  0  0  0  0  0
    2.1782    1.5181  -24.8149 H   0  0  0  0  0  0
    3.0984    1.1684  -22.9306 H   0  0  0  0  0  0
    4.2853    0.5108  -24.1201 H   0  0  0  0  0  0
    4.8971   -0.0833  -21.7663 H   0  0  0  0  0  0
    7.7161    2.7403  -22.8647 H   0  0  0  0  0  0
    4.1009    2.4324  -20.9775 H   0  0  0  0  0  0
    5.4199    1.4737  -20.0977 H   0  0  0  0  0  0
   -1.6730    3.1869  -26.9281 H   0  0  0  0  0  0
    0.4010    1.9977  -20.8505 H   0  0  0  0  0  0
    7.1627    0.5276  -21.9802 H   0  0  0  0  0  0
   -3.1589    3.2529  -28.3143 H   0  0  0  0  0  0
    9.1070    8.2910  -20.1770 O   0  0  0  0  0  0
    6.2750    8.9000  -22.0240 O   0  0  0  0  0  0
    3.6090    7.3180  -21.1200 N   0  0  1  0  0  0
    7.6850    8.8160  -21.9040 N   0  0  0  0  0  0
    3.5900    7.1950  -22.6190 C   0  0  0  0  0  0
    4.2350    8.5830  -20.5990 C   0  0  0  0  0  0
    5.7330    8.5980  -20.8380 C   0  0  0  0  0  0
    6.6740    8.3170  -19.9560 C   0  0  0  0  0  0
    7.8970    8.4670  -20.6640 C   0  0  0  0  0  0
    9.2300    7.8930  -18.7980 C   0  0  0  0  0  0
    2.5973    7.2930  -20.7428 H   0  0  0  0  0  0
    4.6116    7.3119  -23.0098 H   0  0  0  0  0  0
    2.9599    7.9901  -23.0441 H   0  0  0  0  0  0
    4.0350    8.6740  -19.5212 H   0  0  0  0  0  0
    3.7763    9.4495  -21.0977 H   0  0  0  0  0  0
    6.4021    8.0441  -18.9374 H   0  0  0  0  0  0
   10.2940    7.7860  -18.5400 H   0  0  0  0  0  0
    8.7719    8.6562  -18.1518 H   0  0  0  0  0  0
    8.7193    6.9306  -18.6461 H   0  0  0  0  0  0
  1  2  2  0  0  0
  1  3  1  0  0  0
  1 34  1  0  0  0
  2  6  1  0  0  0
  2 35  1  0  0  0
  3  5  2  0  0  0
  3 27  1  0  0  0
  4  5  1  0  0  0
  4  6  2  0  0  0
  4 18  1  0  0  0
  5 24  1  0  0  0
  6 10  1  0  0  0
  7 10  2  0  0  0
  7 23  1  0  0  0
  7 33  1  0  0  0
  8 21  1  0  0  0
  8 22  1  0  0  0
  8 36  1  0  0  0
  8 37  1  0  0  0
  9 21  1  0  0  0
  9 31  1  0  0  0
  9 38  1  0  0  0
  9 39  1  0  0  0
 10 40  1  0  0  0
 11 12  1  0  0  0
 11 14  2  0  0  0
 11 15  1  0  0  0
 12 17  1  0  0  0
 12 28  2  0  0  0
 13 28  1  0  0  0
 13 29  2  0  0  0
 13 56  1  0  0  0
 14 29  1  0  0  0
 14 31  1  0  0  0
 15 30  2  0  0  0
 15 41  1  0  0  0
 16 17  2  0  0  0
 16 18  1  0  0  0
 16 30  1  0  0  0
 17 26  1  0  0  0
 18 23  2  0  0  0
 19 20  1  0  0  0
 19 31  1  0  0  0
 19 42  1  0  0  0
 19 43  1  0  0  0
 20 22  1  0  0  0
 20 32  1  0  0  0
 20 44  1  0  0  0
 21 32  1  0  0  0
 21 45  1  0  0  0
 22 46  1  0  0  0
 22 47  1  0  0  0
 23 48  1  0  0  0
 24 25  3  0  0  0
 25 49  1  0  0  0
 32 50  1  0  0  0
 33 51  1  0  0  0
 52 60  1  0  0  0
 52 61  1  0  0  0
 53 55  1  0  0  0
 53 58  1  0  0  0
 54 56  1  0  0  0
 54 57  1  0  0  0
 54 62  1  0  0  0
 55 60  2  0  0  0
 56 63  1  0  0  0
 56 64  1  0  0  0
 57 58  1  0  0  0
 57 65  1  0  0  0
 57 66  1  0  0  0
 58 59  2  0  0  0
 59 60  1  0  0  0
 59 67  1  0  0  0
 61 68  1  0  0  0
 61 69  1  0  0  0
 61 70  1  0  0  0
M  END
> <s_m_entry_id>
494

> <s_m_entry_name>
000000336.1

> <s_m_Source_Path>
/Users/zaksoul/Documents/3r_UNI/2nd_SEMESTER/BSC/FRAG_RECON/RESULTS/2

> <s_m_Source_File>
000000336.mol2

> <i_m_Source_File_Index>
1

$$$$
No_0_354
                    3D
 Schrodinger Suite 2022-4.
 70 76  0  0  1  0            999 V2000
   -5.3480    3.6740  -21.7370 C   0  0  0  0  0  0
   -5.6360    3.8300  -23.0720 C   0  0  0  0  0  0
   -4.1070    3.4100  -21.4130 C   0  0  0  0  0  0
   -3.2560    3.4610  -23.5970 C   0  0  0  0  0  0
   -3.0720    3.2530  -22.1740 C   0  0  0  0  0  0
   -4.6090    3.7310  -24.1000 C   0  0  0  0  0  0
   -3.8960    3.6780  -26.3120 C   0  0  0  0  0  0
    5.9200    2.9290  -21.2120 C   0  0  0  0  0  0
    5.7340    3.0020  -23.7610 C   0  0  0  0  0  0
   -4.8840    3.8250  -25.4340 C   0  0  0  0  0  0
    1.9590    3.6130  -23.7230 C   0  0  0  0  0  0
    1.1620    4.7430  -23.4400 C   0  0  0  0  0  0
    2.9920    5.9270  -22.8280 C   0  0  0  0  0  0
    3.3680    3.7890  -23.4420 C   0  0  0  0  0  0
    1.3820    2.4870  -24.3420 C   0  0  0  0  0  0
   -0.7290    3.3380  -24.2140 C   0  0  0  0  0  0
   -0.1710    4.5660  -23.6600 C   0  0  0  0  0  0
   -2.1880    3.3590  -24.5410 C   0  0  0  0  0  0
    3.9390    1.2900  -23.0910 C   0  0  0  0  0  0
    4.8880    0.9510  -21.9520 C   0  0  2  0  0  0
    6.4960    2.4490  -22.5620 C   0  0  2  0  0  0
    4.9090    1.9850  -20.8140 C   0  0  0  0  0  0
   -2.5390    3.4840  -25.9670 C   0  0  0  0  0  0
   -1.7230    2.8350  -21.5890 C   0  0  0  0  0  0
   -0.6890    2.4840  -21.0930 C   0  0  0  0  0  0
   -0.9890    5.6340  -23.3300 F   0  0  0  0  0  0
   -3.8740    3.2030  -20.0280 F   0  0  0  0  0  0
    1.6680    5.9080  -22.9510 N   0  0  0  0  0  0
    3.8690    4.9430  -23.0380 N   0  0  0  0  0  0
    0.0690    2.4110  -24.6200 N   0  0  0  0  0  0
    4.2660    2.7210  -23.6060 N   0  0  0  0  0  0
    6.2860    0.9810  -22.4630 N   0  0  1  0  0  0
   -4.0960    3.6570  -27.6980 O   0  0  0  0  0  0
   -6.1341    3.7714  -20.9970 H   0  0  0  0  0  0
   -6.6532    4.0326  -23.3870 H   0  0  0  0  0  0
    5.4628    3.9211  -21.3412 H   0  0  0  0  0  0
    6.7206    2.9482  -20.4579 H   0  0  0  0  0  0
    6.1032    2.5249  -24.6809 H   0  0  0  0  0  0
    5.8945    4.0882  -23.8276 H   0  0  0  0  0  0
   -5.8977    4.0177  -25.7662 H   0  0  0  0  0  0
    2.0022    1.6400  -24.6120 H   0  0  0  0  0  0
    2.9025    1.2608  -22.7240 H   0  0  0  0  0  0
    4.0732    0.5664  -23.9085 H   0  0  0  0  0  0
    4.6548   -0.0465  -21.5512 H   0  0  0  0  0  0
    7.5673    2.6873  -22.6367 H   0  0  0  0  0  0
    3.9345    2.4929  -20.7655 H   0  0  0  0  0  0
    5.2188    1.4925  -19.8805 H   0  0  0  0  0  0
   -1.7846    3.4298  -26.7435 H   0  0  0  0  0  0
    0.2219    2.1751  -20.6571 H   0  0  0  0  0  0
    6.9392    0.4924  -21.7552 H   0  0  0  0  0  0
   -3.2609    3.5432  -28.1363 H   0  0  0  0  0  0
    9.4760    8.4150  -21.1600 O   0  0  0  0  0  0
    6.2820    9.0460  -22.2580 O   0  0  0  0  0  0
    3.9380    7.2540  -20.9470 N   0  0  1  0  0  0
    7.6840    9.0240  -22.4640 N   0  0  0  0  0  0
    3.5830    7.2690  -22.4090 C   0  0  0  0  0  0
    4.6280    8.4960  -20.4530 C   0  0  0  0  0  0
    6.0320    8.6090  -21.0180 C   0  0  0  0  0  0
    7.1570    8.2960  -20.4010 C   0  0  0  0  0  0
    8.1830    8.5730  -21.3440 C   0  0  0  0  0  0
    9.9200    7.8970  -19.8900 C   0  0  0  0  0  0
    3.0389    7.1430  -20.3590 H   0  0  0  0  0  0
    4.4856    7.4741  -23.0034 H   0  0  0  0  0  0
    2.8502    8.0668  -22.6000 H   0  0  0  0  0  0
    4.6760    8.4770  -19.3542 H   0  0  0  0  0  0
    4.0442    9.3807  -20.7469 H   0  0  0  0  0  0
    7.1310    7.9171  -19.3804 H   0  0  0  0  0  0
   11.0174    7.8220  -19.8890 H   0  0  0  0  0  0
    9.5980    8.5740  -19.0850 H   0  0  0  0  0  0
    9.4850    6.8999  -19.7270 H   0  0  0  0  0  0
  1  2  2  0  0  0
  1  3  1  0  0  0
  1 34  1  0  0  0
  2  6  1  0  0  0
  2 35  1  0  0  0
  3  5  2  0  0  0
  3 27  1  0  0  0
  4  5  1  0  0  0
  4  6  2  0  0  0
  4 18  1  0  0  0
  5 24  1  0  0  0
  6 10  1  0  0  0
  7 10  2  0  0  0
  7 23  1  0  0  0
  7 33  1  0  0  0
  8 21  1  0  0  0
  8 22  1  0  0  0
  8 36  1  0  0  0
  8 37  1  0  0  0
  9 21  1  0  0  0
  9 31  1  0  0  0
  9 38  1  0  0  0
  9 39  1  0  0  0
 10 40  1  0  0  0
 11 12  1  0  0  0
 11 14  2  0  0  0
 11 15  1  0  0  0
 12 17  1  0  0  0
 12 28  2  0  0  0
 13 28  1  0  0  0
 13 29  2  0  0  0
 13 56  1  0  0  0
 14 29  1  0  0  0
 14 31  1  0  0  0
 15 30  2  0  0  0
 15 41  1  0  0  0
 16 17  2  0  0  0
 16 18  1  0  0  0
 16 30  1  0  0  0
 17 26  1  0  0  0
 18 23  2  0  0  0
 19 20  1  0  0  0
 19 31  1  0  0  0
 19 42  1  0  0  0
 19 43  1  0  0  0
 20 22  1  0  0  0
 20 32  1  0  0  0
 20 44  1  0  0  0
 21 32  1  0  0  0
 21 45  1  0  0  0
 22 46  1  0  0  0
 22 47  1  0  0  0
 23 48  1  0  0  0
 24 25  3  0  0  0
 25 49  1  0  0  0
 32 50  1  0  0  0
 33 51  1  0  0  0
 52 60  1  0  0  0
 52 61  1  0  0  0
 53 55  1  0  0  0
 53 58  1  0  0  0
 54 56  1  0  0  0
 54 57  1  0  0  0
 54 62  1  0  0  0
 55 60  2  0  0  0
 56 63  1  0  0  0
 56 64  1  0  0  0
 57 58  1  0  0  0
 57 65  1  0  0  0
 57 66  1  0  0  0
 58 59  2  0  0  0
 59 60  1  0  0  0
 59 67  1  0  0  0
 61 68  1  0  0  0
 61 69  1  0  0  0
 61 70  1  0  0  0
M  END
> <s_m_entry_id>
495

> <s_m_entry_name>
000000337.1

> <s_m_Source_Path>
/Users/zaksoul/Documents/3r_UNI/2nd_SEMESTER/BSC/FRAG_RECON/RESULTS/2

> <s_m_Source_File>
000000337.mol2

> <i_m_Source_File_Index>
1

$$$$
No_0_355
                    3D
 Schrodinger Suite 2022-4.
 70 76  0  0  1  0            999 V2000
   -5.0080    3.5670  -22.0490 C   0  0  0  0  0  0
   -5.2840    3.7510  -23.3830 C   0  0  0  0  0  0
   -3.7680    3.3130  -21.7160 C   0  0  0  0  0  0
   -2.8930    3.4300  -23.8890 C   0  0  0  0  0  0
   -2.7220    3.1900  -22.4690 C   0  0  0  0  0  0
   -4.2440    3.6930  -24.4010 C   0  0  0  0  0  0
   -3.5050    3.7050  -26.6050 C   0  0  0  0  0  0
    6.2620    2.9730  -21.4090 C   0  0  0  0  0  0
    6.1050    3.1070  -23.9580 C   0  0  0  0  0  0
   -4.5050    3.8160  -25.7350 C   0  0  0  0  0  0
    2.3210    3.6610  -23.9490 C   0  0  0  0  0  0
    1.5040    4.7720  -23.6480 C   0  0  0  0  0  0
    3.3090    5.9670  -22.9860 C   0  0  0  0  0  0
    3.7240    3.8510  -23.6470 C   0  0  0  0  0  0
    1.7680    2.5420  -24.6020 C   0  0  0  0  0  0
   -0.3570    3.3600  -24.4790 C   0  0  0  0  0  0
    0.1760    4.5810  -23.8880 C   0  0  0  0  0  0
   -1.8130    3.3670  -24.8220 C   0  0  0  0  0  0
    4.3270    1.3530  -23.3510 C   0  0  0  0  0  0
    5.2690    0.9990  -22.2100 C   0  0  2  0  0  0
    6.8610    2.5350  -22.7640 C   0  0  2  0  0  0
    5.2610    2.0050  -21.0460 C   0  0  0  0  0  0
   -2.1490    3.5220  -26.2490 C   0  0  0  0  0  0
   -1.3740    2.7760  -21.8790 C   0  0  0  0  0  0
   -0.3400    2.4290  -21.3800 C   0  0  0  0  0  0
   -0.6620    5.6290  -23.5410 F   0  0  0  0  0  0
   -3.5480    3.0750  -20.3350 F   0  0  0  0  0  0
    1.9870    5.9320  -23.1240 N   0  0  0  0  0  0
    4.2020    5.0020  -23.2090 N   0  0  0  0  0  0
    0.4590    2.4540  -24.8980 N   0  0  0  0  0  0
    4.6390    2.8000  -23.8270 N   0  0  0  0  0  0
    6.6720    1.0620  -22.7030 N   0  0  1  0  0  0
   -3.6880    3.7150  -27.9930 O   0  0  0  0  0  0
   -5.8045    3.6332  -21.3167 H   0  0  0  0  0  0
   -6.3007    3.9467  -23.7042 H   0  0  0  0  0  0
    5.7920    3.9614  -21.5189 H   0  0  0  0  0  0
    7.0543    2.9851  -20.6460 H   0  0  0  0  0  0
    6.4913    2.6581  -24.8850 H   0  0  0  0  0  0
    6.2493    4.1968  -23.9963 H   0  0  0  0  0  0
   -5.5178    4.0007  -26.0743 H   0  0  0  0  0  0
    2.4034    1.7109  -24.8861 H   0  0  0  0  0  0
    3.2867    1.2995  -22.9975 H   0  0  0  0  0  0
    4.4824    0.6519  -24.1843 H   0  0  0  0  0  0
    5.0459   -0.0113  -21.8365 H   0  0  0  0  0  0
    7.9295    2.7905  -22.8195 H   0  0  0  0  0  0
    4.2787    2.4977  -20.9975 H   0  0  0  0  0  0
    5.5679    1.4942  -20.1214 H   0  0  0  0  0  0
   -1.3847    3.4979  -27.0173 H   0  0  0  0  0  0
    0.5699    2.1230  -20.9400 H   0  0  0  0  0  0
    7.3242    0.5659  -21.9995 H   0  0  0  0  0  0
   -2.8466    3.6239  -28.4246 H   0  0  0  0  0  0
    9.7940    8.9030  -22.4070 O   0  0  0  0  0  0
    6.3980    9.3230  -22.7140 O   0  0  0  0  0  0
    4.5450    7.1640  -21.1870 N   0  0  1  0  0  0
    7.7170    9.4680  -23.2120 N   0  0  0  0  0  0
    3.8740    7.3070  -22.5270 C   0  0  0  0  0  0
    5.2320    8.4070  -20.6910 C   0  0  0  0  0  0
    6.4630    8.7260  -21.5180 C   0  0  0  0  0  0
    7.7170    8.4630  -21.1980 C   0  0  0  0  0  0
    8.4840    8.9480  -22.2920 C   0  0  0  0  0  0
   10.5470    8.2940  -21.3390 C   0  0  0  0  0  0
    3.8097    6.8959  -20.4427 H   0  0  0  0  0  0
    4.6050    7.6690  -23.2650 H   0  0  0  0  0  0
    3.0590    8.0420  -22.4520 H   0  0  0  0  0  0
    5.5229    8.2690  -19.6392 H   0  0  0  0  0  0
    4.5323    9.2546  -20.7350 H   0  0  0  0  0  0
    7.9469    7.9702  -20.2545 H   0  0  0  0  0  0
   11.6200    8.3320  -21.5780 H   0  0  0  0  0  0
   10.3610    8.8391  -20.4018 H   0  0  0  0  0  0
   10.2349    7.2458  -21.2210 H   0  0  0  0  0  0
  1  2  2  0  0  0
  1  3  1  0  0  0
  1 34  1  0  0  0
  2  6  1  0  0  0
  2 35  1  0  0  0
  3  5  2  0  0  0
  3 27  1  0  0  0
  4  5  1  0  0  0
  4  6  2  0  0  0
  4 18  1  0  0  0
  5 24  1  0  0  0
  6 10  1  0  0  0
  7 10  2  0  0  0
  7 23  1  0  0  0
  7 33  1  0  0  0
  8 21  1  0  0  0
  8 22  1  0  0  0
  8 36  1  0  0  0
  8 37  1  0  0  0
  9 21  1  0  0  0
  9 31  1  0  0  0
  9 38  1  0  0  0
  9 39  1  0  0  0
 10 40  1  0  0  0
 11 12  1  0  0  0
 11 14  2  0  0  0
 11 15  1  0  0  0
 12 17  1  0  0  0
 12 28  2  0  0  0
 13 28  1  0  0  0
 13 29  2  0  0  0
 13 56  1  0  0  0
 14 29  1  0  0  0
 14 31  1  0  0  0
 15 30  2  0  0  0
 15 41  1  0  0  0
 16 17  2  0  0  0
 16 18  1  0  0  0
 16 30  1  0  0  0
 17 26  1  0  0  0
 18 23  2  0  0  0
 19 20  1  0  0  0
 19 31  1  0  0  0
 19 42  1  0  0  0
 19 43  1  0  0  0
 20 22  1  0  0  0
 20 32  1  0  0  0
 20 44  1  0  0  0
 21 32  1  0  0  0
 21 45  1  0  0  0
 22 46  1  0  0  0
 22 47  1  0  0  0
 23 48  1  0  0  0
 24 25  3  0  0  0
 25 49  1  0  0  0
 32 50  1  0  0  0
 33 51  1  0  0  0
 52 60  1  0  0  0
 52 61  1  0  0  0
 53 55  1  0  0  0
 53 58  1  0  0  0
 54 56  1  0  0  0
 54 57  1  0  0  0
 54 62  1  0  0  0
 55 60  2  0  0  0
 56 63  1  0  0  0
 56 64  1  0  0  0
 57 58  1  0  0  0
 57 65  1  0  0  0
 57 66  1  0  0  0
 58 59  2  0  0  0
 59 60  1  0  0  0
 59 67  1  0  0  0
 61 68  1  0  0  0
 61 69  1  0  0  0
 61 70  1  0  0  0
M  END
> <s_m_entry_id>
496

> <s_m_entry_name>
000000338.1

> <s_m_Source_Path>
/Users/zaksoul/Documents/3r_UNI/2nd_SEMESTER/BSC/FRAG_RECON/RESULTS/2

> <s_m_Source_File>
000000338.mol2

> <i_m_Source_File_Index>
1

$$$$
No_0_356
                    3D
 Schrodinger Suite 2022-4.
 70 76  0  0  1  0            999 V2000
   -5.3410    3.4920  -21.9570 C   0  0  0  0  0  0
   -5.6100    3.6820  -23.2920 C   0  0  0  0  0  0
   -4.1030    3.2350  -21.6190 C   0  0  0  0  0  0
   -3.2160    3.3610  -23.7860 C   0  0  0  0  0  0
   -3.0530    3.1150  -22.3660 C   0  0  0  0  0  0
   -4.5640    3.6270  -24.3040 C   0  0  0  0  0  0
   -3.8130    3.6480  -26.5040 C   0  0  0  0  0  0
    5.9250    2.8880  -21.2590 C   0  0  0  0  0  0
    5.7810    3.0330  -23.8080 C   0  0  0  0  0  0
   -4.8180    3.7560  -25.6390 C   0  0  0  0  0  0
    1.9980    3.5890  -23.8180 C   0  0  0  0  0  0
    1.1800    4.7000  -23.5160 C   0  0  0  0  0  0
    2.9820    5.8910  -22.8390 C   0  0  0  0  0  0
    3.3990    3.7770  -23.5070 C   0  0  0  0  0  0
    1.4480    2.4740  -24.4780 C   0  0  0  0  0  0
   -0.6780    3.2920  -24.3630 C   0  0  0  0  0  0
   -0.1470    4.5110  -23.7640 C   0  0  0  0  0  0
   -2.1310    3.3020  -24.7140 C   0  0  0  0  0  0
    4.0000    1.2770  -23.2180 C   0  0  0  0  0  0
    4.9350    0.9190  -22.0740 C   0  0  2  0  0  0
    6.5300    2.4560  -22.6130 C   0  0  2  0  0  0
    4.9220    1.9190  -20.9060 C   0  0  0  0  0  0
   -2.4590    3.4630  -26.1410 C   0  0  0  0  0  0
   -1.7080    2.6990  -21.7710 C   0  0  0  0  0  0
   -0.6770    2.3480  -21.2670 C   0  0  0  0  0  0
   -0.9850    5.5580  -23.4170 F   0  0  0  0  0  0
   -3.8900    2.9920  -20.2370 F   0  0  0  0  0  0
    1.6610    5.8570  -22.9850 N   0  0  0  0  0  0
    3.8760    4.9260  -23.0620 N   0  0  0  0  0  0
    0.1400    2.3880  -24.7810 N   0  0  0  0  0  0
    4.3150    2.7270  -23.6870 N   0  0  0  0  0  0
    6.3410    0.9830  -22.5590 N   0  0  1  0  0  0
   -3.9890    3.6640  -27.8930 O   0  0  0  0  0  0
   -6.1414    3.5562  -21.2288 H   0  0  0  0  0  0
   -6.6250    3.8798  -23.6173 H   0  0  0  0  0  0
    5.4570    3.8775  -21.3679 H   0  0  0  0  0  0
    6.7133    2.8961  -20.4919 H   0  0  0  0  0  0
    6.1723    2.5882  -24.7349 H   0  0  0  0  0  0
    5.9263    4.1229  -23.8413 H   0  0  0  0  0  0
   -5.8286    3.9437  -25.9832 H   0  0  0  0  0  0
    2.0845    1.6438  -24.7621 H   0  0  0  0  0  0
    2.9576    1.2235  -22.8709 H   0  0  0  0  0  0
    4.1585    0.5795  -24.0537 H   0  0  0  0  0  0
    4.7091   -0.0926  -21.7059 H   0  0  0  0  0  0
    7.5989    2.7111  -22.6614 H   0  0  0  0  0  0
    3.9400    2.4125  -20.8596 H   0  0  0  0  0  0
    5.2228    1.4043  -19.9815 H   0  0  0  0  0  0
   -1.6911    3.4419  -26.9059 H   0  0  0  0  0  0
    0.2306    2.0398  -20.8237 H   0  0  0  0  0  0
    6.9889    0.4827  -21.8545 H   0  0  0  0  0  0
   -3.1454    3.5749  -28.3207 H   0  0  0  0  0  0
    9.2930    9.2200  -23.1490 O   0  0  0  0  0  0
    5.8790    9.4240  -22.8210 O   0  0  0  0  0  0
    4.4540    7.0320  -21.1870 N   0  0  1  0  0  0
    7.0770    9.6980  -23.5270 N   0  0  0  0  0  0
    3.5460    7.2280  -22.3710 C   0  0  0  0  0  0
    5.1480    8.2790  -20.7120 C   0  0  0  0  0  0
    6.1920    8.7440  -21.7110 C   0  0  0  0  0  0
    7.4950    8.5460  -21.6390 C   0  0  0  0  0  0
    8.0250    9.1650  -22.8040 C   0  0  0  0  0  0
   10.2580    8.5870  -22.2860 C   0  0  0  0  0  0
    3.8809    6.6570  -20.3519 H   0  0  0  0  0  0
    4.1099    7.6950  -23.1919 H   0  0  0  0  0  0
    2.7185    7.8966  -22.0912 H   0  0  0  0  0  0
    5.6309    8.0831  -19.7433 H   0  0  0  0  0  0
    4.4057    9.0764  -20.5599 H   0  0  0  0  0  0
    7.9170    8.0010  -20.7959 H   0  0  0  0  0  0
   11.2668    8.7170  -22.7049 H   0  0  0  0  0  0
   10.2140    9.0451  -21.2869 H   0  0  0  0  0  0
   10.0309    7.5137  -22.2060 H   0  0  0  0  0  0
  1  2  2  0  0  0
  1  3  1  0  0  0
  1 34  1  0  0  0
  2  6  1  0  0  0
  2 35  1  0  0  0
  3  5  2  0  0  0
  3 27  1  0  0  0
  4  5  1  0  0  0
  4  6  2  0  0  0
  4 18  1  0  0  0
  5 24  1  0  0  0
  6 10  1  0  0  0
  7 10  2  0  0  0
  7 23  1  0  0  0
  7 33  1  0  0  0
  8 21  1  0  0  0
  8 22  1  0  0  0
  8 36  1  0  0  0
  8 37  1  0  0  0
  9 21  1  0  0  0
  9 31  1  0  0  0
  9 38  1  0  0  0
  9 39  1  0  0  0
 10 40  1  0  0  0
 11 12  1  0  0  0
 11 14  2  0  0  0
 11 15  1  0  0  0
 12 17  1  0  0  0
 12 28  2  0  0  0
 13 28  1  0  0  0
 13 29  2  0  0  0
 13 56  1  0  0  0
 14 29  1  0  0  0
 14 31  1  0  0  0
 15 30  2  0  0  0
 15 41  1  0  0  0
 16 17  2  0  0  0
 16 18  1  0  0  0
 16 30  1  0  0  0
 17 26  1  0  0  0
 18 23  2  0  0  0
 19 20  1  0  0  0
 19 31  1  0  0  0
 19 42  1  0  0  0
 19 43  1  0  0  0
 20 22  1  0  0  0
 20 32  1  0  0  0
 20 44  1  0  0  0
 21 32  1  0  0  0
 21 45  1  0  0  0
 22 46  1  0  0  0
 22 47  1  0  0  0
 23 48  1  0  0  0
 24 25  3  0  0  0
 25 49  1  0  0  0
 32 50  1  0  0  0
 33 51  1  0  0  0
 52 60  1  0  0  0
 52 61  1  0  0  0
 53 55  1  0  0  0
 53 58  1  0  0  0
 54 56  1  0  0  0
 54 57  1  0  0  0
 54 62  1  0  0  0
 55 60  2  0  0  0
 56 63  1  0  0  0
 56 64  1  0  0  0
 57 58  1  0  0  0
 57 65  1  0  0  0
 57 66  1  0  0  0
 58 59  2  0  0  0
 59 60  1  0  0  0
 59 67  1  0  0  0
 61 68  1  0  0  0
 61 69  1  0  0  0
 61 70  1  0  0  0
M  END
> <s_m_entry_id>
497

> <s_m_entry_name>
000000339.1

> <s_m_Source_Path>
/Users/zaksoul/Documents/3r_UNI/2nd_SEMESTER/BSC/FRAG_RECON/RESULTS/2

> <s_m_Source_File>
000000339.mol2

> <i_m_Source_File_Index>
1

$$$$
No_0_357
                    3D
 Schrodinger Suite 2022-4.
 70 76  0  0  1  0            999 V2000
   -5.1800    3.4330  -21.6710 C   0  0  0  0  0  0
   -5.5100    3.5890  -22.9970 C   0  0  0  0  0  0
   -3.9260    3.1930  -21.3830 C   0  0  0  0  0  0
   -3.1380    3.2720  -23.5900 C   0  0  0  0  0  0
   -2.9090    3.0620  -22.1740 C   0  0  0  0  0  0
   -4.5090    3.5170  -24.0540 C   0  0  0  0  0  0
   -3.8580    3.4910  -26.2850 C   0  0  0  0  0  0
    6.1100    2.9210  -21.4650 C   0  0  0  0  0  0
    5.8520    3.0030  -24.0080 C   0  0  0  0  0  0
   -4.8230    3.6120  -25.3780 C   0  0  0  0  0  0
    2.0680    3.5340  -23.8600 C   0  0  0  0  0  0
    1.2560    4.6460  -23.5490 C   0  0  0  0  0  0
    3.0770    5.8650  -22.9820 C   0  0  0  0  0  0
    3.4800    3.7380  -23.6180 C   0  0  0  0  0  0
    1.4970    2.4000  -24.4690 C   0  0  0  0  0  0
   -0.6270    3.2060  -24.2780 C   0  0  0  0  0  0
   -0.0790    4.4430  -23.7330 C   0  0  0  0  0  0
   -2.0950    3.1980  -24.5640 C   0  0  0  0  0  0
    4.1120    1.2510  -23.2970 C   0  0  0  0  0  0
    5.1000    0.9260  -22.1870 C   0  0  2  0  0  0
    6.6580    2.4600  -22.8330 C   0  0  2  0  0  0
    5.1310    1.9540  -21.0440 C   0  0  0  0  0  0
   -2.4880    3.3230  -25.9790 C   0  0  0  0  0  0
   -1.5370    2.6680  -21.6290 C   0  0  0  0  0  0
   -0.4810    2.3370  -21.1640 C   0  0  0  0  0  0
   -0.9100    5.4920  -23.3740 F   0  0  0  0  0  0
   -3.6500    2.9840  -20.0070 F   0  0  0  0  0  0
    1.7510    5.8190  -23.0670 N   0  0  0  0  0  0
    3.9680    4.9010  -23.2210 N   0  0  0  0  0  0
    0.1780    2.2970  -24.7110 N   0  0  0  0  0  0
    4.3950    2.6900  -23.8130 N   0  0  0  0  0  0
    6.4820    0.9870  -22.7360 N   0  0  1  0  0  0
   -4.0960    3.4720  -27.6650 O   0  0  0  0  0  0
   -5.9476    3.5093  -20.9094 H   0  0  0  0  0  0
   -6.5398    3.7717  -23.2820 H   0  0  0  0  0  0
    5.6294    3.9043  -21.5750 H   0  0  0  0  0  0
    6.9311    2.9523  -20.7337 H   0  0  0  0  0  0
    6.2052    2.5387  -24.9406 H   0  0  0  0  0  0
    5.9872    4.0927  -24.0726 H   0  0  0  0  0  0
   -5.8494    3.7846  -25.6810 H   0  0  0  0  0  0
    2.1262    1.5670  -24.7610 H   0  0  0  0  0  0
    3.0870    1.1975  -22.9015 H   0  0  0  0  0  0
    4.2391    0.5337  -24.1212 H   0  0  0  0  0  0
    4.8992   -0.0782  -21.7853 H   0  0  0  0  0  0
    7.7218    2.7204  -22.9359 H   0  0  0  0  0  0
    4.1480    2.4414  -20.9653 H   0  0  0  0  0  0
    5.4770    1.4638  -20.1221 H   0  0  0  0  0  0
   -1.7542    3.2879  -26.7761 H   0  0  0  0  0  0
    0.4476    2.0448  -20.7547 H   0  0  0  0  0  0
    7.1652    0.5091  -22.0496 H   0  0  0  0  0  0
   -3.2712    3.3780  -28.1269 H   0  0  0  0  0  0
    3.7150    7.3510  -21.0730 N   0  0  1  0  0  0
    7.5250    9.4230  -22.0560 N   0  0  0  0  0  0
    6.1700    9.4370  -21.9940 N   0  0  0  0  0  0
    4.2820    8.6530  -20.5700 C   0  0  0  0  0  0
    3.6510    7.2170  -22.5710 C   0  0  0  0  0  0
    6.8630    8.3540  -20.2160 C   0  0  0  0  0  0
    9.3650    8.4920  -20.6160 C   0  0  0  0  0  0
    5.7490    8.8150  -20.9220 C   0  0  0  0  0  0
    7.9110    8.7470  -20.9450 C   0  0  0  0  0  0
    4.3214    6.5314  -20.7167 H   0  0  0  0  0  0
    8.0103    9.8743  -22.8445 H   0  0  0  0  0  0
    4.1600    8.7070  -19.4781 H   0  0  0  0  0  0
    3.7089    9.4902  -20.9951 H   0  0  0  0  0  0
    4.6610    7.3290  -22.9920 H   0  0  0  0  0  0
    3.0242    8.0207  -22.9848 H   0  0  0  0  0  0
    6.7300    7.8080  -19.2890 H   0  0  0  0  0  0
    9.4350    7.9293  -19.6734 H   0  0  0  0  0  0
    9.8288    7.9093  -21.4256 H   0  0  0  0  0  0
    9.8911    9.4521  -20.5090 H   0  0  0  0  0  0
  1  2  2  0  0  0
  1  3  1  0  0  0
  1 34  1  0  0  0
  2  6  1  0  0  0
  2 35  1  0  0  0
  3  5  2  0  0  0
  3 27  1  0  0  0
  4  5  1  0  0  0
  4  6  2  0  0  0
  4 18  1  0  0  0
  5 24  1  0  0  0
  6 10  1  0  0  0
  7 10  2  0  0  0
  7 23  1  0  0  0
  7 33  1  0  0  0
  8 21  1  0  0  0
  8 22  1  0  0  0
  8 36  1  0  0  0
  8 37  1  0  0  0
  9 21  1  0  0  0
  9 31  1  0  0  0
  9 38  1  0  0  0
  9 39  1  0  0  0
 10 40  1  0  0  0
 11 12  1  0  0  0
 11 14  2  0  0  0
 11 15  1  0  0  0
 12 17  1  0  0  0
 12 28  2  0  0  0
 13 28  1  0  0  0
 13 29  2  0  0  0
 13 56  1  0  0  0
 14 29  1  0  0  0
 14 31  1  0  0  0
 15 30  2  0  0  0
 15 41  1  0  0  0
 16 17  2  0  0  0
 16 18  1  0  0  0
 16 30  1  0  0  0
 17 26  1  0  0  0
 18 23  2  0  0  0
 19 20  1  0  0  0
 19 31  1  0  0  0
 19 42  1  0  0  0
 19 43  1  0  0  0
 20 22  1  0  0  0
 20 32  1  0  0  0
 20 44  1  0  0  0
 21 32  1  0  0  0
 21 45  1  0  0  0
 22 46  1  0  0  0
 22 47  1  0  0  0
 23 48  1  0  0  0
 24 25  3  0  0  0
 25 49  1  0  0  0
 32 50  1  0  0  0
 33 51  1  0  0  0
 52 55  1  0  0  0
 52 56  1  0  0  0
 52 61  1  0  0  0
 53 54  1  0  0  0
 53 60  1  0  0  0
 53 62  1  0  0  0
 54 59  2  0  0  0
 55 59  1  0  0  0
 55 63  1  0  0  0
 55 64  1  0  0  0
 56 65  1  0  0  0
 56 66  1  0  0  0
 57 59  1  0  0  0
 57 60  2  0  0  0
 57 67  1  0  0  0
 58 60  1  0  0  0
 58 68  1  0  0  0
 58 69  1  0  0  0
 58 70  1  0  0  0
M  END
> <s_m_entry_id>
498

> <s_m_entry_name>
000000340.1

> <s_m_Source_Path>
/Users/zaksoul/Documents/3r_UNI/2nd_SEMESTER/BSC/FRAG_RECON/RESULTS/2

> <s_m_Source_File>
000000340.mol2

> <i_m_Source_File_Index>
1

$$$$
No_0_358
                    3D
 Schrodinger Suite 2022-4.
 70 76  0  0  1  0            999 V2000
   -5.3680    3.5650  -21.9370 C   0  0  0  0  0  0
   -5.6340    3.7380  -23.2740 C   0  0  0  0  0  0
   -4.1290    3.3190  -21.5930 C   0  0  0  0  0  0
   -3.2380    3.4240  -23.7600 C   0  0  0  0  0  0
   -3.0760    3.1950  -22.3370 C   0  0  0  0  0  0
   -4.5860    3.6770  -24.2840 C   0  0  0  0  0  0
   -3.8310    3.6770  -26.4820 C   0  0  0  0  0  0
    5.9000    3.0260  -21.2100 C   0  0  0  0  0  0
    5.7610    3.1400  -23.7610 C   0  0  0  0  0  0
   -4.8380    3.7890  -25.6210 C   0  0  0  0  0  0
    1.9750    3.6780  -23.7840 C   0  0  0  0  0  0
    1.1510    4.7870  -23.4970 C   0  0  0  0  0  0
    2.9460    5.9950  -22.8300 C   0  0  0  0  0  0
    3.3750    3.8760  -23.4730 C   0  0  0  0  0  0
    1.4310    2.5520  -24.4330 C   0  0  0  0  0  0
   -0.6980    3.3610  -24.3310 C   0  0  0  0  0  0
   -0.1750    4.5890  -23.7450 C   0  0  0  0  0  0
   -2.1510    3.3590  -24.6850 C   0  0  0  0  0  0
    3.9870    1.3830  -23.1540 C   0  0  0  0  0  0
    4.9220    1.0420  -22.0040 C   0  0  2  0  0  0
    6.5100    2.5810  -22.5570 C   0  0  2  0  0  0
    4.9010    2.0560  -20.8480 C   0  0  0  0  0  0
   -2.4770    3.5020  -26.1150 C   0  0  0  0  0  0
   -1.7310    2.7920  -21.7340 C   0  0  0  0  0  0
   -0.6990    2.4530  -21.2250 C   0  0  0  0  0  0
   -1.0190    5.6360  -23.4120 F   0  0  0  0  0  0
   -3.9180    3.0920  -20.2090 F   0  0  0  0  0  0
    1.6250    5.9530  -22.9780 N   0  0  0  0  0  0
    3.8450    5.0330  -23.0400 N   0  0  0  0  0  0
    0.1250    2.4560  -24.7370 N   0  0  0  0  0  0
    4.2960    2.8280  -23.6390 N   0  0  0  0  0  0
    6.3280    1.1080  -22.4870 N   0  0  1  0  0  0
   -4.0040    3.6760  -27.8720 O   0  0  0  0  0  0
   -6.1702    3.6333  -21.2111 H   0  0  0  0  0  0
   -6.6492    3.9266  -23.6040 H   0  0  0  0  0  0
    5.4269    4.0116  -21.3311 H   0  0  0  0  0  0
    6.6862    3.0472  -20.4410 H   0  0  0  0  0  0
    6.1568    2.6867  -24.6818 H   0  0  0  0  0  0
    5.9013    4.2301  -23.8054 H   0  0  0  0  0  0
   -5.8488    3.9677  -25.9693 H   0  0  0  0  0  0
    2.0724    1.7219  -24.7060 H   0  0  0  0  0  0
    2.9444    1.3275  -22.8078 H   0  0  0  0  0  0
    4.1506    0.6763  -23.9809 H   0  0  0  0  0  0
    4.7000    0.0337  -21.6245 H   0  0  0  0  0  0
    7.5778    2.8404  -22.6065 H   0  0  0  0  0  0
    3.9161    2.5444  -20.8097 H   0  0  0  0  0  0
    5.2026    1.5537  -19.9170 H   0  0  0  0  0  0
   -1.7072    3.4759  -26.8778 H   0  0  0  0  0  0
    0.2089    2.1540  -20.7761 H   0  0  0  0  0  0
    6.9768    0.6195  -21.7751 H   0  0  0  0  0  0
   -3.1589    3.5859  -28.2965 H   0  0  0  0  0  0
    3.8370    7.3270  -20.9090 N   0  0  1  0  0  0
    7.2610    9.7920  -22.3140 N   0  0  0  0  0  0
    5.9420    9.6890  -22.0090 N   0  0  0  0  0  0
    4.4070    8.6120  -20.3690 C   0  0  0  0  0  0
    3.5020    7.3410  -22.3770 C   0  0  0  0  0  0
    7.0220    8.4910  -20.5210 C   0  0  0  0  0  0
    9.3920    8.8730  -21.3450 C   0  0  0  0  0  0
    5.7690    8.9290  -20.9580 C   0  0  0  0  0  0
    7.8890    9.0410  -21.3760 C   0  0  0  0  0  0
    4.5484    6.5275  -20.7639 H   0  0  0  0  0  0
    7.5601   10.3591  -23.1201 H   0  0  0  0  0  0
    4.4880    8.5450  -19.2740 H   0  0  0  0  0  0
    3.7142    9.4387  -20.5849 H   0  0  0  0  0  0
    4.4065    7.5781  -22.9563 H   0  0  0  0  0  0
    2.7608    8.1293  -22.5751 H   0  0  0  0  0  0
    7.0980    7.8443  -19.6544 H   0  0  0  0  0  0
    9.6719    8.2252  -20.5012 H   0  0  0  0  0  0
    9.7302    8.4157  -22.2866 H   0  0  0  0  0  0
    9.8681    9.8572  -21.2240 H   0  0  0  0  0  0
  1  2  2  0  0  0
  1  3  1  0  0  0
  1 34  1  0  0  0
  2  6  1  0  0  0
  2 35  1  0  0  0
  3  5  2  0  0  0
  3 27  1  0  0  0
  4  5  1  0  0  0
  4  6  2  0  0  0
  4 18  1  0  0  0
  5 24  1  0  0  0
  6 10  1  0  0  0
  7 10  2  0  0  0
  7 23  1  0  0  0
  7 33  1  0  0  0
  8 21  1  0  0  0
  8 22  1  0  0  0
  8 36  1  0  0  0
  8 37  1  0  0  0
  9 21  1  0  0  0
  9 31  1  0  0  0
  9 38  1  0  0  0
  9 39  1  0  0  0
 10 40  1  0  0  0
 11 12  1  0  0  0
 11 14  2  0  0  0
 11 15  1  0  0  0
 12 17  1  0  0  0
 12 28  2  0  0  0
 13 28  1  0  0  0
 13 29  2  0  0  0
 13 56  1  0  0  0
 14 29  1  0  0  0
 14 31  1  0  0  0
 15 30  2  0  0  0
 15 41  1  0  0  0
 16 17  2  0  0  0
 16 18  1  0  0  0
 16 30  1  0  0  0
 17 26  1  0  0  0
 18 23  2  0  0  0
 19 20  1  0  0  0
 19 31  1  0  0  0
 19 42  1  0  0  0
 19 43  1  0  0  0
 20 22  1  0  0  0
 20 32  1  0  0  0
 20 44  1  0  0  0
 21 32  1  0  0  0
 21 45  1  0  0  0
 22 46  1  0  0  0
 22 47  1  0  0  0
 23 48  1  0  0  0
 24 25  3  0  0  0
 25 49  1  0  0  0
 32 50  1  0  0  0
 33 51  1  0  0  0
 52 55  1  0  0  0
 52 56  1  0  0  0
 52 61  1  0  0  0
 53 54  1  0  0  0
 53 60  1  0  0  0
 53 62  1  0  0  0
 54 59  2  0  0  0
 55 59  1  0  0  0
 55 63  1  0  0  0
 55 64  1  0  0  0
 56 65  1  0  0  0
 56 66  1  0  0  0
 57 59  1  0  0  0
 57 60  2  0  0  0
 57 67  1  0  0  0
 58 60  1  0  0  0
 58 68  1  0  0  0
 58 69  1  0  0  0
 58 70  1  0  0  0
M  END
> <s_m_entry_id>
499

> <s_m_entry_name>
000000341.1

> <s_m_Source_Path>
/Users/zaksoul/Documents/3r_UNI/2nd_SEMESTER/BSC/FRAG_RECON/RESULTS/2

> <s_m_Source_File>
000000341.mol2

> <i_m_Source_File_Index>
1

$$$$
No_0_359
                    3D
 Schrodinger Suite 2022-4.
 70 76  0  0  1  0            999 V2000
   -5.0210    3.6020  -22.0460 C   0  0  0  0  0  0
   -5.2820    3.7710  -23.3850 C   0  0  0  0  0  0
   -3.7830    3.3600  -21.6960 C   0  0  0  0  0  0
   -2.8820    3.4610  -23.8590 C   0  0  0  0  0  0
   -2.7270    3.2370  -22.4350 C   0  0  0  0  0  0
   -4.2290    3.7100  -24.3900 C   0  0  0  0  0  0
   -3.4640    3.7050  -26.5850 C   0  0  0  0  0  0
    6.2450    3.0930  -21.2660 C   0  0  0  0  0  0
    6.1170    3.1990  -23.8180 C   0  0  0  0  0  0
   -4.4750    3.8180  -25.7280 C   0  0  0  0  0  0
    2.3300    3.7280  -23.8600 C   0  0  0  0  0  0
    1.5020    4.8360  -23.5800 C   0  0  0  0  0  0
    3.2910    6.0500  -22.9080 C   0  0  0  0  0  0
    3.7280    3.9300  -23.5430 C   0  0  0  0  0  0
    1.7920    2.5990  -24.5080 C   0  0  0  0  0  0
   -0.3400    3.4030  -24.4180 C   0  0  0  0  0  0
    0.1780    4.6340  -23.8340 C   0  0  0  0  0  0
   -1.7910    3.3970  -24.7790 C   0  0  0  0  0  0
    4.3450    1.4390  -23.2140 C   0  0  0  0  0  0
    5.2750    1.1040  -22.0580 C   0  0  2  0  0  0
    6.8620    2.6450  -22.6090 C   0  0  2  0  0  0
    5.2460    2.1210  -20.9050 C   0  0  0  0  0  0
   -2.1110    3.5350  -26.2110 C   0  0  0  0  0  0
   -1.3830    2.8390  -21.8250 C   0  0  0  0  0  0
   -0.3530    2.5030  -21.3100 C   0  0  0  0  0  0
   -0.6700    5.6790  -23.5070 F   0  0  0  0  0  0
   -3.5770    3.1380  -20.3100 F   0  0  0  0  0  0
    1.9710    6.0050  -23.0620 N   0  0  0  0  0  0
    4.1930    5.0890  -23.1110 N   0  0  0  0  0  0
    0.4880    2.4990  -24.8180 N   0  0  0  0  0  0
    4.6520    2.8840  -23.7010 N   0  0  0  0  0  0
    6.6830    1.1720  -22.5350 N   0  0  1  0  0  0
   -3.6300    3.7000  -27.9760 O   0  0  0  0  0  0
   -5.8265    3.6713  -21.3239 H   0  0  0  0  0  0
   -6.2957    3.9567  -23.7212 H   0  0  0  0  0  0
    5.7696    4.0771  -21.3912 H   0  0  0  0  0  0
    7.0277    3.1172  -20.4934 H   0  0  0  0  0  0
    6.5178    2.7437  -24.7357 H   0  0  0  0  0  0
    6.2552    4.2893  -23.8654 H   0  0  0  0  0  0
   -5.4848    3.9927  -26.0813 H   0  0  0  0  0  0
    2.4361    1.7693  -24.7759 H   0  0  0  0  0  0
    3.3010    1.3825  -22.8721 H   0  0  0  0  0  0
    4.5145    0.7307  -24.0384 H   0  0  0  0  0  0
    5.0540    0.0958  -21.6775 H   0  0  0  0  0  0
    7.9293    2.9073  -22.6544 H   0  0  0  0  0  0
    4.2599    2.6075  -20.8727 H   0  0  0  0  0  0
    5.5447    1.6215  -19.9716 H   0  0  0  0  0  0
   -1.3372    3.5089  -26.9697 H   0  0  0  0  0  0
    0.5537    2.2081  -20.8561 H   0  0  0  0  0  0
    7.3301    0.6864  -21.8195 H   0  0  0  0  0  0
   -2.7825    3.6099  -28.3958 H   0  0  0  0  0  0
    4.4380    7.3100  -21.0760 N   0  0  1  0  0  0
    7.4020   10.0990  -22.8670 N   0  0  0  0  0  0
    6.1690    9.8830  -22.3430 N   0  0  0  0  0  0
    5.0210    8.5940  -20.5470 C   0  0  0  0  0  0
    3.8420    7.3990  -22.4560 C   0  0  0  0  0  0
    7.5680    8.6680  -21.1680 C   0  0  0  0  0  0
    9.7230    9.2710  -22.3640 C   0  0  0  0  0  0
    6.2330    9.0450  -21.3400 C   0  0  0  0  0  0
    8.2320    9.3330  -22.1160 C   0  0  0  0  0  0
    5.2089    6.5551  -21.1220 H   0  0  0  0  0  0
    7.5170   10.7389  -23.6659 H   0  0  0  0  0  0
    5.3039    8.4601  -19.4925 H   0  0  0  0  0  0
    4.2539    9.3821  -20.5710 H   0  0  0  0  0  0
    4.6111    7.7370  -23.1661 H   0  0  0  0  0  0
    3.0324    8.1437  -22.4580 H   0  0  0  0  0  0
    7.8369    7.9723  -20.3814 H   0  0  0  0  0  0
   10.1880    8.5890  -21.6370 H   0  0  0  0  0  0
    9.9109    8.9032  -23.3835 H   0  0  0  0  0  0
   10.1560   10.2761  -22.2530 H   0  0  0  0  0  0
  1  2  2  0  0  0
  1  3  1  0  0  0
  1 34  1  0  0  0
  2  6  1  0  0  0
  2 35  1  0  0  0
  3  5  2  0  0  0
  3 27  1  0  0  0
  4  5  1  0  0  0
  4  6  2  0  0  0
  4 18  1  0  0  0
  5 24  1  0  0  0
  6 10  1  0  0  0
  7 10  2  0  0  0
  7 23  1  0  0  0
  7 33  1  0  0  0
  8 21  1  0  0  0
  8 22  1  0  0  0
  8 36  1  0  0  0
  8 37  1  0  0  0
  9 21  1  0  0  0
  9 31  1  0  0  0
  9 38  1  0  0  0
  9 39  1  0  0  0
 10 40  1  0  0  0
 11 12  1  0  0  0
 11 14  2  0  0  0
 11 15  1  0  0  0
 12 17  1  0  0  0
 12 28  2  0  0  0
 13 28  1  0  0  0
 13 29  2  0  0  0
 13 56  1  0  0  0
 14 29  1  0  0  0
 14 31  1  0  0  0
 15 30  2  0  0  0
 15 41  1  0  0  0
 16 17  2  0  0  0
 16 18  1  0  0  0
 16 30  1  0  0  0
 17 26  1  0  0  0
 18 23  2  0  0  0
 19 20  1  0  0  0
 19 31  1  0  0  0
 19 42  1  0  0  0
 19 43  1  0  0  0
 20 22  1  0  0  0
 20 32  1  0  0  0
 20 44  1  0  0  0
 21 32  1  0  0  0
 21 45  1  0  0  0
 22 46  1  0  0  0
 22 47  1  0  0  0
 23 48  1  0  0  0
 24 25  3  0  0  0
 25 49  1  0  0  0
 32 50  1  0  0  0
 33 51  1  0  0  0
 52 55  1  0  0  0
 52 56  1  0  0  0
 52 61  1  0  0  0
 53 54  1  0  0  0
 53 60  1  0  0  0
 53 62  1  0  0  0
 54 59  2  0  0  0
 55 59  1  0  0  0
 55 63  1  0  0  0
 55 64  1  0  0  0
 56 65  1  0  0  0
 56 66  1  0  0  0
 57 59  1  0  0  0
 57 60  2  0  0  0
 57 67  1  0  0  0
 58 60  1  0  0  0
 58 68  1  0  0  0
 58 69  1  0  0  0
 58 70  1  0  0  0
M  END
> <s_m_entry_id>
500

> <s_m_entry_name>
000000342.1

> <s_m_Source_Path>
/Users/zaksoul/Documents/3r_UNI/2nd_SEMESTER/BSC/FRAG_RECON/RESULTS/2

> <s_m_Source_File>
000000342.mol2

> <i_m_Source_File_Index>
1

$$$$
No_0_360
                    3D
 Schrodinger Suite 2022-4.
 76 82  0  0  1  0            999 V2000
   -5.3340    3.8220  -22.0230 C   0  0  0  0  0  0
   -5.5940    3.9800  -23.3640 C   0  0  0  0  0  0
   -4.1020    3.5470  -21.6740 C   0  0  0  0  0  0
   -3.2070    3.5920  -23.8420 C   0  0  0  0  0  0
   -3.0530    3.3830  -22.4150 C   0  0  0  0  0  0
   -4.5480    3.8740  -24.3710 C   0  0  0  0  0  0
   -3.7910    3.8170  -26.5680 C   0  0  0  0  0  0
    5.9150    2.9860  -21.2750 C   0  0  0  0  0  0
    5.7810    3.0620  -23.8270 C   0  0  0  0  0  0
   -4.7950    3.9710  -25.7100 C   0  0  0  0  0  0
    2.0110    3.7030  -23.8630 C   0  0  0  0  0  0
    1.2170    4.8390  -23.5950 C   0  0  0  0  0  0
    3.0440    6.0080  -22.9470 C   0  0  0  0  0  0
    3.4150    3.8670  -23.5540 C   0  0  0  0  0  0
    1.4370    2.5820  -24.4940 C   0  0  0  0  0  0
   -0.6700    3.4500  -24.4080 C   0  0  0  0  0  0
   -0.1130    4.6730  -23.8420 C   0  0  0  0  0  0
   -2.1220    3.4830  -24.7640 C   0  0  0  0  0  0
    3.9590    1.3640  -23.1940 C   0  0  0  0  0  0
    4.8830    1.0170  -22.0370 C   0  0  2  0  0  0
    6.5140    2.5020  -22.6130 C   0  0  2  0  0  0
    4.8890    2.0500  -20.8970 C   0  0  0  0  0  0
   -2.4430    3.6110  -26.1960 C   0  0  0  0  0  0
   -1.7200    2.9530  -21.8040 C   0  0  0  0  0  0
   -0.6980    2.5940  -21.2880 C   0  0  0  0  0  0
   -0.9290    5.7480  -23.5270 F   0  0  0  0  0  0
   -3.8980    3.3370  -20.2860 F   0  0  0  0  0  0
    1.7230    6.0000  -23.0950 N   0  0  0  0  0  0
    3.9170    5.0180  -23.1390 N   0  0  0  0  0  0
    0.1290    2.5160  -24.7980 N   0  0  0  0  0  0
    4.3070    2.7920  -23.7020 N   0  0  0  0  0  0
    6.2910    1.0360  -22.5190 N   0  0  1  0  0  0
   -3.9630    3.7980  -27.9580 O   0  0  0  0  0  0
   -6.1343    3.9244  -21.2990 H   0  0  0  0  0  0
   -6.6033    4.1917  -23.6981 H   0  0  0  0  0  0
    5.4689    3.9821  -21.4123 H   0  0  0  0  0  0
    6.7003    2.9981  -20.5048 H   0  0  0  0  0  0
    6.1643    2.5828  -24.7399 H   0  0  0  0  0  0
    5.9506    4.1470  -23.8896 H   0  0  0  0  0  0
   -5.8007    4.1717  -26.0613 H   0  0  0  0  0  0
    2.0552    1.7300  -24.7529 H   0  0  0  0  0  0
    2.9150    1.3428  -22.8480 H   0  0  0  0  0  0
    4.1034    0.6391  -24.0087 H   0  0  0  0  0  0
    4.6338    0.0213  -21.6415 H   0  0  0  0  0  0
    7.5885    2.7312  -22.6665 H   0  0  0  0  0  0
    3.9179    2.5658  -20.8677 H   0  0  0  0  0  0
    5.1766    1.5535  -19.9585 H   0  0  0  0  0  0
   -1.6736    3.5518  -26.9573 H   0  0  0  0  0  0
    0.2008    2.2771  -20.8331 H   0  0  0  0  0  0
    6.9255    0.5406  -21.7990 H   0  0  0  0  0  0
   -3.1208    3.6773  -28.3806 H   0  0  0  0  0  0
    3.9670    7.3380  -21.0450 N   0  3  0  0  0  0
    5.5030   10.0860  -22.9410 N   0  0  0  0  0  0
    6.0810    8.7200  -21.0130 C   0  0  0  0  0  0
    3.6370    7.3450  -22.5140 C   0  0  0  0  0  0
    8.3780    8.1630  -20.6220 C   0  0  0  0  0  0
    4.6440    8.5780  -20.5180 C   0  0  0  0  0  0
    7.7880    9.4980  -22.5030 C   0  0  0  0  0  0
    6.4510    9.4320  -22.1490 C   0  0  0  0  0  0
    7.0510    8.0940  -20.2640 C   0  0  0  0  0  0
    8.7450    8.8680  -21.7460 C   0  0  0  0  0  0
    9.4140    7.4600  -19.7690 C   0  0  0  0  0  0
    4.5375    6.5337  -20.8362 H   0  0  0  0  0  0
    3.1269    7.1670  -20.5149 H   0  0  0  0  0  0
    5.8019   10.6069  -23.7778 H   0  0  0  0  0  0
    4.5055   10.0480  -22.6871 H   0  0  0  0  0  0
    4.5499    7.5460  -23.0939 H   0  0  0  0  0  0
    2.9166    8.1493  -22.7238 H   0  0  0  0  0  0
    4.6370    8.5590  -19.4182 H   0  0  0  0  0  0
    4.0646    9.4646  -20.8152 H   0  0  0  0  0  0
    8.0891   10.0512  -23.3853 H   0  0  0  0  0  0
    6.7749    7.5358  -19.3767 H   0  0  0  0  0  0
    9.7890    8.9260  -22.0320 H   0  0  0  0  0  0
   10.4136    7.6189  -20.1998 H   0  0  0  0  0  0
    9.3860    7.8672  -18.7475 H   0  0  0  0  0  0
    9.1951    6.3824  -19.7400 H   0  0  0  0  0  0
  1  2  2  0  0  0
  1  3  1  0  0  0
  1 34  1  0  0  0
  2  6  1  0  0  0
  2 35  1  0  0  0
  3  5  2  0  0  0
  3 27  1  0  0  0
  4  5  1  0  0  0
  4  6  2  0  0  0
  4 18  1  0  0  0
  5 24  1  0  0  0
  6 10  1  0  0  0
  7 10  2  0  0  0
  7 23  1  0  0  0
  7 33  1  0  0  0
  8 21  1  0  0  0
  8 22  1  0  0  0
  8 36  1  0  0  0
  8 37  1  0  0  0
  9 21  1  0  0  0
  9 31  1  0  0  0
  9 38  1  0  0  0
  9 39  1  0  0  0
 10 40  1  0  0  0
 11 12  1  0  0  0
 11 14  2  0  0  0
 11 15  1  0  0  0
 12 17  1  0  0  0
 12 28  2  0  0  0
 13 28  1  0  0  0
 13 29  2  0  0  0
 13 55  1  0  0  0
 14 29  1  0  0  0
 14 31  1  0  0  0
 15 30  2  0  0  0
 15 41  1  0  0  0
 16 17  2  0  0  0
 16 18  1  0  0  0
 16 30  1  0  0  0
 17 26  1  0  0  0
 18 23  2  0  0  0
 19 20  1  0  0  0
 19 31  1  0  0  0
 19 42  1  0  0  0
 19 43  1  0  0  0
 20 22  1  0  0  0
 20 32  1  0  0  0
 20 44  1  0  0  0
 21 32  1  0  0  0
 21 45  1  0  0  0
 22 46  1  0  0  0
 22 47  1  0  0  0
 23 48  1  0  0  0
 24 25  3  0  0  0
 25 49  1  0  0  0
 32 50  1  0  0  0
 33 51  1  0  0  0
 52 55  1  0  0  0
 52 57  1  0  0  0
 52 63  1  0  0  0
 52 64  1  0  0  0
 53 59  1  0  0  0
 53 65  1  0  0  0
 53 66  1  0  0  0
 54 57  1  0  0  0
 54 59  2  0  0  0
 54 60  1  0  0  0
 55 67  1  0  0  0
 55 68  1  0  0  0
 56 60  2  0  0  0
 56 61  1  0  0  0
 56 62  1  0  0  0
 57 69  1  0  0  0
 57 70  1  0  0  0
 58 59  1  0  0  0
 58 61  2  0  0  0
 58 71  1  0  0  0
 60 72  1  0  0  0
 61 73  1  0  0  0
 62 74  1  0  0  0
 62 75  1  0  0  0
 62 76  1  0  0  0
M  CHG  1  52   1
M  END
> <s_m_entry_id>
501

> <s_m_entry_name>
000000343.1

> <s_m_Source_Path>
/Users/zaksoul/Documents/3r_UNI/2nd_SEMESTER/BSC/FRAG_RECON/RESULTS/2

> <s_m_Source_File>
000000343.mol2

> <i_m_Source_File_Index>
1

$$$$
No_0_361
                    3D
 Schrodinger Suite 2022-4.
 67 73  0  0  1  0            999 V2000
   -5.0810    3.6030  -21.8270 C   0  0  0  0  0  0
   -5.3300    3.8470  -23.1570 C   0  0  0  0  0  0
   -3.8460    3.3440  -21.4790 C   0  0  0  0  0  0
   -2.9250    3.5690  -23.6240 C   0  0  0  0  0  0
   -2.7830    3.2650  -22.2130 C   0  0  0  0  0  0
   -4.2670    3.8450  -24.1530 C   0  0  0  0  0  0
   -3.4800    3.9670  -26.3370 C   0  0  0  0  0  0
    6.1780    3.0740  -20.9650 C   0  0  0  0  0  0
    6.0750    3.3250  -23.5080 C   0  0  0  0  0  0
   -4.5000    4.0280  -25.4850 C   0  0  0  0  0  0
    2.2860    3.8470  -23.5570 C   0  0  0  0  0  0
    1.4530    4.9360  -23.2230 C   0  0  0  0  0  0
    3.2320    6.1140  -22.4660 C   0  0  0  0  0  0
    3.6810    4.0340  -23.2150 C   0  0  0  0  0  0
    1.7580    2.7550  -24.2740 C   0  0  0  0  0  0
   -0.3770    3.5480  -24.1600 C   0  0  0  0  0  0
    0.1320    4.7450  -23.5010 C   0  0  0  0  0  0
   -1.8240    3.5600  -24.5350 C   0  0  0  0  0  0
    4.3010    1.5300  -23.0220 C   0  0  0  0  0  0
    5.2210    1.1320  -21.8780 C   0  0  2  0  0  0
    6.8090    2.7050  -22.3250 C   0  0  2  0  0  0
    5.1780    2.0820  -20.6700 C   0  0  0  0  0  0
   -2.1300    3.7780  -25.9590 C   0  0  0  0  0  0
   -1.4440    2.8360  -21.6130 C   0  0  0  0  0  0
   -0.4180    2.4740  -21.1070 C   0  0  0  0  0  0
   -0.7220    5.7690  -23.1240 F   0  0  0  0  0  0
   -3.6540    3.0430  -20.1050 F   0  0  0  0  0  0
    1.9130    6.0740  -22.6350 N   0  0  0  0  0  0
    4.1390    5.1680  -22.7140 N   0  0  0  0  0  0
    0.4570    2.6700  -24.6020 N   0  0  0  0  0  0
    4.6090    3.0010  -23.4240 N   0  0  0  0  0  0
    6.6340    1.2290  -22.3370 N   0  0  1  0  0  0
   -3.6330    4.0400  -27.7270 O   0  0  0  0  0  0
   -5.8939    3.6291  -21.1104 H   0  0  0  0  0  0
   -6.3412    4.0488  -23.4914 H   0  0  0  0  0  0
    5.7009    4.0624  -21.0386 H   0  0  0  0  0  0
    6.9527    3.0568  -20.1843 H   0  0  0  0  0  0
    6.4859    2.9232  -24.4459 H   0  0  0  0  0  0
    6.2092    4.4167  -23.4919 H   0  0  0  0  0  0
   -5.5069    4.2207  -25.8373 H   0  0  0  0  0  0
    2.4078    1.9436  -24.5813 H   0  0  0  0  0  0
    3.2537    1.4513  -22.6951 H   0  0  0  0  0  0
    4.4806    0.8702  -23.8836 H   0  0  0  0  0  0
    4.9992    0.1034  -21.5573 H   0  0  0  0  0  0
    7.8761    2.9713  -22.3442 H   0  0  0  0  0  0
    4.1904    2.5637  -20.6195 H   0  0  0  0  0  0
    5.4694    1.5314  -19.7634 H   0  0  0  0  0  0
   -1.3497    3.7971  -26.7112 H   0  0  0  0  0  0
    0.4850    2.1550  -20.6620 H   0  0  0  0  0  0
    7.2748    0.7059  -21.6427 H   0  0  0  0  0  0
   -2.7817    3.9757  -28.1437 H   0  0  0  0  0  0
    4.1140    8.3530  -23.0770 N   0  0  1  0  0  0
    6.8810   10.6500  -23.1900 N   0  0  0  0  0  0
    8.1970   10.4870  -22.9010 N   0  0  0  0  0  0
    4.6350    9.7130  -22.6870 C   0  0  0  0  0  0
    3.7740    7.4350  -21.9320 C   0  0  0  0  0  0
    6.1490    9.7680  -22.5570 C   0  0  0  0  0  0
    7.0010    8.9610  -21.7950 C   0  0  0  0  0  0
    8.2220    9.4390  -22.0430 C   0  0  0  0  0  0
    3.2085    8.4659  -23.6547 H   0  0  0  0  0  0
    8.8988   11.1098  -23.3259 H   0  0  0  0  0  0
    4.1757   10.0222  -21.7365 H   0  0  0  0  0  0
    4.3061   10.4567  -23.4277 H   0  0  0  0  0  0
    3.0158    7.9111  -21.2929 H   0  0  0  0  0  0
    4.6778    7.2460  -21.3341 H   0  0  0  0  0  0
    6.5919    8.1608  -21.1889 H   0  0  0  0  0  0
    9.1669    9.0870  -21.6450 H   0  0  0  0  0  0
  1  2  2  0  0  0
  1  3  1  0  0  0
  1 34  1  0  0  0
  2  6  1  0  0  0
  2 35  1  0  0  0
  3  5  2  0  0  0
  3 27  1  0  0  0
  4  5  1  0  0  0
  4  6  2  0  0  0
  4 18  1  0  0  0
  5 24  1  0  0  0
  6 10  1  0  0  0
  7 10  2  0  0  0
  7 23  1  0  0  0
  7 33  1  0  0  0
  8 21  1  0  0  0
  8 22  1  0  0  0
  8 36  1  0  0  0
  8 37  1  0  0  0
  9 21  1  0  0  0
  9 31  1  0  0  0
  9 38  1  0  0  0
  9 39  1  0  0  0
 10 40  1  0  0  0
 11 12  1  0  0  0
 11 14  2  0  0  0
 11 15  1  0  0  0
 12 17  1  0  0  0
 12 28  2  0  0  0
 13 28  1  0  0  0
 13 29  2  0  0  0
 13 56  1  0  0  0
 14 29  1  0  0  0
 14 31  1  0  0  0
 15 30  2  0  0  0
 15 41  1  0  0  0
 16 17  2  0  0  0
 16 18  1  0  0  0
 16 30  1  0  0  0
 17 26  1  0  0  0
 18 23  2  0  0  0
 19 20  1  0  0  0
 19 31  1  0  0  0
 19 42  1  0  0  0
 19 43  1  0  0  0
 20 22  1  0  0  0
 20 32  1  0  0  0
 20 44  1  0  0  0
 21 32  1  0  0  0
 21 45  1  0  0  0
 22 46  1  0  0  0
 22 47  1  0  0  0
 23 48  1  0  0  0
 24 25  3  0  0  0
 25 49  1  0  0  0
 32 50  1  0  0  0
 33 51  1  0  0  0
 52 55  1  0  0  0
 52 56  1  0  0  0
 52 60  1  0  0  0
 53 54  1  0  0  0
 53 57  2  0  0  0
 54 59  1  0  0  0
 54 61  1  0  0  0
 55 57  1  0  0  0
 55 62  1  0  0  0
 55 63  1  0  0  0
 56 64  1  0  0  0
 56 65  1  0  0  0
 57 58  1  0  0  0
 58 59  2  0  0  0
 58 66  1  0  0  0
 59 67  1  0  0  0
M  END
> <s_m_entry_id>
502

> <s_m_entry_name>
000000344.1

> <s_m_Source_Path>
/Users/zaksoul/Documents/3r_UNI/2nd_SEMESTER/BSC/FRAG_RECON/RESULTS/2

> <s_m_Source_File>
000000344.mol2

> <i_m_Source_File_Index>
1

$$$$
No_0_362
                    3D
 Schrodinger Suite 2022-4.
 67 73  0  0  1  0            999 V2000
   -5.2380    3.8080  -21.7940 C   0  0  0  0  0  0
   -5.4760    4.0280  -23.1300 C   0  0  0  0  0  0
   -4.0130    3.5190  -21.4370 C   0  0  0  0  0  0
   -3.0800    3.6660  -23.5840 C   0  0  0  0  0  0
   -2.9510    3.3900  -22.1660 C   0  0  0  0  0  0
   -4.4120    3.9700  -24.1230 C   0  0  0  0  0  0
   -3.6180    4.0160  -26.3070 C   0  0  0  0  0  0
    5.9970    2.9500  -20.8900 C   0  0  0  0  0  0
    5.9070    3.1450  -23.4380 C   0  0  0  0  0  0
   -4.6370    4.1290  -25.4600 C   0  0  0  0  0  0
    2.1370    3.7830  -23.5100 C   0  0  0  0  0  0
    1.3370    4.9040  -23.2030 C   0  0  0  0  0  0
    3.1500    6.0440  -22.4690 C   0  0  0  0  0  0
    3.5350    3.9340  -23.1690 C   0  0  0  0  0  0
    1.5760    2.6920  -24.2020 C   0  0  0  0  0  0
   -0.5330    3.5530  -24.1130 C   0  0  0  0  0  0
    0.0110    4.7490  -23.4810 C   0  0  0  0  0  0
   -1.9790    3.6000  -24.4920 C   0  0  0  0  0  0
    4.0770    1.4170  -22.9160 C   0  0  0  0  0  0
    4.9820    1.0180  -21.7600 C   0  0  2  0  0  0
    6.6200    2.5300  -22.2390 C   0  0  2  0  0  0
    4.9670    1.9960  -20.5740 C   0  0  0  0  0  0
   -2.2750    3.7950  -25.9220 C   0  0  0  0  0  0
   -1.6270    2.9340  -21.5530 C   0  0  0  0  0  0
   -0.6140    2.5520  -21.0360 C   0  0  0  0  0  0
   -0.8120    5.8070  -23.1300 F   0  0  0  0  0  0
   -3.8320    3.2450  -20.0570 F   0  0  0  0  0  0
    1.8310    6.0410  -22.6410 N   0  0  0  0  0  0
    4.0270    5.0650  -22.6930 N   0  0  0  0  0  0
    0.2740    2.6390  -24.5320 N   0  0  0  0  0  0
    4.4320    2.8680  -23.3510 N   0  0  0  0  0  0
    6.3980    1.0610  -22.2170 N   0  0  1  0  0  0
   -3.7660    4.0620  -27.6990 O   0  0  0  0  0  0
   -6.0511    3.8763  -21.0803 H   0  0  0  0  0  0
   -6.4795    4.2538  -23.4722 H   0  0  0  0  0  0
    5.5511    3.9508  -20.9879 H   0  0  0  0  0  0
    6.7691    2.9268  -20.1068 H   0  0  0  0  0  0
    6.3066    2.7090  -24.3655 H   0  0  0  0  0  0
    6.0755    4.2320  -23.4471 H   0  0  0  0  0  0
   -5.6365    4.3450  -25.8196 H   0  0  0  0  0  0
    2.2000    1.8533  -24.4889 H   0  0  0  0  0  0
    3.0274    1.3787  -22.5890 H   0  0  0  0  0  0
    4.2375    0.7314  -23.7611 H   0  0  0  0  0  0
    4.7277    0.0047  -21.4158 H   0  0  0  0  0  0
    7.6948    2.7631  -22.2622 H   0  0  0  0  0  0
    3.9948    2.5093  -20.5377 H   0  0  0  0  0  0
    5.2387    1.4577  -19.6540 H   0  0  0  0  0  0
   -1.4928    3.7719  -26.6721 H   0  0  0  0  0  0
    0.2778    2.2161  -20.5811 H   0  0  0  0  0  0
    7.0211    0.5341  -21.5095 H   0  0  0  0  0  0
   -2.9161    3.9621  -28.1116 H   0  0  0  0  0  0
    3.7610    8.3720  -23.0810 N   0  0  1  0  0  0
    6.3160   10.8480  -23.6170 N   0  0  0  0  0  0
    7.6690   10.7540  -23.6380 N   0  0  0  0  0  0
    4.2890    9.7350  -22.7090 C   0  0  0  0  0  0
    3.7320    7.3600  -21.9650 C   0  0  0  0  0  0
    5.7880    9.8800  -22.9110 C   0  0  0  0  0  0
    6.8280    9.0820  -22.4210 C   0  0  0  0  0  0
    7.9380    9.6550  -22.8920 C   0  0  0  0  0  0
    2.7443    8.4630  -23.4339 H   0  0  0  0  0  0
    8.2259   11.4479  -24.1569 H   0  0  0  0  0  0
    4.0391    9.9489  -21.6593 H   0  0  0  0  0  0
    3.7650   10.5021  -23.2981 H   0  0  0  0  0  0
    3.1136    7.7422  -21.1395 H   0  0  0  0  0  0
    4.7551    7.1910  -21.5980 H   0  0  0  0  0  0
    6.6050    8.2190  -21.8040 H   0  0  0  0  0  0
    8.9642    9.3400  -22.7410 H   0  0  0  0  0  0
  1  2  2  0  0  0
  1  3  1  0  0  0
  1 34  1  0  0  0
  2  6  1  0  0  0
  2 35  1  0  0  0
  3  5  2  0  0  0
  3 27  1  0  0  0
  4  5  1  0  0  0
  4  6  2  0  0  0
  4 18  1  0  0  0
  5 24  1  0  0  0
  6 10  1  0  0  0
  7 10  2  0  0  0
  7 23  1  0  0  0
  7 33  1  0  0  0
  8 21  1  0  0  0
  8 22  1  0  0  0
  8 36  1  0  0  0
  8 37  1  0  0  0
  9 21  1  0  0  0
  9 31  1  0  0  0
  9 38  1  0  0  0
  9 39  1  0  0  0
 10 40  1  0  0  0
 11 12  1  0  0  0
 11 14  2  0  0  0
 11 15  1  0  0  0
 12 17  1  0  0  0
 12 28  2  0  0  0
 13 28  1  0  0  0
 13 29  2  0  0  0
 13 56  1  0  0  0
 14 29  1  0  0  0
 14 31  1  0  0  0
 15 30  2  0  0  0
 15 41  1  0  0  0
 16 17  2  0  0  0
 16 18  1  0  0  0
 16 30  1  0  0  0
 17 26  1  0  0  0
 18 23  2  0  0  0
 19 20  1  0  0  0
 19 31  1  0  0  0
 19 42  1  0  0  0
 19 43  1  0  0  0
 20 22  1  0  0  0
 20 32  1  0  0  0
 20 44  1  0  0  0
 21 32  1  0  0  0
 21 45  1  0  0  0
 22 46  1  0  0  0
 22 47  1  0  0  0
 23 48  1  0  0  0
 24 25  3  0  0  0
 25 49  1  0  0  0
 32 50  1  0  0  0
 33 51  1  0  0  0
 52 55  1  0  0  0
 52 56  1  0  0  0
 52 60  1  0  0  0
 53 54  1  0  0  0
 53 57  2  0  0  0
 54 59  1  0  0  0
 54 61  1  0  0  0
 55 57  1  0  0  0
 55 62  1  0  0  0
 55 63  1  0  0  0
 56 64  1  0  0  0
 56 65  1  0  0  0
 57 58  1  0  0  0
 58 59  2  0  0  0
 58 66  1  0  0  0
 59 67  1  0  0  0
M  END
> <s_m_entry_id>
503

> <s_m_entry_name>
000000345.1

> <s_m_Source_Path>
/Users/zaksoul/Documents/3r_UNI/2nd_SEMESTER/BSC/FRAG_RECON/RESULTS/2

> <s_m_Source_File>
000000345.mol2

> <i_m_Source_File_Index>
1

$$$$
No_0_363
                    3D
 Schrodinger Suite 2022-4.
 67 73  0  0  1  0            999 V2000
   -5.1880    3.7160  -21.6820 C   0  0  0  0  0  0
   -5.4690    3.9180  -23.0130 C   0  0  0  0  0  0
   -3.9450    3.4630  -21.3570 C   0  0  0  0  0  0
   -3.0780    3.6150  -23.5310 C   0  0  0  0  0  0
   -2.9010    3.3560  -22.1150 C   0  0  0  0  0  0
   -4.4310    3.8790  -24.0350 C   0  0  0  0  0  0
   -3.7000    3.9250  -26.2410 C   0  0  0  0  0  0
    6.0870    3.1650  -21.0880 C   0  0  0  0  0  0
    5.9210    3.3340  -23.6340 C   0  0  0  0  0  0
   -4.6980    4.0190  -25.3660 C   0  0  0  0  0  0
    2.1350    3.8700  -23.6050 C   0  0  0  0  0  0
    1.3140    4.9730  -23.2860 C   0  0  0  0  0  0
    3.1160    6.1670  -22.6130 C   0  0  0  0  0  0
    3.5380    4.0620  -23.3050 C   0  0  0  0  0  0
    1.5840    2.7590  -24.2720 C   0  0  0  0  0  0
   -0.5440    3.5650  -24.1300 C   0  0  0  0  0  0
   -0.0140    4.7800  -23.5240 C   0  0  0  0  0  0
   -2.0010    3.5700  -24.4690 C   0  0  0  0  0  0
    4.1540    1.5630  -23.0460 C   0  0  0  0  0  0
    5.1010    1.1980  -21.9130 C   0  0  2  0  0  0
    6.6830    2.7490  -22.4510 C   0  0  2  0  0  0
    5.0920    2.1870  -20.7360 C   0  0  0  0  0  0
   -2.3420    3.7430  -25.8910 C   0  0  0  0  0  0
   -1.5490    2.9400  -21.5350 C   0  0  0  0  0  0
   -0.5120    2.5900  -21.0440 C   0  0  0  0  0  0
   -0.8550    5.8190  -23.1600 F   0  0  0  0  0  0
   -3.7190    3.2070  -19.9800 F   0  0  0  0  0  0
    1.7930    6.1280  -22.7470 N   0  0  0  0  0  0
    4.0120    5.2100  -22.8530 N   0  0  0  0  0  0
    0.2750    2.6680  -24.5640 N   0  0  0  0  0  0
    4.4570    3.0190  -23.5030 N   0  0  0  0  0  0
    6.5020    1.2750  -22.4100 N   0  0  1  0  0  0
   -3.8880    3.9540  -27.6280 O   0  0  0  0  0  0
   -5.9821    3.7692  -20.9461 H   0  0  0  0  0  0
   -6.4876    4.1137  -23.3281 H   0  0  0  0  0  0
    5.6127    4.1529  -21.1829 H   0  0  0  0  0  0
    6.8818    3.1700  -20.3275 H   0  0  0  0  0  0
    6.3065    2.9001  -24.5684 H   0  0  0  0  0  0
    6.0603    4.4249  -23.6572 H   0  0  0  0  0  0
   -5.7125    4.2048  -25.6995 H   0  0  0  0  0  0
    2.2223    1.9351  -24.5701 H   0  0  0  0  0  0
    3.1151    1.5005  -22.6899 H   0  0  0  0  0  0
    4.3084    0.8745  -23.8899 H   0  0  0  0  0  0
    4.8830    0.1818  -21.5527 H   0  0  0  0  0  0
    7.7501    3.0102  -22.5065 H   0  0  0  0  0  0
    4.1078    2.6746  -20.6764 H   0  0  0  0  0  0
    5.4037    1.6655  -19.8190 H   0  0  0  0  0  0
   -1.5806    3.7340  -26.6625 H   0  0  0  0  0  0
    0.4010    2.2820  -20.6120 H   0  0  0  0  0  0
    7.1586    0.7713  -21.7160 H   0  0  0  0  0  0
   -3.0476    3.8728  -28.0635 H   0  0  0  0  0  0
    3.3180    8.5910  -23.1150 N   0  0  1  0  0  0
    5.3940   11.3900  -24.0110 N   0  0  0  0  0  0
    6.7000   11.4610  -24.3760 N   0  0  0  0  0  0
    3.7880    9.9760  -22.7480 C   0  0  0  0  0  0
    3.6760    7.5030  -22.1370 C   0  0  0  0  0  0
    5.1640   10.3150  -23.2990 C   0  0  0  0  0  0
    6.3680    9.6150  -23.1650 C   0  0  0  0  0  0
    7.2580   10.3500  -23.8350 C   0  0  0  0  0  0
    2.2410    8.5850  -23.1950 H   0  0  0  0  0  0
    7.0343   12.2536  -24.9425 H   0  0  0  0  0  0
    3.7970   10.0800  -21.6530 H   0  0  0  0  0  0
    3.0580   10.7160  -23.1080 H   0  0  0  0  0  0
    3.2563    7.7458  -21.1496 H   0  0  0  0  0  0
    4.7704    7.4320  -22.0520 H   0  0  0  0  0  0
    6.3960    8.6879  -22.6039 H   0  0  0  0  0  0
    8.3143   10.1509  -23.9750 H   0  0  0  0  0  0
  1  2  2  0  0  0
  1  3  1  0  0  0
  1 34  1  0  0  0
  2  6  1  0  0  0
  2 35  1  0  0  0
  3  5  2  0  0  0
  3 27  1  0  0  0
  4  5  1  0  0  0
  4  6  2  0  0  0
  4 18  1  0  0  0
  5 24  1  0  0  0
  6 10  1  0  0  0
  7 10  2  0  0  0
  7 23  1  0  0  0
  7 33  1  0  0  0
  8 21  1  0  0  0
  8 22  1  0  0  0
  8 36  1  0  0  0
  8 37  1  0  0  0
  9 21  1  0  0  0
  9 31  1  0  0  0
  9 38  1  0  0  0
  9 39  1  0  0  0
 10 40  1  0  0  0
 11 12  1  0  0  0
 11 14  2  0  0  0
 11 15  1  0  0  0
 12 17  1  0  0  0
 12 28  2  0  0  0
 13 28  1  0  0  0
 13 29  2  0  0  0
 13 56  1  0  0  0
 14 29  1  0  0  0
 14 31  1  0  0  0
 15 30  2  0  0  0
 15 41  1  0  0  0
 16 17  2  0  0  0
 16 18  1  0  0  0
 16 30  1  0  0  0
 17 26  1  0  0  0
 18 23  2  0  0  0
 19 20  1  0  0  0
 19 31  1  0  0  0
 19 42  1  0  0  0
 19 43  1  0  0  0
 20 22  1  0  0  0
 20 32  1  0  0  0
 20 44  1  0  0  0
 21 32  1  0  0  0
 21 45  1  0  0  0
 22 46  1  0  0  0
 22 47  1  0  0  0
 23 48  1  0  0  0
 24 25  3  0  0  0
 25 49  1  0  0  0
 32 50  1  0  0  0
 33 51  1  0  0  0
 52 55  1  0  0  0
 52 56  1  0  0  0
 52 60  1  0  0  0
 53 54  1  0  0  0
 53 57  2  0  0  0
 54 59  1  0  0  0
 54 61  1  0  0  0
 55 57  1  0  0  0
 55 62  1  0  0  0
 55 63  1  0  0  0
 56 64  1  0  0  0
 56 65  1  0  0  0
 57 58  1  0  0  0
 58 59  2  0  0  0
 58 66  1  0  0  0
 59 67  1  0  0  0
M  END
> <s_m_entry_id>
504

> <s_m_entry_name>
000000346.1

> <s_m_Source_Path>
/Users/zaksoul/Documents/3r_UNI/2nd_SEMESTER/BSC/FRAG_RECON/RESULTS/2

> <s_m_Source_File>
000000346.mol2

> <i_m_Source_File_Index>
1

$$$$
No_0_364
                    3D
 Schrodinger Suite 2022-4.
 70 76  0  0  1  0            999 V2000
   -5.2600    3.7210  -21.9060 C   0  0  0  0  0  0
   -5.5370    3.9120  -23.2390 C   0  0  0  0  0  0
   -4.0230    3.4440  -21.5780 C   0  0  0  0  0  0
   -3.1530    3.5470  -23.7540 C   0  0  0  0  0  0
   -2.9820    3.3030  -22.3340 C   0  0  0  0  0  0
   -4.5010    3.8360  -24.2610 C   0  0  0  0  0  0
   -3.7700    3.8370  -26.4670 C   0  0  0  0  0  0
    6.0000    2.9210  -21.3060 C   0  0  0  0  0  0
    5.8360    3.0600  -23.8540 C   0  0  0  0  0  0
   -4.7640    3.9650  -25.5940 C   0  0  0  0  0  0
    2.0630    3.6840  -23.8320 C   0  0  0  0  0  0
    1.2680    4.8090  -23.5260 C   0  0  0  0  0  0
    3.0970    5.9700  -22.8690 C   0  0  0  0  0  0
    3.4700    3.8470  -23.5340 C   0  0  0  0  0  0
    1.4880    2.5760  -24.4840 C   0  0  0  0  0  0
   -0.6220    3.4320  -24.3520 C   0  0  0  0  0  0
   -0.0640    4.6430  -23.7620 C   0  0  0  0  0  0
   -2.0780    3.4660  -24.6910 C   0  0  0  0  0  0
    4.0290    1.3390  -23.2420 C   0  0  0  0  0  0
    4.9680    0.9670  -22.1050 C   0  0  2  0  0  0
    6.5860    2.4740  -22.6630 C   0  0  2  0  0  0
    4.9830    1.9710  -20.9400 C   0  0  0  0  0  0
   -2.4160    3.6290  -26.1160 C   0  0  0  0  0  0
   -1.6400    2.8640  -21.7490 C   0  0  0  0  0  0
   -0.6110    2.4970  -21.2540 C   0  0  0  0  0  0
   -0.8810    5.7050  -23.4110 F   0  0  0  0  0  0
   -3.8030    3.2000  -20.1980 F   0  0  0  0  0  0
    1.7740    5.9600  -23.0030 N   0  0  0  0  0  0
    3.9710    4.9890  -23.0960 N   0  0  0  0  0  0
    0.1760    2.5120  -24.7750 N   0  0  0  0  0  0
    4.3660    2.7810  -23.7190 N   0  0  0  0  0  0
    6.3710    1.0050  -22.6030 N   0  0  1  0  0  0
   -3.9570    3.8520  -27.8550 O   0  0  0  0  0  0
   -6.0530    3.8013  -21.1713 H   0  0  0  0  0  0
   -6.5509    4.1258  -23.5572 H   0  0  0  0  0  0
    5.5479    3.9181  -21.4130 H   0  0  0  0  0  0
    6.7943    2.9180  -20.5450 H   0  0  0  0  0  0
    6.2115    2.6057  -24.7828 H   0  0  0  0  0  0
    6.0004    4.1470  -23.8913 H   0  0  0  0  0  0
   -5.7746    4.1687  -25.9292 H   0  0  0  0  0  0
    2.1073    1.7339  -24.7711 H   0  0  0  0  0  0
    2.9890    1.3037  -22.8856 H   0  0  0  0  0  0
    4.1682    0.6358  -24.0763 H   0  0  0  0  0  0
    4.7280   -0.0395  -21.7318 H   0  0  0  0  0  0
    7.6588    2.7101  -22.7215 H   0  0  0  0  0  0
    4.0101    2.4817  -20.8875 H   0  0  0  0  0  0
    5.2829    1.4530  -20.0171 H   0  0  0  0  0  0
   -1.6550    3.5919  -26.8871 H   0  0  0  0  0  0
    0.2949    2.1740  -20.8180 H   0  0  0  0  0  0
    7.0161    0.4958  -21.9023 H   0  0  0  0  0  0
   -3.1188    3.7461  -28.2894 H   0  0  0  0  0  0
    3.6980    7.3960  -20.9070 N   0  0  1  0  0  0
    5.8030   10.2790  -21.2980 N   0  0  0  0  0  0
    7.1590   10.3200  -21.3010 N   0  0  0  0  0  0
    4.0550    8.7460  -20.3400 C   0  0  0  0  0  0
    3.6880    7.2990  -22.4100 C   0  0  0  0  0  0
    6.5900    8.5290  -20.1680 C   0  0  0  0  0  0
    9.1360    9.0630  -20.4650 C   0  0  0  0  0  0
    5.4930    9.1620  -20.5940 C   0  0  0  0  0  0
    7.6520    9.3020  -20.6430 C   0  0  0  0  0  0
    4.4090    6.6599  -20.5620 H   0  0  0  0  0  0
    5.2639   11.0151  -21.7760 H   0  0  0  0  0  0
    3.8601    8.7490  -19.2574 H   0  0  0  0  0  0
    3.3766    9.5064  -20.7542 H   0  0  0  0  0  0
    4.7160    7.3930  -22.7900 H   0  0  0  0  0  0
    3.0953    8.1266  -22.8268 H   0  0  0  0  0  0
    6.4990    7.6178  -19.5879 H   0  0  0  0  0  0
    9.2911    8.1466  -19.8767 H   0  0  0  0  0  0
    9.6105    8.9509  -21.4510 H   0  0  0  0  0  0
    9.5851    9.9171  -19.9369 H   0  0  0  0  0  0
  1  2  2  0  0  0
  1  3  1  0  0  0
  1 34  1  0  0  0
  2  6  1  0  0  0
  2 35  1  0  0  0
  3  5  2  0  0  0
  3 27  1  0  0  0
  4  5  1  0  0  0
  4  6  2  0  0  0
  4 18  1  0  0  0
  5 24  1  0  0  0
  6 10  1  0  0  0
  7 10  2  0  0  0
  7 23  1  0  0  0
  7 33  1  0  0  0
  8 21  1  0  0  0
  8 22  1  0  0  0
  8 36  1  0  0  0
  8 37  1  0  0  0
  9 21  1  0  0  0
  9 31  1  0  0  0
  9 38  1  0  0  0
  9 39  1  0  0  0
 10 40  1  0  0  0
 11 12  1  0  0  0
 11 14  2  0  0  0
 11 15  1  0  0  0
 12 17  1  0  0  0
 12 28  2  0  0  0
 13 28  1  0  0  0
 13 29  2  0  0  0
 13 56  1  0  0  0
 14 29  1  0  0  0
 14 31  1  0  0  0
 15 30  2  0  0  0
 15 41  1  0  0  0
 16 17  2  0  0  0
 16 18  1  0  0  0
 16 30  1  0  0  0
 17 26  1  0  0  0
 18 23  2  0  0  0
 19 20  1  0  0  0
 19 31  1  0  0  0
 19 42  1  0  0  0
 19 43  1  0  0  0
 20 22  1  0  0  0
 20 32  1  0  0  0
 20 44  1  0  0  0
 21 32  1  0  0  0
 21 45  1  0  0  0
 22 46  1  0  0  0
 22 47  1  0  0  0
 23 48  1  0  0  0
 24 25  3  0  0  0
 25 49  1  0  0  0
 32 50  1  0  0  0
 33 51  1  0  0  0
 52 55  1  0  0  0
 52 56  1  0  0  0
 52 61  1  0  0  0
 53 54  1  0  0  0
 53 59  1  0  0  0
 53 62  1  0  0  0
 54 60  2  0  0  0
 55 59  1  0  0  0
 55 63  1  0  0  0
 55 64  1  0  0  0
 56 65  1  0  0  0
 56 66  1  0  0  0
 57 59  2  0  0  0
 57 60  1  0  0  0
 57 67  1  0  0  0
 58 60  1  0  0  0
 58 68  1  0  0  0
 58 69  1  0  0  0
 58 70  1  0  0  0
M  END
> <s_m_entry_id>
505

> <s_m_entry_name>
000000347.1

> <s_m_Source_Path>
/Users/zaksoul/Documents/3r_UNI/2nd_SEMESTER/BSC/FRAG_RECON/RESULTS/2

> <s_m_Source_File>
000000347.mol2

> <i_m_Source_File_Index>
1

$$$$
No_0_365
                    3D
 Schrodinger Suite 2022-4.
 70 76  0  0  1  0            999 V2000
   -5.3070    3.7190  -21.8740 C   0  0  0  0  0  0
   -5.5530    3.8750  -23.2170 C   0  0  0  0  0  0
   -4.0770    3.4610  -21.5090 C   0  0  0  0  0  0
   -3.1550    3.5180  -23.6640 C   0  0  0  0  0  0
   -3.0160    3.3100  -22.2360 C   0  0  0  0  0  0
   -4.4920    3.7830  -24.2110 C   0  0  0  0  0  0
   -3.7060    3.7370  -26.3980 C   0  0  0  0  0  0
    5.9400    3.0300  -20.9790 C   0  0  0  0  0  0
    5.8380    3.1050  -23.5330 C   0  0  0  0  0  0
   -4.7230    3.8770  -25.5530 C   0  0  0  0  0  0
    2.0610    3.6970  -23.6180 C   0  0  0  0  0  0
    1.2490    4.8230  -23.3600 C   0  0  0  0  0  0
    3.0530    6.0150  -22.6870 C   0  0  0  0  0  0
    3.4590    3.8800  -23.2910 C   0  0  0  0  0  0
    1.5100    2.5690  -24.2570 C   0  0  0  0  0  0
   -0.6080    3.4100  -24.1980 C   0  0  0  0  0  0
   -0.0750    4.6390  -23.6240 C   0  0  0  0  0  0
   -2.0560    3.4230  -24.5730 C   0  0  0  0  0  0
    4.0300    1.3830  -22.9240 C   0  0  0  0  0  0
    4.9440    1.0480  -21.7550 C   0  0  2  0  0  0
    6.5630    2.5550  -22.3100 C   0  0  2  0  0  0
    4.9220    2.0800  -20.6160 C   0  0  0  0  0  0
   -2.3600    3.5480  -26.0090 C   0  0  0  0  0  0
   -1.6860    2.8970  -21.6080 C   0  0  0  0  0  0
   -0.6660    2.5510  -21.0780 C   0  0  0  0  0  0
   -0.9090    5.7030  -23.3200 F   0  0  0  0  0  0
   -3.8880    3.2530  -20.1180 F   0  0  0  0  0  0
    1.7330    5.9900  -22.8530 N   0  0  0  0  0  0
    3.9400    5.0360  -22.8690 N   0  0  0  0  0  0
    0.2070    2.4870  -24.5780 N   0  0  0  0  0  0
    4.3670    2.8170  -23.4270 N   0  0  0  0  0  0
    6.3580    1.0850  -22.2200 N   0  0  1  0  0  0
   -3.8600    3.7160  -27.7900 O   0  0  0  0  0  0
   -6.1178    3.8113  -21.1605 H   0  0  0  0  0  0
   -6.5604    4.0727  -23.5652 H   0  0  0  0  0  0
    5.4828    4.0202  -21.1223 H   0  0  0  0  0  0
    6.7162    3.0512  -20.1998 H   0  0  0  0  0  0
    6.2396    2.6317  -24.4412 H   0  0  0  0  0  0
    5.9945    4.1921  -23.5936 H   0  0  0  0  0  0
   -5.7262    4.0646  -25.9182 H   0  0  0  0  0  0
    2.1429    1.7254  -24.5078 H   0  0  0  0  0  0
    2.9819    1.3487  -22.5918 H   0  0  0  0  0  0
    4.1955    0.6613  -23.7375 H   0  0  0  0  0  0
    4.7028    0.0488  -21.3634 H   0  0  0  0  0  0
    7.6350    2.7983  -22.3494 H   0  0  0  0  0  0
    3.9442    2.5835  -20.5988 H   0  0  0  0  0  0
    5.2035    1.5876  -19.6735 H   0  0  0  0  0  0
   -1.5804    3.4988  -26.7605 H   0  0  0  0  0  0
    0.2311    2.2460  -20.6119 H   0  0  0  0  0  0
    6.9895    0.5988  -21.4912 H   0  0  0  0  0  0
   -3.0108    3.6071  -28.2017 H   0  0  0  0  0  0
    3.9340    7.3570  -20.7740 N   0  0  1  0  0  0
    5.6850   10.4420  -21.3370 N   0  0  0  0  0  0
    7.0040   10.6080  -21.6070 N   0  0  0  0  0  0
    4.2960    8.6940  -20.1790 C   0  0  0  0  0  0
    3.6220    7.3600  -22.2470 C   0  0  0  0  0  0
    6.8210    8.7010  -20.5370 C   0  0  0  0  0  0
    9.2020    9.4860  -21.2900 C   0  0  0  0  0  0
    5.6140    9.2570  -20.6800 C   0  0  0  0  0  0
    7.7000    9.5990  -21.1480 C   0  0  0  0  0  0
    4.7554    6.6687  -20.6399 H   0  0  0  0  0  0
    5.0044   11.1556  -21.6343 H   0  0  0  0  0  0
    4.3290    8.6090  -19.0828 H   0  0  0  0  0  0
    3.4905    9.4146  -20.3839 H   0  0  0  0  0  0
    4.5390    7.5730  -22.8160 H   0  0  0  0  0  0
    2.8940    8.1550  -22.4660 H   0  0  0  0  0  0
    6.9220    7.7492  -20.0281 H   0  0  0  0  0  0
    9.5451    8.5506  -20.8238 H   0  0  0  0  0  0
    9.4700    9.4830  -22.3569 H   0  0  0  0  0  0
    9.6830   10.3420  -20.7940 H   0  0  0  0  0  0
  1  2  2  0  0  0
  1  3  1  0  0  0
  1 34  1  0  0  0
  2  6  1  0  0  0
  2 35  1  0  0  0
  3  5  2  0  0  0
  3 27  1  0  0  0
  4  5  1  0  0  0
  4  6  2  0  0  0
  4 18  1  0  0  0
  5 24  1  0  0  0
  6 10  1  0  0  0
  7 10  2  0  0  0
  7 23  1  0  0  0
  7 33  1  0  0  0
  8 21  1  0  0  0
  8 22  1  0  0  0
  8 36  1  0  0  0
  8 37  1  0  0  0
  9 21  1  0  0  0
  9 31  1  0  0  0
  9 38  1  0  0  0
  9 39  1  0  0  0
 10 40  1  0  0  0
 11 12  1  0  0  0
 11 14  2  0  0  0
 11 15  1  0  0  0
 12 17  1  0  0  0
 12 28  2  0  0  0
 13 28  1  0  0  0
 13 29  2  0  0  0
 13 56  1  0  0  0
 14 29  1  0  0  0
 14 31  1  0  0  0
 15 30  2  0  0  0
 15 41  1  0  0  0
 16 17  2  0  0  0
 16 18  1  0  0  0
 16 30  1  0  0  0
 17 26  1  0  0  0
 18 23  2  0  0  0
 19 20  1  0  0  0
 19 31  1  0  0  0
 19 42  1  0  0  0
 19 43  1  0  0  0
 20 22  1  0  0  0
 20 32  1  0  0  0
 20 44  1  0  0  0
 21 32  1  0  0  0
 21 45  1  0  0  0
 22 46  1  0  0  0
 22 47  1  0  0  0
 23 48  1  0  0  0
 24 25  3  0  0  0
 25 49  1  0  0  0
 32 50  1  0  0  0
 33 51  1  0  0  0
 52 55  1  0  0  0
 52 56  1  0  0  0
 52 61  1  0  0  0
 53 54  1  0  0  0
 53 59  1  0  0  0
 53 62  1  0  0  0
 54 60  2  0  0  0
 55 59  1  0  0  0
 55 63  1  0  0  0
 55 64  1  0  0  0
 56 65  1  0  0  0
 56 66  1  0  0  0
 57 59  2  0  0  0
 57 60  1  0  0  0
 57 67  1  0  0  0
 58 60  1  0  0  0
 58 68  1  0  0  0
 58 69  1  0  0  0
 58 70  1  0  0  0
M  END
> <s_m_entry_id>
506

> <s_m_entry_name>
000000348.1

> <s_m_Source_Path>
/Users/zaksoul/Documents/3r_UNI/2nd_SEMESTER/BSC/FRAG_RECON/RESULTS/2

> <s_m_Source_File>
000000348.mol2

> <i_m_Source_File_Index>
1

$$$$
No_0_366
                    3D
 Schrodinger Suite 2022-4.
 70 76  0  0  1  0            999 V2000
   -5.2570    3.5390  -22.0850 C   0  0  0  0  0  0
   -5.5000    3.7780  -23.4170 C   0  0  0  0  0  0
   -4.0260    3.2680  -21.7330 C   0  0  0  0  0  0
   -3.0980    3.4710  -23.8770 C   0  0  0  0  0  0
   -2.9620    3.1730  -22.4640 C   0  0  0  0  0  0
   -4.4350    3.7580  -24.4100 C   0  0  0  0  0  0
   -3.6430    3.8590  -26.5930 C   0  0  0  0  0  0
    5.9930    2.8880  -21.1970 C   0  0  0  0  0  0
    5.8980    3.1260  -23.7420 C   0  0  0  0  0  0
   -4.6640    3.9360  -25.7440 C   0  0  0  0  0  0
    2.1160    3.6900  -23.8020 C   0  0  0  0  0  0
    1.2940    4.7900  -23.4750 C   0  0  0  0  0  0
    3.0850    5.9520  -22.7210 C   0  0  0  0  0  0
    3.5120    3.8630  -23.4580 C   0  0  0  0  0  0
    1.5770    2.6000  -24.5130 C   0  0  0  0  0  0
   -0.5490    3.4180  -24.4080 C   0  0  0  0  0  0
   -0.0280    4.6130  -23.7550 C   0  0  0  0  0  0
   -1.9960    3.4430  -24.7860 C   0  0  0  0  0  0
    4.1030    1.3540  -23.2490 C   0  0  0  0  0  0
    5.0160    0.9520  -22.1010 C   0  0  2  0  0  0
    6.6240    2.5040  -22.5540 C   0  0  2  0  0  0
    4.9820    1.9090  -20.8980 C   0  0  0  0  0  0
   -2.2960    3.6570  -26.2120 C   0  0  0  0  0  0
   -1.6290    2.7320  -21.8590 C   0  0  0  0  0  0
   -0.6080    2.3620  -21.3490 C   0  0  0  0  0  0
   -0.8720    5.6480  -23.3860 F   0  0  0  0  0  0
   -3.8390    2.9730  -20.3570 F   0  0  0  0  0  0
    1.7660    5.9270  -22.8930 N   0  0  0  0  0  0
    3.9810    4.9950  -22.9620 N   0  0  0  0  0  0
    0.2760    2.5280  -24.8430 N   0  0  0  0  0  0
    4.4290    2.8190  -23.6590 N   0  0  0  0  0  0
    6.4310    1.0310  -22.5580 N   0  0  1  0  0  0
   -3.7930    3.9260  -27.9840 O   0  0  0  0  0  0
   -6.0706    3.5781  -21.3697 H   0  0  0  0  0  0
   -6.5083    3.9897  -23.7541 H   0  0  0  0  0  0
    5.5280    3.8816  -21.2777 H   0  0  0  0  0  0
    6.7661    2.8668  -20.4148 H   0  0  0  0  0  0
    6.3067    2.7142  -24.6765 H   0  0  0  0  0  0
    6.0454    4.2160  -23.7319 H   0  0  0  0  0  0
   -5.6675    4.1387  -26.1003 H   0  0  0  0  0  0
    2.2177    1.7795  -24.8153 H   0  0  0  0  0  0
    3.0542    1.2884  -22.9240 H   0  0  0  0  0  0
    4.2765    0.6872  -24.1065 H   0  0  0  0  0  0
    4.7819   -0.0722  -21.7751 H   0  0  0  0  0  0
    7.6940    2.7584  -22.5732 H   0  0  0  0  0  0
    3.9996    2.4017  -20.8526 H   0  0  0  0  0  0
    5.2655    1.3601  -19.9879 H   0  0  0  0  0  0
   -1.5141    3.6630  -26.9628 H   0  0  0  0  0  0
    0.2904    2.0348  -20.9008 H   0  0  0  0  0  0
    7.0648    0.5041  -21.8601 H   0  0  0  0  0  0
   -2.9415    3.8499  -28.3984 H   0  0  0  0  0  0
    4.2180    7.1000  -20.8140 N   0  0  1  0  0  0
    5.6430   10.3720  -21.2130 N   0  0  0  0  0  0
    6.8770   10.6860  -21.6810 N   0  0  0  0  0  0
    4.6000    8.3720  -20.1010 C   0  0  0  0  0  0
    3.6410    7.2710  -22.1940 C   0  0  0  0  0  0
    7.0110    8.6460  -20.8850 C   0  0  0  0  0  0
    9.1600    9.7280  -21.9160 C   0  0  0  0  0  0
    5.7660    9.1090  -20.7350 C   0  0  0  0  0  0
    7.7060    9.6900  -21.5010 C   0  0  0  0  0  0
    5.0909    6.4740  -20.9260 H   0  0  0  0  0  0
    4.8769   11.0571  -21.2810 H   0  0  0  0  0  0
    4.8381    8.1449  -19.0514 H   0  0  0  0  0  0
    3.7276    9.0405  -20.0560 H   0  0  0  0  0  0
    4.4240    7.6360  -22.8750 H   0  0  0  0  0  0
    2.8379    8.0221  -22.1660 H   0  0  0  0  0  0
    7.2619    7.6474  -20.5461 H   0  0  0  0  0  0
    9.6410    8.7730  -21.6580 H   0  0  0  0  0  0
    9.2280    9.8900  -23.0019 H   0  0  0  0  0  0
    9.6712   10.5483  -21.3908 H   0  0  0  0  0  0
  1  2  2  0  0  0
  1  3  1  0  0  0
  1 34  1  0  0  0
  2  6  1  0  0  0
  2 35  1  0  0  0
  3  5  2  0  0  0
  3 27  1  0  0  0
  4  5  1  0  0  0
  4  6  2  0  0  0
  4 18  1  0  0  0
  5 24  1  0  0  0
  6 10  1  0  0  0
  7 10  2  0  0  0
  7 23  1  0  0  0
  7 33  1  0  0  0
  8 21  1  0  0  0
  8 22  1  0  0  0
  8 36  1  0  0  0
  8 37  1  0  0  0
  9 21  1  0  0  0
  9 31  1  0  0  0
  9 38  1  0  0  0
  9 39  1  0  0  0
 10 40  1  0  0  0
 11 12  1  0  0  0
 11 14  2  0  0  0
 11 15  1  0  0  0
 12 17  1  0  0  0
 12 28  2  0  0  0
 13 28  1  0  0  0
 13 29  2  0  0  0
 13 56  1  0  0  0
 14 29  1  0  0  0
 14 31  1  0  0  0
 15 30  2  0  0  0
 15 41  1  0  0  0
 16 17  2  0  0  0
 16 18  1  0  0  0
 16 30  1  0  0  0
 17 26  1  0  0  0
 18 23  2  0  0  0
 19 20  1  0  0  0
 19 31  1  0  0  0
 19 42  1  0  0  0
 19 43  1  0  0  0
 20 22  1  0  0  0
 20 32  1  0  0  0
 20 44  1  0  0  0
 21 32  1  0  0  0
 21 45  1  0  0  0
 22 46  1  0  0  0
 22 47  1  0  0  0
 23 48  1  0  0  0
 24 25  3  0  0  0
 25 49  1  0  0  0
 32 50  1  0  0  0
 33 51  1  0  0  0
 52 55  1  0  0  0
 52 56  1  0  0  0
 52 61  1  0  0  0
 53 54  1  0  0  0
 53 59  1  0  0  0
 53 62  1  0  0  0
 54 60  2  0  0  0
 55 59  1  0  0  0
 55 63  1  0  0  0
 55 64  1  0  0  0
 56 65  1  0  0  0
 56 66  1  0  0  0
 57 59  2  0  0  0
 57 60  1  0  0  0
 57 67  1  0  0  0
 58 60  1  0  0  0
 58 68  1  0  0  0
 58 69  1  0  0  0
 58 70  1  0  0  0
M  END
> <s_m_entry_id>
507

> <s_m_entry_name>
000000349.1

> <s_m_Source_Path>
/Users/zaksoul/Documents/3r_UNI/2nd_SEMESTER/BSC/FRAG_RECON/RESULTS/2

> <s_m_Source_File>
000000349.mol2

> <i_m_Source_File_Index>
1

$$$$
No_0_367
                    3D
 Schrodinger Suite 2022-4.
 73 79  0  0  1  0            999 V2000
   -5.3760    3.4570  -22.0590 C   0  0  0  0  0  0
   -5.6360    3.6330  -23.3980 C   0  0  0  0  0  0
   -4.1410    3.2010  -21.7100 C   0  0  0  0  0  0
   -3.2390    3.2990  -23.8730 C   0  0  0  0  0  0
   -3.0860    3.0690  -22.4490 C   0  0  0  0  0  0
   -4.5830    3.5640  -24.4030 C   0  0  0  0  0  0
   -3.8180    3.5580  -26.5980 C   0  0  0  0  0  0
    5.8830    2.8270  -21.2810 C   0  0  0  0  0  0
    5.7570    2.9440  -23.8330 C   0  0  0  0  0  0
   -4.8280    3.6780  -25.7410 C   0  0  0  0  0  0
    1.9750    3.5120  -23.8730 C   0  0  0  0  0  0
    1.1590    4.6280  -23.5890 C   0  0  0  0  0  0
    2.9600    5.8210  -22.9140 C   0  0  0  0  0  0
    3.3750    3.6980  -23.5550 C   0  0  0  0  0  0
    1.4260    2.3900  -24.5250 C   0  0  0  0  0  0
   -0.6980    3.2160  -24.4320 C   0  0  0  0  0  0
   -0.1670    4.4400  -23.8440 C   0  0  0  0  0  0
   -2.1490    3.2260  -24.7930 C   0  0  0  0  0  0
    3.9660    1.2000  -23.2340 C   0  0  0  0  0  0
    4.8930    0.8520  -22.0800 C   0  0  2  0  0  0
    6.4960    2.3780  -22.6260 C   0  0  2  0  0  0
    4.8750    1.8650  -20.9240 C   0  0  0  0  0  0
   -2.4670    3.3730  -26.2240 C   0  0  0  0  0  0
   -1.7470    2.6550  -21.8400 C   0  0  0  0  0  0
   -0.7200    2.3070  -21.3260 C   0  0  0  0  0  0
   -1.0050    5.4930  -23.5140 F   0  0  0  0  0  0
   -3.9380    2.9720  -20.3250 F   0  0  0  0  0  0
    1.6400    5.7900  -23.0670 N   0  0  0  0  0  0
    3.8530    4.8510  -23.1200 N   0  0  0  0  0  0
    0.1200    2.3050  -24.8350 N   0  0  0  0  0  0
    4.2880    2.6440  -23.7170 N   0  0  0  0  0  0
    6.3020    0.9060  -22.5570 N   0  0  1  0  0  0
   -3.9850    3.5590  -27.9880 O   0  0  0  0  0  0
   -6.1812    3.5323  -21.3371 H   0  0  0  0  0  0
   -6.6482    3.8298  -23.7324 H   0  0  0  0  0  0
    5.4189    3.8168  -21.4031 H   0  0  0  0  0  0
    6.6663    2.8421  -20.5088 H   0  0  0  0  0  0
    6.1528    2.4866  -24.7518 H   0  0  0  0  0  0
    5.9054    4.0331  -23.8764 H   0  0  0  0  0  0
   -5.8360    3.8647  -26.0934 H   0  0  0  0  0  0
    2.0617    1.5545  -24.7951 H   0  0  0  0  0  0
    2.9213    1.1536  -22.8928 H   0  0  0  0  0  0
    4.1285    0.4926  -24.0605 H   0  0  0  0  0  0
    4.6610   -0.1546  -21.7018 H   0  0  0  0  0  0
    7.5660    2.6291  -22.6704 H   0  0  0  0  0  0
    3.8940    2.3615  -20.8897 H   0  0  0  0  0  0
    5.1685    1.3597  -19.9921 H   0  0  0  0  0  0
   -1.6943    3.3409  -26.9836 H   0  0  0  0  0  0
    0.1837    2.0008  -20.8736 H   0  0  0  0  0  0
    6.9437    0.4119  -21.8426 H   0  0  0  0  0  0
   -3.1391    3.4620  -28.4094 H   0  0  0  0  0  0
    3.8510    7.1370  -20.9860 N   0  0  1  0  0  0
    7.5770    9.5620  -21.6150 N   0  0  0  0  0  0
    6.2220    9.5900  -21.6760 N   0  0  0  0  0  0
    4.3430    8.4380  -20.4040 C   0  0  0  0  0  0
    5.8040    8.7250  -20.7160 C   0  0  0  0  0  0
    3.5250    7.1620  -22.4570 C   0  0  0  0  0  0
    6.8430    8.1760  -20.0780 C   0  0  0  0  0  0
    5.4550   10.4260  -22.6060 C   0  0  0  0  0  0
    9.4270    8.4830  -20.3470 C   0  0  0  0  0  0
    7.9730    8.7380  -20.6790 C   0  0  0  0  0  0
    4.6061    6.3759  -20.8560 H   0  0  0  0  0  0
    4.1970    8.4280  -19.3138 H   0  0  0  0  0  0
    3.7201    9.2639  -20.7780 H   0  0  0  0  0  0
    4.4359    7.3900  -23.0299 H   0  0  0  0  0  0
    2.7901    7.9559  -22.6560 H   0  0  0  0  0  0
    6.6720    7.4601  -19.2822 H   0  0  0  0  0  0
    4.3794   10.2581  -22.4481 H   0  0  0  0  0  0
    5.6911   11.4855  -22.4279 H   0  0  0  0  0  0
    5.7189   10.1611  -23.6405 H   0  0  0  0  0  0
    9.4940    7.7529  -19.5269 H   0  0  0  0  0  0
    9.9430    8.0870  -21.2341 H   0  0  0  0  0  0
    9.9030    9.4250  -20.0370 H   0  0  0  0  0  0
  1  2  2  0  0  0
  1  3  1  0  0  0
  1 34  1  0  0  0
  2  6  1  0  0  0
  2 35  1  0  0  0
  3  5  2  0  0  0
  3 27  1  0  0  0
  4  5  1  0  0  0
  4  6  2  0  0  0
  4 18  1  0  0  0
  5 24  1  0  0  0
  6 10  1  0  0  0
  7 10  2  0  0  0
  7 23  1  0  0  0
  7 33  1  0  0  0
  8 21  1  0  0  0
  8 22  1  0  0  0
  8 36  1  0  0  0
  8 37  1  0  0  0
  9 21  1  0  0  0
  9 31  1  0  0  0
  9 38  1  0  0  0
  9 39  1  0  0  0
 10 40  1  0  0  0
 11 12  1  0  0  0
 11 14  2  0  0  0
 11 15  1  0  0  0
 12 17  1  0  0  0
 12 28  2  0  0  0
 13 28  1  0  0  0
 13 29  2  0  0  0
 13 57  1  0  0  0
 14 29  1  0  0  0
 14 31  1  0  0  0
 15 30  2  0  0  0
 15 41  1  0  0  0
 16 17  2  0  0  0
 16 18  1  0  0  0
 16 30  1  0  0  0
 17 26  1  0  0  0
 18 23  2  0  0  0
 19 20  1  0  0  0
 19 31  1  0  0  0
 19 42  1  0  0  0
 19 43  1  0  0  0
 20 22  1  0  0  0
 20 32  1  0  0  0
 20 44  1  0  0  0
 21 32  1  0  0  0
 21 45  1  0  0  0
 22 46  1  0  0  0
 22 47  1  0  0  0
 23 48  1  0  0  0
 24 25  3  0  0  0
 25 49  1  0  0  0
 32 50  1  0  0  0
 33 51  1  0  0  0
 52 55  1  0  0  0
 52 57  1  0  0  0
 52 62  1  0  0  0
 53 54  1  0  0  0
 53 61  2  0  0  0
 54 56  1  0  0  0
 54 59  1  0  0  0
 55 56  1  0  0  0
 55 63  1  0  0  0
 55 64  1  0  0  0
 56 58  2  0  0  0
 57 65  1  0  0  0
 57 66  1  0  0  0
 58 61  1  0  0  0
 58 67  1  0  0  0
 59 68  1  0  0  0
 59 69  1  0  0  0
 59 70  1  0  0  0
 60 61  1  0  0  0
 60 71  1  0  0  0
 60 72  1  0  0  0
 60 73  1  0  0  0
M  END
> <s_m_entry_id>
508

> <s_m_entry_name>
000000350.1

> <s_m_Source_Path>
/Users/zaksoul/Documents/3r_UNI/2nd_SEMESTER/BSC/FRAG_RECON/RESULTS/2

> <s_m_Source_File>
000000350.mol2

> <i_m_Source_File_Index>
1

$$$$
No_0_368
                    3D
 Schrodinger Suite 2022-4.
 73 79  0  0  1  0            999 V2000
   -5.1470    3.3670  -22.1370 C   0  0  0  0  0  0
   -5.4060    3.5300  -23.4780 C   0  0  0  0  0  0
   -3.9070    3.1440  -21.7830 C   0  0  0  0  0  0
   -3.0000    3.2570  -23.9430 C   0  0  0  0  0  0
   -2.8460    3.0370  -22.5170 C   0  0  0  0  0  0
   -4.3480    3.4840  -24.4790 C   0  0  0  0  0  0
   -3.5750    3.4880  -26.6710 C   0  0  0  0  0  0
    6.1220    3.0310  -21.3160 C   0  0  0  0  0  0
    6.0020    3.1330  -23.8680 C   0  0  0  0  0  0
   -4.5910    3.5860  -25.8180 C   0  0  0  0  0  0
    2.2070    3.6030  -23.9250 C   0  0  0  0  0  0
    1.3620    4.6990  -23.6490 C   0  0  0  0  0  0
    3.1290    5.9410  -22.9720 C   0  0  0  0  0  0
    3.6010    3.8270  -23.6030 C   0  0  0  0  0  0
    1.6890    2.4650  -24.5730 C   0  0  0  0  0  0
   -0.4550    3.2370  -24.4920 C   0  0  0  0  0  0
    0.0420    4.4760  -23.9070 C   0  0  0  0  0  0
   -1.9050    3.2080  -24.8590 C   0  0  0  0  0  0
    4.2550    1.3470  -23.2690 C   0  0  0  0  0  0
    5.1860    1.0270  -22.1090 C   0  0  2  0  0  0
    6.7510    2.5920  -22.6560 C   0  0  2  0  0  0
    5.1380    2.0450  -20.9580 C   0  0  0  0  0  0
   -2.2210    3.3390  -26.2910 C   0  0  0  0  0  0
   -1.4990    2.6600  -21.9020 C   0  0  0  0  0  0
   -0.4660    2.3410  -21.3830 C   0  0  0  0  0  0
   -0.8240    5.5090  -23.5860 F   0  0  0  0  0  0
   -3.7030    2.9270  -20.3960 F   0  0  0  0  0  0
    1.8110    5.8750  -23.1310 N   0  0  0  0  0  0
    4.0470    4.9940  -23.1710 N   0  0  0  0  0  0
    0.3880    2.3450  -24.8880 N   0  0  0  0  0  0
    4.5420    2.7960  -23.7570 N   0  0  0  0  0  0
    6.5950    1.1160  -22.5810 N   0  0  1  0  0  0
   -3.7370    3.4790  -28.0620 O   0  0  0  0  0  0
   -5.9563    3.4242  -21.4181 H   0  0  0  0  0  0
   -6.4214    3.6997  -23.8175 H   0  0  0  0  0  0
    5.6326    4.0078  -21.4442 H   0  0  0  0  0  0
    6.9014    3.0694  -20.5407 H   0  0  0  0  0  0
    6.4134    2.6832  -24.7837 H   0  0  0  0  0  0
    6.1231    4.2252  -23.9165 H   0  0  0  0  0  0
   -5.6019    3.7456  -26.1754 H   0  0  0  0  0  0
    2.3476    1.6458  -24.8380 H   0  0  0  0  0  0
    3.2107    1.2744  -22.9310 H   0  0  0  0  0  0
    4.4376    0.6397  -24.0914 H   0  0  0  0  0  0
    4.9790    0.0163  -21.7273 H   0  0  0  0  0  0
    7.8143    2.8704  -22.6984 H   0  0  0  0  0  0
    4.1444    2.5161  -20.9298 H   0  0  0  0  0  0
    5.4407    1.5516  -20.0226 H   0  0  0  0  0  0
   -1.4451    3.3239  -27.0478 H   0  0  0  0  0  0
    0.4433    2.0602  -20.9253 H   0  0  0  0  0  0
    7.2467    0.6420  -21.8619 H   0  0  0  0  0  0
   -2.8872    3.4018  -28.4795 H   0  0  0  0  0  0
    4.2490    7.2130  -21.1360 N   0  0  1  0  0  0
    7.5870   10.0110  -22.2240 N   0  0  0  0  0  0
    6.2460    9.9160  -22.0420 N   0  0  0  0  0  0
    4.7320    8.5150  -20.5510 C   0  0  0  0  0  0
    6.0830    8.9570  -21.0940 C   0  0  0  0  0  0
    3.6580    7.2980  -22.5200 C   0  0  0  0  0  0
    7.2620    8.4690  -20.6940 C   0  0  0  0  0  0
    5.2560   10.7320  -22.7540 C   0  0  0  0  0  0
    9.7200    9.0340  -21.3920 C   0  0  0  0  0  0
    8.2140    9.1710  -21.4410 C   0  0  0  0  0  0
    5.0739    6.5191  -21.2020 H   0  0  0  0  0  0
    4.7900    8.4240  -19.4563 H   0  0  0  0  0  0
    3.9864    9.3006  -20.7429 H   0  0  0  0  0  0
    4.4262    7.6461  -23.2262 H   0  0  0  0  0  0
    2.8370    8.0300  -22.5230 H   0  0  0  0  0  0
    7.2990    7.6925  -19.9385 H   0  0  0  0  0  0
    4.2449   10.4550  -22.4210 H   0  0  0  0  0  0
    5.4340   11.7958  -22.5380 H   0  0  0  0  0  0
    5.3470   10.5570  -23.8362 H   0  0  0  0  0  0
    9.9950    8.2631  -20.6571 H   0  0  0  0  0  0
   10.0939    8.7431  -22.3848 H   0  0  0  0  0  0
   10.1668    9.9956  -21.0991 H   0  0  0  0  0  0
  1  2  2  0  0  0
  1  3  1  0  0  0
  1 34  1  0  0  0
  2  6  1  0  0  0
  2 35  1  0  0  0
  3  5  2  0  0  0
  3 27  1  0  0  0
  4  5  1  0  0  0
  4  6  2  0  0  0
  4 18  1  0  0  0
  5 24  1  0  0  0
  6 10  1  0  0  0
  7 10  2  0  0  0
  7 23  1  0  0  0
  7 33  1  0  0  0
  8 21  1  0  0  0
  8 22  1  0  0  0
  8 36  1  0  0  0
  8 37  1  0  0  0
  9 21  1  0  0  0
  9 31  1  0  0  0
  9 38  1  0  0  0
  9 39  1  0  0  0
 10 40  1  0  0  0
 11 12  1  0  0  0
 11 14  2  0  0  0
 11 15  1  0  0  0
 12 17  1  0  0  0
 12 28  2  0  0  0
 13 28  1  0  0  0
 13 29  2  0  0  0
 13 57  1  0  0  0
 14 29  1  0  0  0
 14 31  1  0  0  0
 15 30  2  0  0  0
 15 41  1  0  0  0
 16 17  2  0  0  0
 16 18  1  0  0  0
 16 30  1  0  0  0
 17 26  1  0  0  0
 18 23  2  0  0  0
 19 20  1  0  0  0
 19 31  1  0  0  0
 19 42  1  0  0  0
 19 43  1  0  0  0
 20 22  1  0  0  0
 20 32  1  0  0  0
 20 44  1  0  0  0
 21 32  1  0  0  0
 21 45  1  0  0  0
 22 46  1  0  0  0
 22 47  1  0  0  0
 23 48  1  0  0  0
 24 25  3  0  0  0
 25 49  1  0  0  0
 32 50  1  0  0  0
 33 51  1  0  0  0
 52 55  1  0  0  0
 52 57  1  0  0  0
 52 62  1  0  0  0
 53 54  1  0  0  0
 53 61  2  0  0  0
 54 56  1  0  0  0
 54 59  1  0  0  0
 55 56  1  0  0  0
 55 63  1  0  0  0
 55 64  1  0  0  0
 56 58  2  0  0  0
 57 65  1  0  0  0
 57 66  1  0  0  0
 58 61  1  0  0  0
 58 67  1  0  0  0
 59 68  1  0  0  0
 59 69  1  0  0  0
 59 70  1  0  0  0
 60 61  1  0  0  0
 60 71  1  0  0  0
 60 72  1  0  0  0
 60 73  1  0  0  0
M  END
> <s_m_entry_id>
509

> <s_m_entry_name>
000000351.1

> <s_m_Source_Path>
/Users/zaksoul/Documents/3r_UNI/2nd_SEMESTER/BSC/FRAG_RECON/RESULTS/2

> <s_m_Source_File>
000000351.mol2

> <i_m_Source_File_Index>
1

$$$$
No_0_369
                    3D
 Schrodinger Suite 2022-4.
 73 79  0  0  1  0            999 V2000
   -5.4250    3.4320  -21.9480 C   0  0  0  0  0  0
   -5.6920    3.6010  -23.2850 C   0  0  0  0  0  0
   -4.1860    3.1890  -21.6040 C   0  0  0  0  0  0
   -3.2950    3.2910  -23.7710 C   0  0  0  0  0  0
   -3.1330    3.0660  -22.3470 C   0  0  0  0  0  0
   -4.6440    3.5400  -24.2950 C   0  0  0  0  0  0
   -3.8900    3.5360  -26.4940 C   0  0  0  0  0  0
    5.8440    2.9190  -21.2220 C   0  0  0  0  0  0
    5.7040    3.0260  -23.7730 C   0  0  0  0  0  0
   -4.8960    3.6480  -25.6320 C   0  0  0  0  0  0
    1.9170    3.5560  -23.7960 C   0  0  0  0  0  0
    1.0910    4.6640  -23.5120 C   0  0  0  0  0  0
    2.8830    5.8770  -22.8480 C   0  0  0  0  0  0
    3.3160    3.7570  -23.4860 C   0  0  0  0  0  0
    1.3760    2.4270  -24.4420 C   0  0  0  0  0  0
   -0.7550    3.2320  -24.3420 C   0  0  0  0  0  0
   -0.2340    4.4630  -23.7600 C   0  0  0  0  0  0
   -2.2090    3.2260  -24.6960 C   0  0  0  0  0  0
    3.9340    1.2670  -23.1610 C   0  0  0  0  0  0
    4.8700    0.9310  -22.0100 C   0  0  2  0  0  0
    6.4550    2.4720  -22.5670 C   0  0  2  0  0  0
    4.8470    1.9470  -20.8560 C   0  0  0  0  0  0
   -2.5350    3.3650  -26.1260 C   0  0  0  0  0  0
   -1.7870    2.6670  -21.7440 C   0  0  0  0  0  0
   -0.7540    2.3310  -21.2340 C   0  0  0  0  0  0
   -1.0810    5.5080  -23.4290 F   0  0  0  0  0  0
   -3.9740    2.9660  -20.2190 F   0  0  0  0  0  0
    1.5620    5.8320  -22.9960 N   0  0  0  0  0  0
    3.7840    4.9160  -23.0560 N   0  0  0  0  0  0
    0.0700    2.3270  -24.7460 N   0  0  0  0  0  0
    4.2390    2.7120  -23.6490 N   0  0  0  0  0  0
    6.2760    0.9980  -22.4940 N   0  0  1  0  0  0
   -4.0630    3.5310  -27.8830 O   0  0  0  0  0  0
   -6.2266    3.5012  -21.2216 H   0  0  0  0  0  0
   -6.7074    3.7866  -23.6161 H   0  0  0  0  0  0
    5.3685    3.9034  -21.3442 H   0  0  0  0  0  0
    6.6302    2.9432  -20.4530 H   0  0  0  0  0  0
    6.1007    2.5708  -24.6925 H   0  0  0  0  0  0
    5.8423    4.1162  -23.8204 H   0  0  0  0  0  0
   -5.9074    3.8236  -25.9802 H   0  0  0  0  0  0
    2.0188    1.5974  -24.7132 H   0  0  0  0  0  0
    2.8918    1.2095  -22.8139 H   0  0  0  0  0  0
    4.0995    0.5588  -23.9863 H   0  0  0  0  0  0
    4.6500   -0.0770  -21.6286 H   0  0  0  0  0  0
    7.5222    2.7335  -22.6185 H   0  0  0  0  0  0
    3.8611    2.4334  -20.8187 H   0  0  0  0  0  0
    5.1499    1.4472  -19.9241 H   0  0  0  0  0  0
   -1.7652    3.3389  -26.8888 H   0  0  0  0  0  0
    0.1549    2.0350  -20.7851 H   0  0  0  0  0  0
    6.9260    0.5127  -21.7810 H   0  0  0  0  0  0
   -3.2183    3.4410  -28.3083 H   0  0  0  0  0  0
    4.2280    7.0850  -21.1230 N   0  0  1  0  0  0
    7.2930   10.0540  -22.5200 N   0  0  0  0  0  0
    5.9970    9.9020  -22.1500 N   0  0  0  0  0  0
    4.7570    8.3700  -20.5390 C   0  0  0  0  0  0
    6.0020    8.8880  -21.2460 C   0  0  0  0  0  0
    3.4360    7.2250  -22.3980 C   0  0  0  0  0  0
    7.2390    8.4200  -21.0530 C   0  0  0  0  0  0
    4.8910   10.7200  -22.6590 C   0  0  0  0  0  0
    9.5500    9.1080  -22.0680 C   0  0  0  0  0  0
    8.0510    9.1940  -21.8880 C   0  0  0  0  0  0
    5.0526    6.4255  -21.3502 H   0  0  0  0  0  0
    4.9790    8.2210  -19.4720 H   0  0  0  0  0  0
    3.9706    9.1384  -20.5730 H   0  0  0  0  0  0
    4.0825    7.6377  -23.1864 H   0  0  0  0  0  0
    2.6046    7.9273  -22.2379 H   0  0  0  0  0  0
    7.4080    7.6048  -20.3588 H   0  0  0  0  0  0
    3.9475   10.3898  -22.1998 H   0  0  0  0  0  0
    5.0710   11.7760  -22.4090 H   0  0  0  0  0  0
    4.8250   10.6091  -23.7514 H   0  0  0  0  0  0
    9.9518    8.3084  -21.4283 H   0  0  0  0  0  0
    9.7810    8.8850  -23.1201 H   0  0  0  0  0  0
   10.0100   10.0669  -21.7870 H   0  0  0  0  0  0
  1  2  2  0  0  0
  1  3  1  0  0  0
  1 34  1  0  0  0
  2  6  1  0  0  0
  2 35  1  0  0  0
  3  5  2  0  0  0
  3 27  1  0  0  0
  4  5  1  0  0  0
  4  6  2  0  0  0
  4 18  1  0  0  0
  5 24  1  0  0  0
  6 10  1  0  0  0
  7 10  2  0  0  0
  7 23  1  0  0  0
  7 33  1  0  0  0
  8 21  1  0  0  0
  8 22  1  0  0  0
  8 36  1  0  0  0
  8 37  1  0  0  0
  9 21  1  0  0  0
  9 31  1  0  0  0
  9 38  1  0  0  0
  9 39  1  0  0  0
 10 40  1  0  0  0
 11 12  1  0  0  0
 11 14  2  0  0  0
 11 15  1  0  0  0
 12 17  1  0  0  0
 12 28  2  0  0  0
 13 28  1  0  0  0
 13 29  2  0  0  0
 13 57  1  0  0  0
 14 29  1  0  0  0
 14 31  1  0  0  0
 15 30  2  0  0  0
 15 41  1  0  0  0
 16 17  2  0  0  0
 16 18  1  0  0  0
 16 30  1  0  0  0
 17 26  1  0  0  0
 18 23  2  0  0  0
 19 20  1  0  0  0
 19 31  1  0  0  0
 19 42  1  0  0  0
 19 43  1  0  0  0
 20 22  1  0  0  0
 20 32  1  0  0  0
 20 44  1  0  0  0
 21 32  1  0  0  0
 21 45  1  0  0  0
 22 46  1  0  0  0
 22 47  1  0  0  0
 23 48  1  0  0  0
 24 25  3  0  0  0
 25 49  1  0  0  0
 32 50  1  0  0  0
 33 51  1  0  0  0
 52 55  1  0  0  0
 52 57  1  0  0  0
 52 62  1  0  0  0
 53 54  1  0  0  0
 53 61  2  0  0  0
 54 56  1  0  0  0
 54 59  1  0  0  0
 55 56  1  0  0  0
 55 63  1  0  0  0
 55 64  1  0  0  0
 56 58  2  0  0  0
 57 65  1  0  0  0
 57 66  1  0  0  0
 58 61  1  0  0  0
 58 67  1  0  0  0
 59 68  1  0  0  0
 59 69  1  0  0  0
 59 70  1  0  0  0
 60 61  1  0  0  0
 60 71  1  0  0  0
 60 72  1  0  0  0
 60 73  1  0  0  0
M  END
> <s_m_entry_id>
510

> <s_m_entry_name>
000000352.1

> <s_m_Source_Path>
/Users/zaksoul/Documents/3r_UNI/2nd_SEMESTER/BSC/FRAG_RECON/RESULTS/2

> <s_m_Source_File>
000000352.mol2

> <i_m_Source_File_Index>
1

$$$$
No_0_370
                    3D
 Schrodinger Suite 2022-4.
 69 75  0  0  1  0            999 V2000
   -5.2420    3.7250  -21.8880 C   0  0  0  0  0  0
   -5.5170    3.9220  -23.2200 C   0  0  0  0  0  0
   -4.0040    3.4560  -21.5580 C   0  0  0  0  0  0
   -3.1290    3.5810  -23.7310 C   0  0  0  0  0  0
   -2.9600    3.3290  -22.3130 C   0  0  0  0  0  0
   -4.4780    3.8610  -24.2400 C   0  0  0  0  0  0
   -3.7410    3.8820  -26.4440 C   0  0  0  0  0  0
    6.0220    3.0150  -21.2630 C   0  0  0  0  0  0
    5.8640    3.1690  -23.8110 C   0  0  0  0  0  0
   -4.7390    3.9960  -25.5720 C   0  0  0  0  0  0
    2.0860    3.7600  -23.7940 C   0  0  0  0  0  0
    1.2810    4.8770  -23.4840 C   0  0  0  0  0  0
    3.0980    6.0500  -22.8150 C   0  0  0  0  0  0
    3.4910    3.9340  -23.4920 C   0  0  0  0  0  0
    1.5210    2.6520  -24.4550 C   0  0  0  0  0  0
   -0.5950    3.4900  -24.3230 C   0  0  0  0  0  0
   -0.0490    4.7020  -23.7240 C   0  0  0  0  0  0
   -2.0510    3.5140  -24.6660 C   0  0  0  0  0  0
    4.0700    1.4280  -23.2140 C   0  0  0  0  0  0
    5.0090    1.0570  -22.0770 C   0  0  2  0  0  0
    6.6150    2.5810  -22.6210 C   0  0  2  0  0  0
    5.0130    2.0540  -20.9060 C   0  0  0  0  0  0
   -2.3870    3.6830  -26.0900 C   0  0  0  0  0  0
   -1.6150    2.8980  -21.7270 C   0  0  0  0  0  0
   -0.5840    2.5360  -21.2310 C   0  0  0  0  0  0
   -0.8760    5.7550  -23.3690 F   0  0  0  0  0  0
   -3.7850    3.2060  -20.1790 F   0  0  0  0  0  0
    1.7760    6.0290  -22.9520 N   0  0  0  0  0  0
    3.9820    5.0770  -23.0460 N   0  0  0  0  0  0
    0.2120    2.5790  -24.7490 N   0  0  0  0  0  0
    4.3960    2.8760  -23.6810 N   0  0  0  0  0  0
    6.4120    1.1100  -22.5710 N   0  0  1  0  0  0
   -3.9250    3.9040  -27.8320 O   0  0  0  0  0  0
   -6.0369    3.7953  -21.1543 H   0  0  0  0  0  0
   -6.5319    4.1298  -23.5392 H   0  0  0  0  0  0
    5.5619    4.0089  -21.3649 H   0  0  0  0  0  0
    6.8148    3.0140  -20.5005 H   0  0  0  0  0  0
    6.2454    2.7230  -24.7414 H   0  0  0  0  0  0
    6.0195    4.2576  -23.8403 H   0  0  0  0  0  0
   -5.7500    4.1938  -25.9093 H   0  0  0  0  0  0
    2.1483    1.8169  -24.7451 H   0  0  0  0  0  0
    3.0296    1.3826  -22.8598 H   0  0  0  0  0  0
    4.2173    0.7316  -24.0527 H   0  0  0  0  0  0
    4.7758    0.0464  -21.7105 H   0  0  0  0  0  0
    7.6860    2.8261  -22.6755 H   0  0  0  0  0  0
    4.0358    2.5562  -20.8526 H   0  0  0  0  0  0
    5.3148    1.5331  -19.9854 H   0  0  0  0  0  0
   -1.6237    3.6569  -26.8593 H   0  0  0  0  0  0
    0.3232    2.2179  -20.7939 H   0  0  0  0  0  0
    7.0598    0.6022  -21.8718 H   0  0  0  0  0  0
   -3.0851    3.8080  -28.2653 H   0  0  0  0  0  0
    6.8860    8.5210  -21.8070 O   0  0  0  0  0  0
    3.9580    7.3700  -20.8680 N   0  0  1  0  0  0
    8.2470    8.1400  -21.6990 N   0  0  0  0  0  0
    4.8180    8.5090  -20.3790 C   0  0  0  0  0  0
    3.6770    7.3800  -22.3470 C   0  0  0  0  0  0
    7.1610    7.7240  -19.7970 C   0  0  0  0  0  0
    9.7020    7.1470  -19.9640 C   0  0  0  0  0  0
    6.2910    8.2480  -20.6440 C   0  0  0  0  0  0
    8.3860    7.6710  -20.4960 C   0  0  0  0  0  0
    4.4451    6.4308  -20.6510 H   0  0  0  0  0  0
    4.6589    8.6491  -19.2996 H   0  0  0  0  0  0
    4.5140    9.4389  -20.8819 H   0  0  0  0  0  0
    4.6079    7.5880  -22.8949 H   0  0  0  0  0  0
    2.9693    8.1896  -22.5789 H   0  0  0  0  0  0
    6.8431    7.4421  -18.7943 H   0  0  0  0  0  0
    9.5691    6.8062  -18.9266 H   0  0  0  0  0  0
   10.0402    6.3046  -20.5853 H   0  0  0  0  0  0
   10.4552    7.9482  -19.9920 H   0  0  0  0  0  0
  1  2  2  0  0  0
  1  3  1  0  0  0
  1 34  1  0  0  0
  2  6  1  0  0  0
  2 35  1  0  0  0
  3  5  2  0  0  0
  3 27  1  0  0  0
  4  5  1  0  0  0
  4  6  2  0  0  0
  4 18  1  0  0  0
  5 24  1  0  0  0
  6 10  1  0  0  0
  7 10  2  0  0  0
  7 23  1  0  0  0
  7 33  1  0  0  0
  8 21  1  0  0  0
  8 22  1  0  0  0
  8 36  1  0  0  0
  8 37  1  0  0  0
  9 21  1  0  0  0
  9 31  1  0  0  0
  9 38  1  0  0  0
  9 39  1  0  0  0
 10 40  1  0  0  0
 11 12  1  0  0  0
 11 14  2  0  0  0
 11 15  1  0  0  0
 12 17  1  0  0  0
 12 28  2  0  0  0
 13 28  1  0  0  0
 13 29  2  0  0  0
 13 56  1  0  0  0
 14 29  1  0  0  0
 14 31  1  0  0  0
 15 30  2  0  0  0
 15 41  1  0  0  0
 16 17  2  0  0  0
 16 18  1  0  0  0
 16 30  1  0  0  0
 17 26  1  0  0  0
 18 23  2  0  0  0
 19 20  1  0  0  0
 19 31  1  0  0  0
 19 42  1  0  0  0
 19 43  1  0  0  0
 20 22  1  0  0  0
 20 32  1  0  0  0
 20 44  1  0  0  0
 21 32  1  0  0  0
 21 45  1  0  0  0
 22 46  1  0  0  0
 22 47  1  0  0  0
 23 48  1  0  0  0
 24 25  3  0  0  0
 25 49  1  0  0  0
 32 50  1  0  0  0
 33 51  1  0  0  0
 52 54  1  0  0  0
 52 59  1  0  0  0
 53 55  1  0  0  0
 53 56  1  0  0  0
 53 61  1  0  0  0
 54 60  2  0  0  0
 55 59  1  0  0  0
 55 62  1  0  0  0
 55 63  1  0  0  0
 56 64  1  0  0  0
 56 65  1  0  0  0
 57 59  2  0  0  0
 57 60  1  0  0  0
 57 66  1  0  0  0
 58 60  1  0  0  0
 58 67  1  0  0  0
 58 68  1  0  0  0
 58 69  1  0  0  0
M  END
> <s_m_entry_id>
511

> <s_m_entry_name>
000000353.1

> <s_m_Source_Path>
/Users/zaksoul/Documents/3r_UNI/2nd_SEMESTER/BSC/FRAG_RECON/RESULTS/2

> <s_m_Source_File>
000000353.mol2

> <i_m_Source_File_Index>
1

$$$$
No_0_371
                    3D
 Schrodinger Suite 2022-4.
 69 75  0  0  1  0            999 V2000
   -5.2660    3.5540  -21.5980 C   0  0  0  0  0  0
   -5.5830    3.7020  -22.9280 C   0  0  0  0  0  0
   -4.0120    3.3290  -21.2960 C   0  0  0  0  0  0
   -3.2020    3.4090  -23.4950 C   0  0  0  0  0  0
   -2.9860    3.2060  -22.0760 C   0  0  0  0  0  0
   -4.5710    3.6370  -23.9740 C   0  0  0  0  0  0
   -3.8960    3.6090  -26.1980 C   0  0  0  0  0  0
    6.0270    3.1650  -21.2730 C   0  0  0  0  0  0
    5.7940    3.2340  -23.8180 C   0  0  0  0  0  0
   -4.8720    3.7240  -25.3020 C   0  0  0  0  0  0
    2.0030    3.7260  -23.7130 C   0  0  0  0  0  0
    1.1760    4.8300  -23.4140 C   0  0  0  0  0  0
    2.9780    6.0700  -22.8320 C   0  0  0  0  0  0
    3.4110    3.9460  -23.4560 C   0  0  0  0  0  0
    1.4510    2.5830  -24.3230 C   0  0  0  0  0  0
   -0.6830    3.3670  -24.1570 C   0  0  0  0  0  0
   -0.1550    4.6110  -23.6110 C   0  0  0  0  0  0
   -2.1480    3.3420  -24.4580 C   0  0  0  0  0  0
    4.0660    1.4660  -23.1190 C   0  0  0  0  0  0
    5.0460    1.1560  -21.9980 C   0  0  2  0  0  0
    6.5940    2.7050  -22.6330 C   0  0  2  0  0  0
    5.0540    2.1890  -20.8580 C   0  0  0  0  0  0
   -2.5270    3.4570  -25.8770 C   0  0  0  0  0  0
   -1.6150    2.8290  -21.5160 C   0  0  0  0  0  0
   -0.5610    2.5110  -21.0380 C   0  0  0  0  0  0
   -1.0000    5.6530  -23.2640 F   0  0  0  0  0  0
   -3.7480    3.1280  -19.9170 F   0  0  0  0  0  0
    1.6540    6.0100  -22.9310 N   0  0  0  0  0  0
    3.8810    5.1150  -23.0590 N   0  0  0  0  0  0
    0.1360    2.4650  -24.5780 N   0  0  0  0  0  0
    4.3380    2.9070  -23.6380 N   0  0  0  0  0  0
    6.4330    1.2300  -22.5330 N   0  0  1  0  0  0
   -4.1190    3.5830  -27.5800 O   0  0  0  0  0  0
   -6.0423    3.6253  -20.8448 H   0  0  0  0  0  0
   -6.6117    3.8726  -23.2241 H   0  0  0  0  0  0
    5.5363    4.1423  -21.3921 H   0  0  0  0  0  0
    6.8402    3.2074  -20.5335 H   0  0  0  0  0  0
    6.1623    2.7709  -24.7453 H   0  0  0  0  0  0
    5.9191    4.3248  -23.8856 H   0  0  0  0  0  0
   -5.8972    3.8835  -25.6160 H   0  0  0  0  0  0
    2.0924    1.7559  -24.6051 H   0  0  0  0  0  0
    3.0372    1.4035  -22.7347 H   0  0  0  0  0  0
    4.2093    0.7475  -23.9395 H   0  0  0  0  0  0
    4.8513    0.1514  -21.5945 H   0  0  0  0  0  0
    7.6559    2.9765  -22.7259 H   0  0  0  0  0  0
    4.0647    2.6655  -20.7924 H   0  0  0  0  0  0
    5.3952    1.7044  -19.9313 H   0  0  0  0  0  0
   -1.7852    3.4279  -26.6669 H   0  0  0  0  0  0
    0.3664    2.2309  -20.6178 H   0  0  0  0  0  0
    7.1131    0.7617  -21.8369 H   0  0  0  0  0  0
   -3.2891    3.4960  -28.0340 H   0  0  0  0  0  0
    6.6800    8.8390  -22.5000 O   0  0  0  0  0  0
    4.1220    7.3900  -21.0370 N   0  0  1  0  0  0
    8.0590    8.5800  -22.7000 N   0  0  0  0  0  0
    4.9700    8.5830  -20.6750 C   0  0  0  0  0  0
    3.5330    7.4300  -22.4210 C   0  0  0  0  0  0
    7.4410    7.9950  -20.6400 C   0  0  0  0  0  0
    9.9260    7.6600  -21.3660 C   0  0  0  0  0  0
    6.3700    8.4690  -21.2560 C   0  0  0  0  0  0
    8.4880    8.0810  -21.5810 C   0  0  0  0  0  0
    4.7198    6.4923  -20.9800 H   0  0  0  0  0  0
    5.0350    8.6680  -19.5802 H   0  0  0  0  0  0
    4.4920    9.5000  -21.0500 H   0  0  0  0  0  0
    4.3059    7.7419  -23.1389 H   0  0  0  0  0  0
    2.7281    8.1789  -22.4550 H   0  0  0  0  0  0
    7.3670    7.6478  -19.6105 H   0  0  0  0  0  0
   10.0449    7.2692  -20.3446 H   0  0  0  0  0  0
   10.1909    6.8762  -22.0908 H   0  0  0  0  0  0
   10.5876    8.5277  -21.5051 H   0  0  0  0  0  0
  1  2  2  0  0  0
  1  3  1  0  0  0
  1 34  1  0  0  0
  2  6  1  0  0  0
  2 35  1  0  0  0
  3  5  2  0  0  0
  3 27  1  0  0  0
  4  5  1  0  0  0
  4  6  2  0  0  0
  4 18  1  0  0  0
  5 24  1  0  0  0
  6 10  1  0  0  0
  7 10  2  0  0  0
  7 23  1  0  0  0
  7 33  1  0  0  0
  8 21  1  0  0  0
  8 22  1  0  0  0
  8 36  1  0  0  0
  8 37  1  0  0  0
  9 21  1  0  0  0
  9 31  1  0  0  0
  9 38  1  0  0  0
  9 39  1  0  0  0
 10 40  1  0  0  0
 11 12  1  0  0  0
 11 14  2  0  0  0
 11 15  1  0  0  0
 12 17  1  0  0  0
 12 28  2  0  0  0
 13 28  1  0  0  0
 13 29  2  0  0  0
 13 56  1  0  0  0
 14 29  1  0  0  0
 14 31  1  0  0  0
 15 30  2  0  0  0
 15 41  1  0  0  0
 16 17  2  0  0  0
 16 18  1  0  0  0
 16 30  1  0  0  0
 17 26  1  0  0  0
 18 23  2  0  0  0
 19 20  1  0  0  0
 19 31  1  0  0  0
 19 42  1  0  0  0
 19 43  1  0  0  0
 20 22  1  0  0  0
 20 32  1  0  0  0
 20 44  1  0  0  0
 21 32  1  0  0  0
 21 45  1  0  0  0
 22 46  1  0  0  0
 22 47  1  0  0  0
 23 48  1  0  0  0
 24 25  3  0  0  0
 25 49  1  0  0  0
 32 50  1  0  0  0
 33 51  1  0  0  0
 52 54  1  0  0  0
 52 59  1  0  0  0
 53 55  1  0  0  0
 53 56  1  0  0  0
 53 61  1  0  0  0
 54 60  2  0  0  0
 55 59  1  0  0  0
 55 62  1  0  0  0
 55 63  1  0  0  0
 56 64  1  0  0  0
 56 65  1  0  0  0
 57 59  2  0  0  0
 57 60  1  0  0  0
 57 66  1  0  0  0
 58 60  1  0  0  0
 58 67  1  0  0  0
 58 68  1  0  0  0
 58 69  1  0  0  0
M  END
> <s_m_entry_id>
512

> <s_m_entry_name>
000000354.1

> <s_m_Source_Path>
/Users/zaksoul/Documents/3r_UNI/2nd_SEMESTER/BSC/FRAG_RECON/RESULTS/2

> <s_m_Source_File>
000000354.mol2

> <i_m_Source_File_Index>
1

$$$$
No_0_372
                    3D
 Schrodinger Suite 2022-4.
 69 75  0  0  1  0            999 V2000
   -5.1760    3.3550  -21.9280 C   0  0  0  0  0  0
   -5.4400    3.5610  -23.2610 C   0  0  0  0  0  0
   -3.9400    3.0900  -21.5890 C   0  0  0  0  0  0
   -3.0460    3.2360  -23.7520 C   0  0  0  0  0  0
   -2.8880    2.9740  -22.3340 C   0  0  0  0  0  0
   -4.3910    3.5130  -24.2710 C   0  0  0  0  0  0
   -3.6340    3.5540  -26.4680 C   0  0  0  0  0  0
    6.0860    2.6990  -21.2040 C   0  0  0  0  0  0
    5.9500    2.8710  -23.7520 C   0  0  0  0  0  0
   -4.6400    3.6570  -25.6050 C   0  0  0  0  0  0
    2.1690    3.4430  -23.7660 C   0  0  0  0  0  0
    1.3550    4.5530  -23.4550 C   0  0  0  0  0  0
    3.1600    5.7300  -22.7600 C   0  0  0  0  0  0
    3.5700    3.6220  -23.4490 C   0  0  0  0  0  0
    1.6160    2.3370  -24.4400 C   0  0  0  0  0  0
   -0.5060    3.1630  -24.3220 C   0  0  0  0  0  0
    0.0280    4.3730  -23.7090 C   0  0  0  0  0  0
   -1.9590    3.1820  -24.6770 C   0  0  0  0  0  0
    4.1600    1.1170  -23.1850 C   0  0  0  0  0  0
    5.0900    0.7420  -22.0420 C   0  0  2  0  0  0
    6.6930    2.2790  -22.5600 C   0  0  2  0  0  0
    5.0780    1.7300  -20.8640 C   0  0  0  0  0  0
   -2.2820    3.3600  -26.1040 C   0  0  0  0  0  0
   -1.5470    2.5450  -21.7390 C   0  0  0  0  0  0
   -0.5190    2.1860  -21.2370 C   0  0  0  0  0  0
   -0.8080    5.4190  -23.3530 F   0  0  0  0  0  0
   -3.7320    2.8310  -20.2090 F   0  0  0  0  0  0
    1.8390    5.7030  -22.9100 N   0  0  0  0  0  0
    4.0500    4.7640  -22.9900 N   0  0  0  0  0  0
    0.3100    2.2590  -24.7470 N   0  0  0  0  0  0
    4.4820    2.5700  -23.6380 N   0  0  0  0  0  0
    6.4980    0.8060  -22.5220 N   0  0  1  0  0  0
   -3.8050    3.5860  -27.8580 O   0  0  0  0  0  0
   -5.9780    3.4152  -21.2012 H   0  0  0  0  0  0
   -6.4529    3.7658  -23.5883 H   0  0  0  0  0  0
    5.6208    3.6909  -21.3029 H   0  0  0  0  0  0
    6.8713    2.6960  -20.4338 H   0  0  0  0  0  0
    6.3429    2.4347  -24.6822 H   0  0  0  0  0  0
    6.1003    3.9605  -23.7722 H   0  0  0  0  0  0
   -5.6490    3.8516  -25.9500 H   0  0  0  0  0  0
    2.2501    1.5073  -24.7309 H   0  0  0  0  0  0
    3.1166    1.0625  -22.8409 H   0  0  0  0  0  0
    4.3184    0.4278  -24.0276 H   0  0  0  0  0  0
    4.8588   -0.2727  -21.6856 H   0  0  0  0  0  0
    7.7633    2.5292  -22.6024 H   0  0  0  0  0  0
    4.0975    2.2263  -20.8156 H   0  0  0  0  0  0
    5.3736    1.2044  -19.9440 H   0  0  0  0  0  0
   -1.5116    3.3439  -26.8664 H   0  0  0  0  0  0
    0.3857    1.8691  -20.7941 H   0  0  0  0  0  0
    7.1421    0.2957  -21.8212 H   0  0  0  0  0  0
   -2.9604    3.4969  -28.2838 H   0  0  0  0  0  0
    6.8220    8.5610  -22.5320 O   0  0  0  0  0  0
    4.4560    6.9060  -20.9680 N   0  0  1  0  0  0
    8.1780    8.3630  -22.8930 N   0  0  0  0  0  0
    5.3130    8.0840  -20.5790 C   0  0  0  0  0  0
    3.7270    7.0600  -22.2760 C   0  0  0  0  0  0
    7.7850    7.5680  -20.8480 C   0  0  0  0  0  0
   10.1890    7.3750  -21.8480 C   0  0  0  0  0  0
    6.6480    8.0660  -21.3050 C   0  0  0  0  0  0
    8.7290    7.7720  -21.8760 C   0  0  0  0  0  0
    5.0734    6.0245  -21.0581 H   0  0  0  0  0  0
    5.4880    8.0660  -19.4932 H   0  0  0  0  0  0
    4.7810    9.0179  -20.8130 H   0  0  0  0  0  0
    4.4166    7.4608  -23.0335 H   0  0  0  0  0  0
    2.9087    7.7853  -22.1560 H   0  0  0  0  0  0
    7.8240    7.1221  -19.8552 H   0  0  0  0  0  0
   10.4189    6.8931  -20.8863 H   0  0  0  0  0  0
   10.3941    6.6716  -22.6685 H   0  0  0  0  0  0
   10.8159    8.2709  -21.9680 H   0  0  0  0  0  0
  1  2  2  0  0  0
  1  3  1  0  0  0
  1 34  1  0  0  0
  2  6  1  0  0  0
  2 35  1  0  0  0
  3  5  2  0  0  0
  3 27  1  0  0  0
  4  5  1  0  0  0
  4  6  2  0  0  0
  4 18  1  0  0  0
  5 24  1  0  0  0
  6 10  1  0  0  0
  7 10  2  0  0  0
  7 23  1  0  0  0
  7 33  1  0  0  0
  8 21  1  0  0  0
  8 22  1  0  0  0
  8 36  1  0  0  0
  8 37  1  0  0  0
  9 21  1  0  0  0
  9 31  1  0  0  0
  9 38  1  0  0  0
  9 39  1  0  0  0
 10 40  1  0  0  0
 11 12  1  0  0  0
 11 14  2  0  0  0
 11 15  1  0  0  0
 12 17  1  0  0  0
 12 28  2  0  0  0
 13 28  1  0  0  0
 13 29  2  0  0  0
 13 56  1  0  0  0
 14 29  1  0  0  0
 14 31  1  0  0  0
 15 30  2  0  0  0
 15 41  1  0  0  0
 16 17  2  0  0  0
 16 18  1  0  0  0
 16 30  1  0  0  0
 17 26  1  0  0  0
 18 23  2  0  0  0
 19 20  1  0  0  0
 19 31  1  0  0  0
 19 42  1  0  0  0
 19 43  1  0  0  0
 20 22  1  0  0  0
 20 32  1  0  0  0
 20 44  1  0  0  0
 21 32  1  0  0  0
 21 45  1  0  0  0
 22 46  1  0  0  0
 22 47  1  0  0  0
 23 48  1  0  0  0
 24 25  3  0  0  0
 25 49  1  0  0  0
 32 50  1  0  0  0
 33 51  1  0  0  0
 52 54  1  0  0  0
 52 59  1  0  0  0
 53 55  1  0  0  0
 53 56  1  0  0  0
 53 61  1  0  0  0
 54 60  2  0  0  0
 55 59  1  0  0  0
 55 62  1  0  0  0
 55 63  1  0  0  0
 56 64  1  0  0  0
 56 65  1  0  0  0
 57 59  2  0  0  0
 57 60  1  0  0  0
 57 66  1  0  0  0
 58 60  1  0  0  0
 58 67  1  0  0  0
 58 68  1  0  0  0
 58 69  1  0  0  0
M  END
> <s_m_entry_id>
513

> <s_m_entry_name>
000000355.1

> <s_m_Source_Path>
/Users/zaksoul/Documents/3r_UNI/2nd_SEMESTER/BSC/FRAG_RECON/RESULTS/2

> <s_m_Source_File>
000000355.mol2

> <i_m_Source_File_Index>
1

$$$$
No_0_373
                    3D
 Schrodinger Suite 2022-4.
 69 75  0  0  1  0            999 V2000
   -5.1810    3.6090  -21.8530 C   0  0  0  0  0  0
   -5.4520    3.8050  -23.1860 C   0  0  0  0  0  0
   -3.9420    3.3510  -21.5190 C   0  0  0  0  0  0
   -3.0590    3.4860  -23.6870 C   0  0  0  0  0  0
   -2.8930    3.2340  -22.2690 C   0  0  0  0  0  0
   -4.4090    3.7540  -24.2010 C   0  0  0  0  0  0
   -3.6630    3.7850  -26.4030 C   0  0  0  0  0  0
    6.0870    3.0010  -21.1820 C   0  0  0  0  0  0
    5.9380    3.1560  -23.7310 C   0  0  0  0  0  0
   -4.6650    3.8890  -25.5350 C   0  0  0  0  0  0
    2.1540    3.7130  -23.7290 C   0  0  0  0  0  0
    1.3370    4.8230  -23.4210 C   0  0  0  0  0  0
    3.1410    6.0110  -22.7430 C   0  0  0  0  0  0
    3.5570    3.8990  -23.4210 C   0  0  0  0  0  0
    1.6030    2.6010  -24.3930 C   0  0  0  0  0  0
   -0.5220    3.4190  -24.2700 C   0  0  0  0  0  0
    0.0100    4.6350  -23.6670 C   0  0  0  0  0  0
   -1.9770    3.4300  -24.6180 C   0  0  0  0  0  0
    4.1570    1.3990  -23.1440 C   0  0  0  0  0  0
    5.0950    1.0350  -22.0030 C   0  0  2  0  0  0
    6.6890    2.5740  -22.5390 C   0  0  2  0  0  0
    5.0840    2.0310  -20.8310 C   0  0  0  0  0  0
   -2.3080    3.5970  -26.0440 C   0  0  0  0  0  0
   -1.5470    2.8150  -21.6780 C   0  0  0  0  0  0
   -0.5150    2.4620  -21.1780 C   0  0  0  0  0  0
   -0.8280    5.6800  -23.3140 F   0  0  0  0  0  0
   -3.7260    3.1020  -20.1390 F   0  0  0  0  0  0
    1.8200    5.9780  -22.8860 N   0  0  0  0  0  0
    4.0350    5.0470  -22.9720 N   0  0  0  0  0  0
    0.2950    2.5160  -24.6930 N   0  0  0  0  0  0
    4.4710    2.8500  -23.6070 N   0  0  0  0  0  0
    6.5000    1.1010  -22.4910 N   0  0  1  0  0  0
   -3.8410    3.8060  -27.7920 O   0  0  0  0  0  0
   -5.9796    3.6712  -21.1226 H   0  0  0  0  0  0
   -6.4675    4.0037  -23.5091 H   0  0  0  0  0  0
    5.6179    3.9906  -21.2849 H   0  0  0  0  0  0
    6.8763    3.0060  -20.4159 H   0  0  0  0  0  0
    6.3275    2.7150  -24.6604 H   0  0  0  0  0  0
    6.0833    4.2460  -23.7593 H   0  0  0  0  0  0
   -5.6765    4.0776  -25.8762 H   0  0  0  0  0  0
    2.2385    1.7718  -24.6821 H   0  0  0  0  0  0
    3.1157    1.3435  -22.7939 H   0  0  0  0  0  0
    4.3144    0.7047  -23.9826 H   0  0  0  0  0  0
    4.8700    0.0218  -21.6387 H   0  0  0  0  0  0
    7.7578    2.8293  -22.5885 H   0  0  0  0  0  0
    4.1018    2.5236  -20.7805 H   0  0  0  0  0  0
    5.3877    1.5123  -19.9097 H   0  0  0  0  0  0
   -1.5411    3.5789  -26.8099 H   0  0  0  0  0  0
    0.3934    2.1519  -20.7378 H   0  0  0  0  0  0
    7.1492    0.5983  -21.7894 H   0  0  0  0  0  0
   -2.9984    3.7179  -28.2217 H   0  0  0  0  0  0
    7.9520    9.5020  -21.3380 O   0  0  0  0  0  0
    4.0470    7.3050  -20.8040 N   0  0  1  0  0  0
    6.5400    9.6110  -21.3980 N   0  0  0  0  0  0
    4.6050    8.5840  -20.2350 C   0  0  0  0  0  0
    3.7060    7.3460  -22.2710 C   0  0  0  0  0  0
    7.1490    8.1120  -19.8640 C   0  0  0  0  0  0
    9.6780    8.2200  -20.0570 C   0  0  0  0  0  0
    6.0850    8.7750  -20.5140 C   0  0  0  0  0  0
    8.2540    8.5970  -20.4060 C   0  0  0  0  0  0
    4.7682    6.5108  -20.6790 H   0  0  0  0  0  0
    4.4321    8.6060  -19.1489 H   0  0  0  0  0  0
    4.0443    9.4395  -20.6398 H   0  0  0  0  0  0
    4.6098    7.5869  -22.8499 H   0  0  0  0  0  0
    2.9680    8.1409  -22.4540 H   0  0  0  0  0  0
    6.9400    7.3740  -19.0910 H   0  0  0  0  0  0
    9.6730    7.4578  -19.2638 H   0  0  0  0  0  0
   10.1800    7.8170  -20.9490 H   0  0  0  0  0  0
   10.2181    9.1112  -19.7049 H   0  0  0  0  0  0
  1  2  2  0  0  0
  1  3  1  0  0  0
  1 34  1  0  0  0
  2  6  1  0  0  0
  2 35  1  0  0  0
  3  5  2  0  0  0
  3 27  1  0  0  0
  4  5  1  0  0  0
  4  6  2  0  0  0
  4 18  1  0  0  0
  5 24  1  0  0  0
  6 10  1  0  0  0
  7 10  2  0  0  0
  7 23  1  0  0  0
  7 33  1  0  0  0
  8 21  1  0  0  0
  8 22  1  0  0  0
  8 36  1  0  0  0
  8 37  1  0  0  0
  9 21  1  0  0  0
  9 31  1  0  0  0
  9 38  1  0  0  0
  9 39  1  0  0  0
 10 40  1  0  0  0
 11 12  1  0  0  0
 11 14  2  0  0  0
 11 15  1  0  0  0
 12 17  1  0  0  0
 12 28  2  0  0  0
 13 28  1  0  0  0
 13 29  2  0  0  0
 13 56  1  0  0  0
 14 29  1  0  0  0
 14 31  1  0  0  0
 15 30  2  0  0  0
 15 41  1  0  0  0
 16 17  2  0  0  0
 16 18  1  0  0  0
 16 30  1  0  0  0
 17 26  1  0  0  0
 18 23  2  0  0  0
 19 20  1  0  0  0
 19 31  1  0  0  0
 19 42  1  0  0  0
 19 43  1  0  0  0
 20 22  1  0  0  0
 20 32  1  0  0  0
 20 44  1  0  0  0
 21 32  1  0  0  0
 21 45  1  0  0  0
 22 46  1  0  0  0
 22 47  1  0  0  0
 23 48  1  0  0  0
 24 25  3  0  0  0
 25 49  1  0  0  0
 32 50  1  0  0  0
 33 51  1  0  0  0
 52 54  1  0  0  0
 52 60  1  0  0  0
 53 55  1  0  0  0
 53 56  1  0  0  0
 53 61  1  0  0  0
 54 59  2  0  0  0
 55 59  1  0  0  0
 55 62  1  0  0  0
 55 63  1  0  0  0
 56 64  1  0  0  0
 56 65  1  0  0  0
 57 59  1  0  0  0
 57 60  2  0  0  0
 57 66  1  0  0  0
 58 60  1  0  0  0
 58 67  1  0  0  0
 58 68  1  0  0  0
 58 69  1  0  0  0
M  END
> <s_m_entry_id>
514

> <s_m_entry_name>
000000356.1

> <s_m_Source_Path>
/Users/zaksoul/Documents/3r_UNI/2nd_SEMESTER/BSC/FRAG_RECON/RESULTS/2

> <s_m_Source_File>
000000356.mol2

> <i_m_Source_File_Index>
1

$$$$
No_0_374
                    3D
 Schrodinger Suite 2022-4.
 69 75  0  0  1  0            999 V2000
   -5.1200    3.4040  -21.9060 C   0  0  0  0  0  0
   -5.4040    3.5930  -23.2380 C   0  0  0  0  0  0
   -3.8760    3.1590  -21.5810 C   0  0  0  0  0  0
   -3.0120    3.2960  -23.7570 C   0  0  0  0  0  0
   -2.8320    3.0500  -22.3390 C   0  0  0  0  0  0
   -4.3680    3.5500  -24.2610 C   0  0  0  0  0  0
   -3.6400    3.5810  -26.4680 C   0  0  0  0  0  0
    6.1580    2.9050  -21.3230 C   0  0  0  0  0  0
    5.9870    3.0520  -23.8700 C   0  0  0  0  0  0
   -4.6360    3.6780  -25.5930 C   0  0  0  0  0  0
    2.1990    3.5730  -23.8400 C   0  0  0  0  0  0
    1.3740    4.6750  -23.5290 C   0  0  0  0  0  0
    3.1720    5.8820  -22.8680 C   0  0  0  0  0  0
    3.6020    3.7730  -23.5440 C   0  0  0  0  0  0
    1.6520    2.4530  -24.4970 C   0  0  0  0  0  0
   -0.4790    3.2510  -24.3590 C   0  0  0  0  0  0
    0.0460    4.4740  -23.7640 C   0  0  0  0  0  0
   -1.9360    3.2480  -24.6950 C   0  0  0  0  0  0
    4.2280    1.2790  -23.2640 C   0  0  0  0  0  0
    5.1780    0.9280  -22.1300 C   0  0  2  0  0  0
    6.7540    2.4810  -22.6830 C   0  0  2  0  0  0
    5.1680    1.9260  -20.9610 C   0  0  0  0  0  0
   -2.2800    3.4080  -26.1190 C   0  0  0  0  0  0
   -1.4780    2.6450  -21.7570 C   0  0  0  0  0  0
   -0.4390    2.3030  -21.2650 C   0  0  0  0  0  0
   -0.7990    5.5130  -23.4070 F   0  0  0  0  0  0
   -3.6470    2.9150  -20.2020 F   0  0  0  0  0  0
    1.8490    5.8360  -23.0010 N   0  0  0  0  0  0
    4.0720    4.9260  -23.1010 N   0  0  0  0  0  0
    0.3430    2.3550  -24.7860 N   0  0  0  0  0  0
    4.5250    2.7320  -23.7340 N   0  0  0  0  0  0
    6.5780    1.0060  -22.6290 N   0  0  1  0  0  0
   -3.8300    3.5970  -27.8550 O   0  0  0  0  0  0
   -5.9135    3.4602  -21.1697 H   0  0  0  0  0  0
   -6.4239    3.7817  -23.5532 H   0  0  0  0  0  0
    5.6787    3.8898  -21.4249 H   0  0  0  0  0  0
    6.9532    2.9201  -20.5631 H   0  0  0  0  0  0
    6.3734    2.6121  -24.8012 H   0  0  0  0  0  0
    6.1223    4.1432  -23.9023 H   0  0  0  0  0  0
   -5.6519    3.8567  -25.9263 H   0  0  0  0  0  0
    2.2938    1.6294  -24.7883 H   0  0  0  0  0  0
    3.1900    1.2144  -22.9056 H   0  0  0  0  0  0
    4.3853    0.5841  -24.1021 H   0  0  0  0  0  0
    4.9661   -0.0862  -21.7606 H   0  0  0  0  0  0
    7.8201    2.7455  -22.7416 H   0  0  0  0  0  0
    4.1819    2.4100  -20.9035 H   0  0  0  0  0  0
    5.4830    1.4131  -20.0403 H   0  0  0  0  0  0
   -1.5201    3.3950  -26.8919 H   0  0  0  0  0  0
    0.4758    2.0031  -20.8311 H   0  0  0  0  0  0
    7.2377    0.5109  -21.9318 H   0  0  0  0  0  0
   -2.9900    3.5159  -28.2913 H   0  0  0  0  0  0
    7.9210    9.6470  -22.1130 O   0  0  0  0  0  0
    4.3470    7.1130  -21.0350 N   0  0  1  0  0  0
    6.5200    9.6460  -21.8980 N   0  0  0  0  0  0
    4.9180    8.3920  -20.4790 C   0  0  0  0  0  0
    3.7270    7.2240  -22.4040 C   0  0  0  0  0  0
    7.5120    8.1020  -20.6320 C   0  0  0  0  0  0
    9.9440    8.4260  -21.2860 C   0  0  0  0  0  0
    6.3010    8.7190  -21.0150 C   0  0  0  0  0  0
    8.4570    8.7090  -21.3300 C   0  0  0  0  0  0
    5.1294    6.3726  -21.1130 H   0  0  0  0  0  0
    4.9580    8.3280  -19.3816 H   0  0  0  0  0  0
    4.2343    9.2246  -20.7009 H   0  0  0  0  0  0
    4.4839    7.5750  -23.1209 H   0  0  0  0  0  0
    2.9171    7.9679  -22.3800 H   0  0  0  0  0  0
    7.5050    7.3002  -19.8952 H   0  0  0  0  0  0
   10.1419    7.6144  -20.5704 H   0  0  0  0  0  0
   10.2890    8.1240  -22.2859 H   0  0  0  0  0  0
   10.4813    9.3326  -20.9708 H   0  0  0  0  0  0
  1  2  2  0  0  0
  1  3  1  0  0  0
  1 34  1  0  0  0
  2  6  1  0  0  0
  2 35  1  0  0  0
  3  5  2  0  0  0
  3 27  1  0  0  0
  4  5  1  0  0  0
  4  6  2  0  0  0
  4 18  1  0  0  0
  5 24  1  0  0  0
  6 10  1  0  0  0
  7 10  2  0  0  0
  7 23  1  0  0  0
  7 33  1  0  0  0
  8 21  1  0  0  0
  8 22  1  0  0  0
  8 36  1  0  0  0
  8 37  1  0  0  0
  9 21  1  0  0  0
  9 31  1  0  0  0
  9 38  1  0  0  0
  9 39  1  0  0  0
 10 40  1  0  0  0
 11 12  1  0  0  0
 11 14  2  0  0  0
 11 15  1  0  0  0
 12 17  1  0  0  0
 12 28  2  0  0  0
 13 28  1  0  0  0
 13 29  2  0  0  0
 13 56  1  0  0  0
 14 29  1  0  0  0
 14 31  1  0  0  0
 15 30  2  0  0  0
 15 41  1  0  0  0
 16 17  2  0  0  0
 16 18  1  0  0  0
 16 30  1  0  0  0
 17 26  1  0  0  0
 18 23  2  0  0  0
 19 20  1  0  0  0
 19 31  1  0  0  0
 19 42  1  0  0  0
 19 43  1  0  0  0
 20 22  1  0  0  0
 20 32  1  0  0  0
 20 44  1  0  0  0
 21 32  1  0  0  0
 21 45  1  0  0  0
 22 46  1  0  0  0
 22 47  1  0  0  0
 23 48  1  0  0  0
 24 25  3  0  0  0
 25 49  1  0  0  0
 32 50  1  0  0  0
 33 51  1  0  0  0
 52 54  1  0  0  0
 52 60  1  0  0  0
 53 55  1  0  0  0
 53 56  1  0  0  0
 53 61  1  0  0  0
 54 59  2  0  0  0
 55 59  1  0  0  0
 55 62  1  0  0  0
 55 63  1  0  0  0
 56 64  1  0  0  0
 56 65  1  0  0  0
 57 59  1  0  0  0
 57 60  2  0  0  0
 57 66  1  0  0  0
 58 60  1  0  0  0
 58 67  1  0  0  0
 58 68  1  0  0  0
 58 69  1  0  0  0
M  END
> <s_m_entry_id>
515

> <s_m_entry_name>
000000357.1

> <s_m_Source_Path>
/Users/zaksoul/Documents/3r_UNI/2nd_SEMESTER/BSC/FRAG_RECON/RESULTS/2

> <s_m_Source_File>
000000357.mol2

> <i_m_Source_File_Index>
1

$$$$
No_0_375
                    3D
 Schrodinger Suite 2022-4.
 74 80  0  0  1  0            999 V2000
   -5.1710    3.5740  -21.8600 C   0  0  0  0  0  0
   -5.4820    3.7630  -23.1860 C   0  0  0  0  0  0
   -3.9200    3.3370  -21.5590 C   0  0  0  0  0  0
   -3.0990    3.4820  -23.7520 C   0  0  0  0  0  0
   -2.8900    3.2360  -22.3380 C   0  0  0  0  0  0
   -4.4660    3.7280  -24.2290 C   0  0  0  0  0  0
   -3.7820    3.7660  -26.4500 C   0  0  0  0  0  0
    6.1190    3.1530  -21.4990 C   0  0  0  0  0  0
    5.8970    3.3010  -24.0420 C   0  0  0  0  0  0
   -4.7620    3.8550  -25.5550 C   0  0  0  0  0  0
    2.1070    3.7960  -23.9370 C   0  0  0  0  0  0
    1.2810    4.8920  -23.6080 C   0  0  0  0  0  0
    3.0830    6.1110  -22.9820 C   0  0  0  0  0  0
    3.5140    4.0050  -23.6680 C   0  0  0  0  0  0
    1.5550    2.6730  -24.5840 C   0  0  0  0  0  0
   -0.5780    3.4560  -24.4040 C   0  0  0  0  0  0
   -0.0500    4.6820  -23.8180 C   0  0  0  0  0  0
   -2.0420    3.4430  -24.7120 C   0  0  0  0  0  0
    4.1630    1.5150  -23.4040 C   0  0  0  0  0  0
    5.1370    1.1690  -22.2880 C   0  0  2  0  0  0
    6.6910    2.7340  -22.8700 C   0  0  2  0  0  0
    5.1430    2.1670  -21.1180 C   0  0  0  0  0  0
   -2.4150    3.6020  -26.1280 C   0  0  0  0  0  0
   -1.5220    2.8400  -21.7840 C   0  0  0  0  0  0
   -0.4710    2.5050  -21.3120 C   0  0  0  0  0  0
   -0.8950    5.7140  -23.4430 F   0  0  0  0  0  0
   -3.6620    3.0940  -20.1850 F   0  0  0  0  0  0
    1.7580    6.0560  -23.0890 N   0  0  0  0  0  0
    3.9850    5.1610  -23.2340 N   0  0  0  0  0  0
    0.2410    2.5660  -24.8480 N   0  0  0  0  0  0
    4.4400    2.9710  -23.8780 N   0  0  0  0  0  0
    6.5270    1.2570  -22.8150 N   0  0  1  0  0  0
   -3.9990    3.7820  -27.8330 O   0  0  0  0  0  0
   -5.9506    3.6242  -21.1085 H   0  0  0  0  0  0
   -6.5092    3.9446  -23.4809 H   0  0  0  0  0  0
    5.6316    4.1349  -21.5898 H   0  0  0  0  0  0
    6.9288    3.1722  -20.7548 H   0  0  0  0  0  0
    6.2684    2.8640  -24.9806 H   0  0  0  0  0  0
    6.0242    4.3931  -24.0753 H   0  0  0  0  0  0
   -5.7854    4.0267  -25.8684 H   0  0  0  0  0  0
    2.1963    1.8540  -24.8891 H   0  0  0  0  0  0
    3.1326    1.4433  -23.0256 H   0  0  0  0  0  0
    4.3083    0.8217  -24.2456 H   0  0  0  0  0  0
    4.9392    0.1527  -21.9166 H   0  0  0  0  0  0
    7.7540    3.0055  -22.9497 H   0  0  0  0  0  0
    4.1544    2.6432  -21.0413 H   0  0  0  0  0  0
    5.4791    1.6543  -20.2047 H   0  0  0  0  0  0
   -1.6694    3.5950  -26.9148 H   0  0  0  0  0  0
    0.4544    2.2109  -20.8968 H   0  0  0  0  0  0
    7.2036    0.7664  -22.1309 H   0  0  0  0  0  0
   -3.1673    3.7068  -28.2859 H   0  0  0  0  0  0
    8.2440   10.9710  -22.7490 F   0  0  0  0  0  0
    4.0160    7.4130  -21.0700 N   0  3  0  0  0  0
    4.5660    8.6980  -20.5040 C   0  0  0  0  0  0
    3.6380    7.4560  -22.5280 C   0  0  0  0  0  0
    6.0520    8.8920  -20.7720 C   0  0  0  0  0  0
    7.8350   10.0330  -21.8820 C   0  0  0  0  0  0
    8.3230    8.2980  -20.3240 C   0  0  0  0  0  0
    6.9760    8.1170  -20.1050 C   0  0  0  0  0  0
    6.4860    9.8480  -21.6620 C   0  0  0  0  0  0
   10.2420    9.4610  -21.4430 C   0  0  0  0  0  0
    8.7580    9.2570  -21.2110 C   0  0  0  0  0  0
    3.2171    7.1250  -20.5270 H   0  0  0  0  0  0
    4.6819    6.6711  -20.9210 H   0  0  0  0  0  0
    4.3830    8.7270  -19.4197 H   0  0  0  0  0  0
    4.0062    9.5487  -20.9199 H   0  0  0  0  0  0
    4.5245    7.7082  -23.1284 H   0  0  0  0  0  0
    2.8803    8.2377  -22.6859 H   0  0  0  0  0  0
    9.0454    7.6847  -19.7977 H   0  0  0  0  0  0
    6.6439    7.3599  -19.4039 H   0  0  0  0  0  0
    5.7668   10.4601  -22.1941 H   0  0  0  0  0  0
   10.8122    8.7538  -20.8228 H   0  0  0  0  0  0
   10.4740    9.2870  -22.5041 H   0  0  0  0  0  0
   10.5180   10.4910  -21.1730 H   0  0  0  0  0  0
  1  2  2  0  0  0
  1  3  1  0  0  0
  1 34  1  0  0  0
  2  6  1  0  0  0
  2 35  1  0  0  0
  3  5  2  0  0  0
  3 27  1  0  0  0
  4  5  1  0  0  0
  4  6  2  0  0  0
  4 18  1  0  0  0
  5 24  1  0  0  0
  6 10  1  0  0  0
  7 10  2  0  0  0
  7 23  1  0  0  0
  7 33  1  0  0  0
  8 21  1  0  0  0
  8 22  1  0  0  0
  8 36  1  0  0  0
  8 37  1  0  0  0
  9 21  1  0  0  0
  9 31  1  0  0  0
  9 38  1  0  0  0
  9 39  1  0  0  0
 10 40  1  0  0  0
 11 12  1  0  0  0
 11 14  2  0  0  0
 11 15  1  0  0  0
 12 17  1  0  0  0
 12 28  2  0  0  0
 13 28  1  0  0  0
 13 29  2  0  0  0
 13 55  1  0  0  0
 14 29  1  0  0  0
 14 31  1  0  0  0
 15 30  2  0  0  0
 15 41  1  0  0  0
 16 17  2  0  0  0
 16 18  1  0  0  0
 16 30  1  0  0  0
 17 26  1  0  0  0
 18 23  2  0  0  0
 19 20  1  0  0  0
 19 31  1  0  0  0
 19 42  1  0  0  0
 19 43  1  0  0  0
 20 22  1  0  0  0
 20 32  1  0  0  0
 20 44  1  0  0  0
 21 32  1  0  0  0
 21 45  1  0  0  0
 22 46  1  0  0  0
 22 47  1  0  0  0
 23 48  1  0  0  0
 24 25  3  0  0  0
 25 49  1  0  0  0
 32 50  1  0  0  0
 33 51  1  0  0  0
 52 57  1  0  0  0
 53 54  1  0  0  0
 53 55  1  0  0  0
 53 63  1  0  0  0
 53 64  1  0  0  0
 54 56  1  0  0  0
 54 65  1  0  0  0
 54 66  1  0  0  0
 55 67  1  0  0  0
 55 68  1  0  0  0
 56 59  2  0  0  0
 56 60  1  0  0  0
 57 60  2  0  0  0
 57 62  1  0  0  0
 58 59  1  0  0  0
 58 62  2  0  0  0
 58 69  1  0  0  0
 59 70  1  0  0  0
 60 71  1  0  0  0
 61 62  1  0  0  0
 61 72  1  0  0  0
 61 73  1  0  0  0
 61 74  1  0  0  0
M  CHG  1  53   1
M  END
> <s_m_entry_id>
516

> <s_m_entry_name>
000000358.1

> <s_m_Source_Path>
/Users/zaksoul/Documents/3r_UNI/2nd_SEMESTER/BSC/FRAG_RECON/RESULTS/2

> <s_m_Source_File>
000000358.mol2

> <i_m_Source_File_Index>
1

$$$$
No_0_376
                    3D
 Schrodinger Suite 2022-4.
 73 79  0  0  1  0            999 V2000
   -5.2560    3.5620  -21.9870 C   0  0  0  0  0  0
   -5.5370    3.7380  -23.3210 C   0  0  0  0  0  0
   -4.0130    3.3200  -21.6560 C   0  0  0  0  0  0
   -3.1440    3.4330  -23.8310 C   0  0  0  0  0  0
   -2.9680    3.2020  -22.4110 C   0  0  0  0  0  0
   -4.4980    3.6830  -24.3410 C   0  0  0  0  0  0
   -3.7650    3.6910  -26.5470 C   0  0  0  0  0  0
    6.0200    3.0630  -21.3730 C   0  0  0  0  0  0
    5.8550    3.1830  -23.9220 C   0  0  0  0  0  0
   -4.7640    3.7980  -25.6750 C   0  0  0  0  0  0
    2.0670    3.7060  -23.9060 C   0  0  0  0  0  0
    1.2420    4.8120  -23.6080 C   0  0  0  0  0  0
    3.0390    6.0250  -22.9560 C   0  0  0  0  0  0
    3.4690    3.9090  -23.6090 C   0  0  0  0  0  0
    1.5220    2.5800  -24.5530 C   0  0  0  0  0  0
   -0.6100    3.3810  -24.4270 C   0  0  0  0  0  0
   -0.0850    4.6100  -23.8440 C   0  0  0  0  0  0
   -2.0660    3.3750  -24.7670 C   0  0  0  0  0  0
    4.0940    1.4170  -23.3020 C   0  0  0  0  0  0
    5.0410    1.0770  -22.1620 C   0  0  2  0  0  0
    6.6190    2.6230  -22.7270 C   0  0  2  0  0  0
    5.0280    2.0880  -21.0030 C   0  0  0  0  0  0
   -2.4070    3.5200  -26.1930 C   0  0  0  0  0  0
   -1.6150    2.8020  -21.8220 C   0  0  0  0  0  0
   -0.5770    2.4650  -21.3240 C   0  0  0  0  0  0
   -0.9300    5.6520  -23.5000 F   0  0  0  0  0  0
   -3.7870    3.0900  -20.2740 F   0  0  0  0  0  0
    1.7170    5.9790  -23.0910 N   0  0  0  0  0  0
    3.9400    5.0660  -23.1770 N   0  0  0  0  0  0
    0.2130    2.4800  -24.8440 N   0  0  0  0  0  0
    4.3920    2.8650  -23.7860 N   0  0  0  0  0  0
    6.4430    1.1490  -22.6590 N   0  0  1  0  0  0
   -3.9520    3.6930  -27.9350 O   0  0  0  0  0  0
   -6.0507    3.6262  -21.2525 H   0  0  0  0  0  0
   -6.5561    3.9238  -23.6403 H   0  0  0  0  0  0
    5.5416    4.0471  -21.4860 H   0  0  0  0  0  0
    6.8141    3.0842  -20.6122 H   0  0  0  0  0  0
    6.2432    2.7332  -24.8477 H   0  0  0  0  0  0
    5.9913    4.2737  -23.9654 H   0  0  0  0  0  0
   -5.7791    3.9737  -26.0124 H   0  0  0  0  0  0
    2.1636    1.7527  -24.8341 H   0  0  0  0  0  0
    3.0549    1.3575  -22.9459 H   0  0  0  0  0  0
    4.2525    0.7135  -24.1327 H   0  0  0  0  0  0
    4.8271    0.0669  -21.7826 H   0  0  0  0  0  0
    7.6853    2.8865  -22.7866 H   0  0  0  0  0  0
    4.0421    2.5734  -20.9536 H   0  0  0  0  0  0
    5.3409    1.5844  -20.0765 H   0  0  0  0  0  0
   -1.6452    3.4989  -26.9639 H   0  0  0  0  0  0
    0.3368    2.1691  -20.8851 H   0  0  0  0  0  0
    7.1005    0.6615  -21.9544 H   0  0  0  0  0  0
   -3.1110    3.6069  -28.3684 H   0  0  0  0  0  0
    3.9460    7.3590  -21.0410 N   0  3  0  0  0  0
    9.4520   10.2450  -22.6290 N   0  0  0  0  0  0
    3.5950    7.3720  -22.5050 C   0  0  0  0  0  0
    5.7820    9.0900  -21.0540 C   0  0  0  0  0  0
    4.4360    8.6710  -20.4820 C   0  0  0  0  0  0
    6.9520    8.6430  -20.4800 C   0  0  0  0  0  0
    5.8340    9.9200  -22.1530 C   0  0  0  0  0  0
    8.1670    9.0220  -20.9980 C   0  0  0  0  0  0
    7.0450   10.3020  -22.6770 C   0  0  0  0  0  0
    8.2210    9.8560  -22.1010 C   0  0  0  0  0  0
    4.6373    6.6457  -20.8699 H   0  0  0  0  0  0
    3.1482    7.0481  -20.5091 H   0  0  0  0  0  0
    9.4880   10.8653  -23.4505 H   0  0  0  0  0  0
   10.3259    9.9110  -22.1981 H   0  0  0  0  0  0
    4.4920    7.6140  -23.0940 H   0  0  0  0  0  0
    2.8498    8.1582  -22.6961 H   0  0  0  0  0  0
    4.5110    8.5960  -19.3871 H   0  0  0  0  0  0
    3.6918    9.4552  -20.6850 H   0  0  0  0  0  0
    6.9170    7.9896  -19.6158 H   0  0  0  0  0  0
    4.9169   10.2750  -22.6090 H   0  0  0  0  0  0
    9.0850    8.6680  -20.5430 H   0  0  0  0  0  0
    7.0810   10.9530  -23.5430 H   0  0  0  0  0  0
  1  2  2  0  0  0
  1  3  1  0  0  0
  1 34  1  0  0  0
  2  6  1  0  0  0
  2 35  1  0  0  0
  3  5  2  0  0  0
  3 27  1  0  0  0
  4  5  1  0  0  0
  4  6  2  0  0  0
  4 18  1  0  0  0
  5 24  1  0  0  0
  6 10  1  0  0  0
  7 10  2  0  0  0
  7 23  1  0  0  0
  7 33  1  0  0  0
  8 21  1  0  0  0
  8 22  1  0  0  0
  8 36  1  0  0  0
  8 37  1  0  0  0
  9 21  1  0  0  0
  9 31  1  0  0  0
  9 38  1  0  0  0
  9 39  1  0  0  0
 10 40  1  0  0  0
 11 12  1  0  0  0
 11 14  2  0  0  0
 11 15  1  0  0  0
 12 17  1  0  0  0
 12 28  2  0  0  0
 13 28  1  0  0  0
 13 29  2  0  0  0
 13 54  1  0  0  0
 14 29  1  0  0  0
 14 31  1  0  0  0
 15 30  2  0  0  0
 15 41  1  0  0  0
 16 17  2  0  0  0
 16 18  1  0  0  0
 16 30  1  0  0  0
 17 26  1  0  0  0
 18 23  2  0  0  0
 19 20  1  0  0  0
 19 31  1  0  0  0
 19 42  1  0  0  0
 19 43  1  0  0  0
 20 22  1  0  0  0
 20 32  1  0  0  0
 20 44  1  0  0  0
 21 32  1  0  0  0
 21 45  1  0  0  0
 22 46  1  0  0  0
 22 47  1  0  0  0
 23 48  1  0  0  0
 24 25  3  0  0  0
 25 49  1  0  0  0
 32 50  1  0  0  0
 33 51  1  0  0  0
 52 54  1  0  0  0
 52 56  1  0  0  0
 52 62  1  0  0  0
 52 63  1  0  0  0
 53 61  1  0  0  0
 53 64  1  0  0  0
 53 65  1  0  0  0
 54 66  1  0  0  0
 54 67  1  0  0  0
 55 56  1  0  0  0
 55 57  2  0  0  0
 55 58  1  0  0  0
 56 68  1  0  0  0
 56 69  1  0  0  0
 57 59  1  0  0  0
 57 70  1  0  0  0
 58 60  2  0  0  0
 58 71  1  0  0  0
 59 61  2  0  0  0
 59 72  1  0  0  0
 60 61  1  0  0  0
 60 73  1  0  0  0
M  CHG  1  52   1
M  END
> <s_m_entry_id>
517

> <s_m_entry_name>
000000359.1

> <s_m_Source_Path>
/Users/zaksoul/Documents/3r_UNI/2nd_SEMESTER/BSC/FRAG_RECON/RESULTS/2

> <s_m_Source_File>
000000359.mol2

> <i_m_Source_File_Index>
1

$$$$
No_0_377
                    3D
 Schrodinger Suite 2022-4.
 73 79  0  0  1  0            999 V2000
   -5.1460    3.5860  -21.9970 C   0  0  0  0  0  0
   -5.3940    3.7430  -23.3400 C   0  0  0  0  0  0
   -3.9100    3.3570  -21.6330 C   0  0  0  0  0  0
   -2.9870    3.4510  -23.7870 C   0  0  0  0  0  0
   -2.8450    3.2380  -22.3590 C   0  0  0  0  0  0
   -4.3300    3.6840  -24.3330 C   0  0  0  0  0  0
   -3.5420    3.6700  -26.5200 C   0  0  0  0  0  0
    6.1140    3.1800  -21.0930 C   0  0  0  0  0  0
    6.0130    3.2680  -23.6470 C   0  0  0  0  0  0
   -4.5620    3.7800  -25.6750 C   0  0  0  0  0  0
    2.2220    3.7630  -23.7330 C   0  0  0  0  0  0
    1.3820    4.8660  -23.4700 C   0  0  0  0  0  0
    3.1530    6.1000  -22.7880 C   0  0  0  0  0  0
    3.6150    3.9790  -23.4030 C   0  0  0  0  0  0
    1.7010    2.6240  -24.3790 C   0  0  0  0  0  0
   -0.4380    3.4100  -24.3180 C   0  0  0  0  0  0
    0.0620    4.6500  -23.7370 C   0  0  0  0  0  0
   -1.8860    3.3890  -24.6940 C   0  0  0  0  0  0
    4.2490    1.4970  -23.0500 C   0  0  0  0  0  0
    5.1700    1.1780  -21.8820 C   0  0  2  0  0  0
    6.7500    2.7290  -22.4260 C   0  0  2  0  0  0
    5.1210    2.2030  -20.7360 C   0  0  0  0  0  0
   -2.1910    3.5140  -26.1300 C   0  0  0  0  0  0
   -1.5050    2.8560  -21.7320 C   0  0  0  0  0  0
   -0.4780    2.5330  -21.2030 C   0  0  0  0  0  0
   -0.7990    5.6900  -23.4270 F   0  0  0  0  0  0
   -3.7180    3.1460  -20.2430 F   0  0  0  0  0  0
    1.8350    6.0420  -22.9550 N   0  0  0  0  0  0
    4.0650    5.1450  -22.9740 N   0  0  0  0  0  0
    0.4010    2.5110  -24.7020 N   0  0  0  0  0  0
    4.5500    2.9410  -23.5440 N   0  0  0  0  0  0
    6.5830    1.2540  -22.3440 N   0  0  1  0  0  0
   -3.6930    3.6540  -27.9120 O   0  0  0  0  0  0
   -5.9600    3.6533  -21.2843 H   0  0  0  0  0  0
   -6.4059    3.9165  -23.6880 H   0  0  0  0  0  0
    5.6316    4.1589  -21.2313 H   0  0  0  0  0  0
    6.8883    3.2174  -20.3126 H   0  0  0  0  0  0
    6.4277    2.8099  -24.5571 H   0  0  0  0  0  0
    6.1422    4.3591  -23.7005 H   0  0  0  0  0  0
   -5.5694    3.9436  -26.0402 H   0  0  0  0  0  0
    2.3557    1.7986  -24.6341 H   0  0  0  0  0  0
    3.2020    1.4324  -22.7188 H   0  0  0  0  0  0
    4.4337    0.7834  -23.8665 H   0  0  0  0  0  0
    4.9541    0.1710  -21.4956 H   0  0  0  0  0  0
    7.8156    2.9994  -22.4623 H   0  0  0  0  0  0
    4.1301    2.6803  -20.7178 H   0  0  0  0  0  0
    5.4138    1.7123  -19.7960 H   0  0  0  0  0  0
   -1.4098    3.4899  -26.8811 H   0  0  0  0  0  0
    0.4267    2.2491  -20.7382 H   0  0  0  0  0  0
    7.2269    0.7802  -21.6178 H   0  0  0  0  0  0
   -2.8407    3.5689  -28.3228 H   0  0  0  0  0  0
    4.3350    7.3710  -20.9830 N   0  3  0  0  0  0
    9.1560   10.8590  -23.3840 N   0  0  0  0  0  0
    3.6870    7.4560  -22.3400 C   0  0  0  0  0  0
    5.9920    9.2600  -21.2120 C   0  0  0  0  0  0
    4.8300    8.6790  -20.4200 C   0  0  0  0  0  0
    7.2870    8.8830  -20.9270 C   0  0  0  0  0  0
    5.7510   10.1680  -22.2200 C   0  0  0  0  0  0
    8.3350    9.4090  -21.6430 C   0  0  0  0  0  0
    6.7950   10.6970  -22.9410 C   0  0  0  0  0  0
    8.0950   10.3210  -22.6560 C   0  0  0  0  0  0
    5.0984    6.7137  -21.0190 H   0  0  0  0  0  0
    3.6906    6.9508  -20.3316 H   0  0  0  0  0  0
    8.9729   11.5372  -24.1373 H   0  0  0  0  0  0
   10.1232   10.5769  -23.1700 H   0  0  0  0  0  0
    4.4204    7.8222  -23.0734 H   0  0  0  0  0  0
    2.8612    8.1818  -22.3060 H   0  0  0  0  0  0
    5.1371    8.5340  -19.3737 H   0  0  0  0  0  0
    4.0030    9.4040  -20.3980 H   0  0  0  0  0  0
    7.4810    8.1689  -20.1349 H   0  0  0  0  0  0
    4.7349   10.4690  -22.4480 H   0  0  0  0  0  0
    9.3516    9.1088  -21.4159 H   0  0  0  0  0  0
    6.6000   11.4089  -23.7349 H   0  0  0  0  0  0
  1  2  2  0  0  0
  1  3  1  0  0  0
  1 34  1  0  0  0
  2  6  1  0  0  0
  2 35  1  0  0  0
  3  5  2  0  0  0
  3 27  1  0  0  0
  4  5  1  0  0  0
  4  6  2  0  0  0
  4 18  1  0  0  0
  5 24  1  0  0  0
  6 10  1  0  0  0
  7 10  2  0  0  0
  7 23  1  0  0  0
  7 33  1  0  0  0
  8 21  1  0  0  0
  8 22  1  0  0  0
  8 36  1  0  0  0
  8 37  1  0  0  0
  9 21  1  0  0  0
  9 31  1  0  0  0
  9 38  1  0  0  0
  9 39  1  0  0  0
 10 40  1  0  0  0
 11 12  1  0  0  0
 11 14  2  0  0  0
 11 15  1  0  0  0
 12 17  1  0  0  0
 12 28  2  0  0  0
 13 28  1  0  0  0
 13 29  2  0  0  0
 13 54  1  0  0  0
 14 29  1  0  0  0
 14 31  1  0  0  0
 15 30  2  0  0  0
 15 41  1  0  0  0
 16 17  2  0  0  0
 16 18  1  0  0  0
 16 30  1  0  0  0
 17 26  1  0  0  0
 18 23  2  0  0  0
 19 20  1  0  0  0
 19 31  1  0  0  0
 19 42  1  0  0  0
 19 43  1  0  0  0
 20 22  1  0  0  0
 20 32  1  0  0  0
 20 44  1  0  0  0
 21 32  1  0  0  0
 21 45  1  0  0  0
 22 46  1  0  0  0
 22 47  1  0  0  0
 23 48  1  0  0  0
 24 25  3  0  0  0
 25 49  1  0  0  0
 32 50  1  0  0  0
 33 51  1  0  0  0
 52 54  1  0  0  0
 52 56  1  0  0  0
 52 62  1  0  0  0
 52 63  1  0  0  0
 53 61  1  0  0  0
 53 64  1  0  0  0
 53 65  1  0  0  0
 54 66  1  0  0  0
 54 67  1  0  0  0
 55 56  1  0  0  0
 55 57  2  0  0  0
 55 58  1  0  0  0
 56 68  1  0  0  0
 56 69  1  0  0  0
 57 59  1  0  0  0
 57 70  1  0  0  0
 58 60  2  0  0  0
 58 71  1  0  0  0
 59 61  2  0  0  0
 59 72  1  0  0  0
 60 61  1  0  0  0
 60 73  1  0  0  0
M  CHG  1  52   1
M  END
> <s_m_entry_id>
518

> <s_m_entry_name>
000000360.1

> <s_m_Source_Path>
/Users/zaksoul/Documents/3r_UNI/2nd_SEMESTER/BSC/FRAG_RECON/RESULTS/2

> <s_m_Source_File>
000000360.mol2

> <i_m_Source_File_Index>
1

$$$$
No_0_378
                    3D
 Schrodinger Suite 2022-4.
 71 77  0  0  1  0            999 V2000
   -5.3190    3.5370  -21.8980 C   0  0  0  0  0  0
   -5.5860    3.7240  -23.2340 C   0  0  0  0  0  0
   -4.0810    3.2850  -21.5570 C   0  0  0  0  0  0
   -3.1900    3.4080  -23.7230 C   0  0  0  0  0  0
   -3.0290    3.1660  -22.3020 C   0  0  0  0  0  0
   -4.5380    3.6690  -24.2440 C   0  0  0  0  0  0
   -3.7840    3.6870  -26.4430 C   0  0  0  0  0  0
    5.9480    2.9650  -21.1800 C   0  0  0  0  0  0
    5.8080    3.1030  -23.7290 C   0  0  0  0  0  0
   -4.7900    3.7940  -25.5800 C   0  0  0  0  0  0
    2.0230    3.6490  -23.7460 C   0  0  0  0  0  0
    1.2020    4.7580  -23.4490 C   0  0  0  0  0  0
    3.0000    5.9560  -22.7720 C   0  0  0  0  0  0
    3.4240    3.8410  -23.4340 C   0  0  0  0  0  0
    1.4770    2.5310  -24.4050 C   0  0  0  0  0  0
   -0.6500    3.3440  -24.2950 C   0  0  0  0  0  0
   -0.1240    4.5660  -23.6990 C   0  0  0  0  0  0
   -2.1040    3.3490  -24.6490 C   0  0  0  0  0  0
    4.0300    1.3440  -23.1380 C   0  0  0  0  0  0
    4.9640    0.9910  -21.9910 C   0  0  2  0  0  0
    6.5570    2.5310  -22.5310 C   0  0  2  0  0  0
    4.9470    1.9940  -20.8250 C   0  0  0  0  0  0
   -2.4300    3.5060  -26.0770 C   0  0  0  0  0  0
   -1.6840    2.7540  -21.7040 C   0  0  0  0  0  0
   -0.6530    2.4080  -21.1970 C   0  0  0  0  0  0
   -0.9660    5.6110  -23.3560 F   0  0  0  0  0  0
   -3.8690    3.0450  -20.1750 F   0  0  0  0  0  0
    1.6790    5.9180  -22.9190 N   0  0  0  0  0  0
    3.8970    4.9930  -22.9900 N   0  0  0  0  0  0
    0.1710    2.4410  -24.7100 N   0  0  0  0  0  0
    4.3420    2.7930  -23.6090 N   0  0  0  0  0  0
    6.3710    1.0570  -22.4740 N   0  0  1  0  0  0
   -3.9570    3.6990  -27.8320 O   0  0  0  0  0  0
   -6.1209    3.6012  -21.1714 H   0  0  0  0  0  0
   -6.6008    3.9177  -23.5622 H   0  0  0  0  0  0
    5.4768    3.9528  -21.2910 H   0  0  0  0  0  0
    6.7343    2.9771  -20.4109 H   0  0  0  0  0  0
    6.2024    2.6571  -24.6540 H   0  0  0  0  0  0
    5.9513    4.1931  -23.7643 H   0  0  0  0  0  0
   -5.8007    3.9777  -25.9263 H   0  0  0  0  0  0
    2.1163    1.7020  -24.6860 H   0  0  0  0  0  0
    2.9874    1.2885  -22.7918 H   0  0  0  0  0  0
    4.1926    0.6443  -23.9710 H   0  0  0  0  0  0
    4.7411   -0.0206  -21.6209 H   0  0  0  0  0  0
    7.6254    2.7885  -22.5785 H   0  0  0  0  0  0
    3.9633    2.4844  -20.7826 H   0  0  0  0  0  0
    5.2479    1.4821  -19.8991 H   0  0  0  0  0  0
   -1.6606    3.4849  -26.8403 H   0  0  0  0  0  0
    0.2546    2.1028  -20.7517 H   0  0  0  0  0  0
    7.0188    0.5610  -21.7664 H   0  0  0  0  0  0
   -3.1126    3.6100  -28.2581 H   0  0  0  0  0  0
    3.8950    7.2680  -20.8370 N   0  0  1  0  0  0
    5.7560    9.4740  -22.0990 N   0  0  0  0  0  0
    9.3520   10.1340  -22.3720 N   0  0  0  0  0  0
    3.5600    7.2960  -22.3060 C   0  0  0  0  0  0
    4.3930    8.5680  -20.2630 C   0  0  0  0  0  0
    5.7340    8.9820  -20.8450 C   0  0  0  0  0  0
    6.8540    8.8350  -20.0580 C   0  0  0  0  0  0
    8.1330    9.7270  -21.8290 C   0  0  0  0  0  0
    8.0720    9.2110  -20.5540 C   0  0  0  0  0  0
    6.9670    9.8360  -22.5610 C   0  0  0  0  0  0
    3.0147    7.0019  -20.2708 H   0  0  0  0  0  0
    9.3870   10.5189  -23.3267 H   0  0  0  0  0  0
   10.2169   10.0500  -21.8190 H   0  0  0  0  0  0
    4.4644    7.5361  -22.8843 H   0  0  0  0  0  0
    2.8205    8.0874  -22.4979 H   0  0  0  0  0  0
    4.4820    8.4760  -19.1705 H   0  0  0  0  0  0
    3.6528    9.3592  -20.4530 H   0  0  0  0  0  0
    6.7640    8.4240  -19.0590 H   0  0  0  0  0  0
    8.9619    9.1000  -19.9451 H   0  0  0  0  0  0
    7.0670   10.2400  -23.5619 H   0  0  0  0  0  0
  1  2  2  0  0  0
  1  3  1  0  0  0
  1 34  1  0  0  0
  2  6  1  0  0  0
  2 35  1  0  0  0
  3  5  2  0  0  0
  3 27  1  0  0  0
  4  5  1  0  0  0
  4  6  2  0  0  0
  4 18  1  0  0  0
  5 24  1  0  0  0
  6 10  1  0  0  0
  7 10  2  0  0  0
  7 23  1  0  0  0
  7 33  1  0  0  0
  8 21  1  0  0  0
  8 22  1  0  0  0
  8 36  1  0  0  0
  8 37  1  0  0  0
  9 21  1  0  0  0
  9 31  1  0  0  0
  9 38  1  0  0  0
  9 39  1  0  0  0
 10 40  1  0  0  0
 11 12  1  0  0  0
 11 14  2  0  0  0
 11 15  1  0  0  0
 12 17  1  0  0  0
 12 28  2  0  0  0
 13 28  1  0  0  0
 13 29  2  0  0  0
 13 55  1  0  0  0
 14 29  1  0  0  0
 14 31  1  0  0  0
 15 30  2  0  0  0
 15 41  1  0  0  0
 16 17  2  0  0  0
 16 18  1  0  0  0
 16 30  1  0  0  0
 17 26  1  0  0  0
 18 23  2  0  0  0
 19 20  1  0  0  0
 19 31  1  0  0  0
 19 42  1  0  0  0
 19 43  1  0  0  0
 20 22  1  0  0  0
 20 32  1  0  0  0
 20 44  1  0  0  0
 21 32  1  0  0  0
 21 45  1  0  0  0
 22 46  1  0  0  0
 22 47  1  0  0  0
 23 48  1  0  0  0
 24 25  3  0  0  0
 25 49  1  0  0  0
 32 50  1  0  0  0
 33 51  1  0  0  0
 52 55  1  0  0  0
 52 56  1  0  0  0
 52 62  1  0  0  0
 53 57  2  0  0  0
 53 61  1  0  0  0
 54 59  1  0  0  0
 54 63  1  0  0  0
 54 64  1  0  0  0
 55 65  1  0  0  0
 55 66  1  0  0  0
 56 57  1  0  0  0
 56 67  1  0  0  0
 56 68  1  0  0  0
 57 58  1  0  0  0
 58 60  2  0  0  0
 58 69  1  0  0  0
 59 60  1  0  0  0
 59 61  2  0  0  0
 60 70  1  0  0  0
 61 71  1  0  0  0
M  END
> <s_m_entry_id>
519

> <s_m_entry_name>
000000361.1

> <s_m_Source_Path>
/Users/zaksoul/Documents/3r_UNI/2nd_SEMESTER/BSC/FRAG_RECON/RESULTS/2

> <s_m_Source_File>
000000361.mol2

> <i_m_Source_File_Index>
1

$$$$
No_0_379
                    3D
 Schrodinger Suite 2022-4.
 71 77  0  0  1  0            999 V2000
   -5.1810    3.6090  -21.8530 C   0  0  0  0  0  0
   -5.4520    3.8050  -23.1860 C   0  0  0  0  0  0
   -3.9420    3.3510  -21.5190 C   0  0  0  0  0  0
   -3.0590    3.4860  -23.6870 C   0  0  0  0  0  0
   -2.8930    3.2340  -22.2690 C   0  0  0  0  0  0
   -4.4090    3.7540  -24.2010 C   0  0  0  0  0  0
   -3.6630    3.7850  -26.4030 C   0  0  0  0  0  0
    6.0870    3.0010  -21.1820 C   0  0  0  0  0  0
    5.9380    3.1560  -23.7310 C   0  0  0  0  0  0
   -4.6650    3.8890  -25.5350 C   0  0  0  0  0  0
    2.1540    3.7130  -23.7290 C   0  0  0  0  0  0
    1.3370    4.8230  -23.4210 C   0  0  0  0  0  0
    3.1410    6.0110  -22.7430 C   0  0  0  0  0  0
    3.5570    3.8990  -23.4210 C   0  0  0  0  0  0
    1.6030    2.6010  -24.3930 C   0  0  0  0  0  0
   -0.5220    3.4190  -24.2700 C   0  0  0  0  0  0
    0.0100    4.6350  -23.6670 C   0  0  0  0  0  0
   -1.9770    3.4300  -24.6180 C   0  0  0  0  0  0
    4.1570    1.3990  -23.1440 C   0  0  0  0  0  0
    5.0950    1.0350  -22.0030 C   0  0  2  0  0  0
    6.6890    2.5740  -22.5390 C   0  0  2  0  0  0
    5.0840    2.0310  -20.8310 C   0  0  0  0  0  0
   -2.3080    3.5970  -26.0440 C   0  0  0  0  0  0
   -1.5470    2.8150  -21.6780 C   0  0  0  0  0  0
   -0.5150    2.4620  -21.1780 C   0  0  0  0  0  0
   -0.8280    5.6800  -23.3140 F   0  0  0  0  0  0
   -3.7260    3.1020  -20.1390 F   0  0  0  0  0  0
    1.8200    5.9780  -22.8860 N   0  0  0  0  0  0
    4.0350    5.0470  -22.9720 N   0  0  0  0  0  0
    0.2950    2.5160  -24.6930 N   0  0  0  0  0  0
    4.4710    2.8500  -23.6070 N   0  0  0  0  0  0
    6.5000    1.1010  -22.4910 N   0  0  1  0  0  0
   -3.8410    3.8060  -27.7920 O   0  0  0  0  0  0
   -5.9796    3.6712  -21.1226 H   0  0  0  0  0  0
   -6.4675    4.0037  -23.5091 H   0  0  0  0  0  0
    5.6179    3.9906  -21.2849 H   0  0  0  0  0  0
    6.8763    3.0060  -20.4159 H   0  0  0  0  0  0
    6.3275    2.7150  -24.6604 H   0  0  0  0  0  0
    6.0833    4.2460  -23.7593 H   0  0  0  0  0  0
   -5.6765    4.0776  -25.8762 H   0  0  0  0  0  0
    2.2385    1.7718  -24.6821 H   0  0  0  0  0  0
    3.1157    1.3435  -22.7939 H   0  0  0  0  0  0
    4.3144    0.7047  -23.9826 H   0  0  0  0  0  0
    4.8700    0.0218  -21.6387 H   0  0  0  0  0  0
    7.7578    2.8293  -22.5885 H   0  0  0  0  0  0
    4.1018    2.5236  -20.7805 H   0  0  0  0  0  0
    5.3877    1.5123  -19.9097 H   0  0  0  0  0  0
   -1.5411    3.5789  -26.8099 H   0  0  0  0  0  0
    0.3934    2.1519  -20.7378 H   0  0  0  0  0  0
    7.1492    0.5983  -21.7894 H   0  0  0  0  0  0
   -2.9984    3.7179  -28.2217 H   0  0  0  0  0  0
    4.3780    7.2120  -20.9290 N   0  0  1  0  0  0
    5.7440    9.6820  -22.3280 N   0  0  0  0  0  0
    9.1250   10.6810  -23.3350 N   0  0  0  0  0  0
    3.7060    7.3460  -22.2710 C   0  0  0  0  0  0
    4.9120    8.4920  -20.3430 C   0  0  0  0  0  0
    6.0490    9.0760  -21.1640 C   0  0  0  0  0  0
    7.3290    8.9560  -20.6730 C   0  0  0  0  0  0
    8.0970   10.1190  -22.5770 C   0  0  0  0  0  0
    8.3700    9.4830  -21.3870 C   0  0  0  0  0  0
    6.7870   10.1910  -23.0090 C   0  0  0  0  0  0
    3.6748    6.8169  -20.2108 H   0  0  0  0  0  0
    8.9091   11.1548  -24.2237 H   0  0  0  0  0  0
   10.0986   10.6240  -23.0038 H   0  0  0  0  0  0
    4.4325    7.7178  -23.0085 H   0  0  0  0  0  0
    2.8927    8.0833  -22.2010 H   0  0  0  0  0  0
    5.2600    8.3070  -19.3160 H   0  0  0  0  0  0
    4.0984    9.2287  -20.2700 H   0  0  0  0  0  0
    7.5040    8.4490  -19.7310 H   0  0  0  0  0  0
    9.3833    9.3960  -21.0119 H   0  0  0  0  0  0
    6.6230   10.6941  -23.9551 H   0  0  0  0  0  0
  1  2  2  0  0  0
  1  3  1  0  0  0
  1 34  1  0  0  0
  2  6  1  0  0  0
  2 35  1  0  0  0
  3  5  2  0  0  0
  3 27  1  0  0  0
  4  5  1  0  0  0
  4  6  2  0  0  0
  4 18  1  0  0  0
  5 24  1  0  0  0
  6 10  1  0  0  0
  7 10  2  0  0  0
  7 23  1  0  0  0
  7 33  1  0  0  0
  8 21  1  0  0  0
  8 22  1  0  0  0
  8 36  1  0  0  0
  8 37  1  0  0  0
  9 21  1  0  0  0
  9 31  1  0  0  0
  9 38  1  0  0  0
  9 39  1  0  0  0
 10 40  1  0  0  0
 11 12  1  0  0  0
 11 14  2  0  0  0
 11 15  1  0  0  0
 12 17  1  0  0  0
 12 28  2  0  0  0
 13 28  1  0  0  0
 13 29  2  0  0  0
 13 55  1  0  0  0
 14 29  1  0  0  0
 14 31  1  0  0  0
 15 30  2  0  0  0
 15 41  1  0  0  0
 16 17  2  0  0  0
 16 18  1  0  0  0
 16 30  1  0  0  0
 17 26  1  0  0  0
 18 23  2  0  0  0
 19 20  1  0  0  0
 19 31  1  0  0  0
 19 42  1  0  0  0
 19 43  1  0  0  0
 20 22  1  0  0  0
 20 32  1  0  0  0
 20 44  1  0  0  0
 21 32  1  0  0  0
 21 45  1  0  0  0
 22 46  1  0  0  0
 22 47  1  0  0  0
 23 48  1  0  0  0
 24 25  3  0  0  0
 25 49  1  0  0  0
 32 50  1  0  0  0
 33 51  1  0  0  0
 52 55  1  0  0  0
 52 56  1  0  0  0
 52 62  1  0  0  0
 53 57  2  0  0  0
 53 61  1  0  0  0
 54 59  1  0  0  0
 54 63  1  0  0  0
 54 64  1  0  0  0
 55 65  1  0  0  0
 55 66  1  0  0  0
 56 57  1  0  0  0
 56 67  1  0  0  0
 56 68  1  0  0  0
 57 58  1  0  0  0
 58 60  2  0  0  0
 58 69  1  0  0  0
 59 60  1  0  0  0
 59 61  2  0  0  0
 60 70  1  0  0  0
 61 71  1  0  0  0
M  END
> <s_m_entry_id>
520

> <s_m_entry_name>
000000362.1

> <s_m_Source_Path>
/Users/zaksoul/Documents/3r_UNI/2nd_SEMESTER/BSC/FRAG_RECON/RESULTS/2

> <s_m_Source_File>
000000362.mol2

> <i_m_Source_File_Index>
1

$$$$
No_0_380
                    3D
 Schrodinger Suite 2022-4.
 74 80  0  0  1  0            999 V2000
   -4.9670    3.5670  -22.1070 C   0  0  0  0  0  0
   -5.2410    3.7600  -23.4400 C   0  0  0  0  0  0
   -3.7270    3.3110  -21.7740 C   0  0  0  0  0  0
   -2.8490    3.4430  -23.9450 C   0  0  0  0  0  0
   -2.6800    3.1940  -22.5260 C   0  0  0  0  0  0
   -4.2000    3.7090  -24.4570 C   0  0  0  0  0  0
   -3.4580    3.7360  -26.6600 C   0  0  0  0  0  0
    6.3030    2.9750  -21.4580 C   0  0  0  0  0  0
    6.1480    3.1250  -24.0060 C   0  0  0  0  0  0
   -4.4590    3.8400  -25.7900 C   0  0  0  0  0  0
    2.3640    3.6780  -23.9980 C   0  0  0  0  0  0
    1.5470    4.7860  -23.6900 C   0  0  0  0  0  0
    3.3500    5.9780  -23.0180 C   0  0  0  0  0  0
    3.7670    3.8660  -23.6930 C   0  0  0  0  0  0
    1.8130    2.5630  -24.6590 C   0  0  0  0  0  0
   -0.3130    3.3780  -24.5320 C   0  0  0  0  0  0
    0.2190    4.5960  -23.9330 C   0  0  0  0  0  0
   -1.7680    3.3870  -24.8780 C   0  0  0  0  0  0
    4.3710    1.3660  -23.4120 C   0  0  0  0  0  0
    5.3120    1.0060  -22.2720 C   0  0  2  0  0  0
    6.9030    2.5470  -22.8140 C   0  0  2  0  0  0
    5.3020    2.0040  -21.1020 C   0  0  0  0  0  0
   -2.1020    3.5510  -26.3030 C   0  0  0  0  0  0
   -1.3320    2.7770  -21.9380 C   0  0  0  0  0  0
   -0.2990    2.4270  -21.4390 C   0  0  0  0  0  0
   -0.6200    5.6410  -23.5800 F   0  0  0  0  0  0
   -3.5080    3.0640  -20.3940 F   0  0  0  0  0  0
    2.0280    5.9430  -23.1580 N   0  0  0  0  0  0
    4.2440    5.0150  -23.2470 N   0  0  0  0  0  0
    0.5040    2.4760  -24.9560 N   0  0  0  0  0  0
    4.6830    2.8170  -23.8790 N   0  0  0  0  0  0
    6.7160    1.0730  -22.7640 N   0  0  1  0  0  0
   -3.6400    3.7550  -28.0480 O   0  0  0  0  0  0
   -5.7642    3.6282  -21.3750 H   0  0  0  0  0  0
   -6.2575    3.9567  -23.7611 H   0  0  0  0  0  0
    5.8327    3.9640  -21.5609 H   0  0  0  0  0  0
    7.0938    2.9821  -20.6934 H   0  0  0  0  0  0
    6.5365    2.6830  -24.9354 H   0  0  0  0  0  0
    6.2923    4.2151  -24.0363 H   0  0  0  0  0  0
   -5.4713    4.0276  -26.1291 H   0  0  0  0  0  0
    2.4493    1.7340  -24.9470 H   0  0  0  0  0  0
    3.3304    1.3105  -23.0598 H   0  0  0  0  0  0
    4.5275    0.6705  -24.2498 H   0  0  0  0  0  0
    5.0890   -0.0070  -21.9058 H   0  0  0  0  0  0
    7.9716    2.8023  -22.8675 H   0  0  0  0  0  0
    4.3194    2.4958  -21.0505 H   0  0  0  0  0  0
    5.6079    1.4872  -20.1804 H   0  0  0  0  0  0
   -1.3371    3.5329  -27.0709 H   0  0  0  0  0  0
    0.6111    2.1190  -21.0009 H   0  0  0  0  0  0
    7.3672    0.5726  -22.0626 H   0  0  0  0  0  0
   -2.7981    3.6679  -28.4794 H   0  0  0  0  0  0
    3.9200    7.4150  -21.0450 N   0  3  0  0  0  0
    4.4200    8.7200  -20.4830 C   0  0  0  0  0  0
    3.9140    7.3150  -22.5490 C   0  0  0  0  0  0
    5.8850    8.9780  -20.7980 C   0  0  0  0  0  0
    7.5480   10.0830  -22.1060 C   0  0  0  0  0  0
    8.2020    8.5940  -20.3660 C   0  0  0  0  0  0
    6.2250    9.8420  -21.8150 C   0  0  0  0  0  0
    6.8780    8.3540  -20.0740 C   0  0  0  0  0  0
   10.0000    9.7170  -21.6870 C   0  0  0  0  0  0
    8.5390    9.4600  -21.3810 C   0  0  0  0  0  0
    2.9915    7.2359  -20.6958 H   0  0  0  0  0  0
    4.4646    6.6575  -20.6633 H   0  0  0  0  0  0
    4.2741    8.7290  -19.3928 H   0  0  0  0  0  0
    3.8108    9.5463  -20.8781 H   0  0  0  0  0  0
    4.9400    7.4320  -22.9280 H   0  0  0  0  0  0
    3.3110    8.1340  -22.9680 H   0  0  0  0  0  0
    7.8109   10.7637  -22.9076 H   0  0  0  0  0  0
    8.9808    8.1002  -19.7962 H   0  0  0  0  0  0
    5.4489   10.3351  -22.3891 H   0  0  0  0  0  0
    6.6179    7.6718  -19.2728 H   0  0  0  0  0  0
   10.6282    9.1288  -21.0018 H   0  0  0  0  0  0
   10.2150    9.4230  -22.7250 H   0  0  0  0  0  0
   10.2188   10.7872  -21.5571 H   0  0  0  0  0  0
  1  2  2  0  0  0
  1  3  1  0  0  0
  1 34  1  0  0  0
  2  6  1  0  0  0
  2 35  1  0  0  0
  3  5  2  0  0  0
  3 27  1  0  0  0
  4  5  1  0  0  0
  4  6  2  0  0  0
  4 18  1  0  0  0
  5 24  1  0  0  0
  6 10  1  0  0  0
  7 10  2  0  0  0
  7 23  1  0  0  0
  7 33  1  0  0  0
  8 21  1  0  0  0
  8 22  1  0  0  0
  8 36  1  0  0  0
  8 37  1  0  0  0
  9 21  1  0  0  0
  9 31  1  0  0  0
  9 38  1  0  0  0
  9 39  1  0  0  0
 10 40  1  0  0  0
 11 12  1  0  0  0
 11 14  2  0  0  0
 11 15  1  0  0  0
 12 17  1  0  0  0
 12 28  2  0  0  0
 13 28  1  0  0  0
 13 29  2  0  0  0
 13 54  1  0  0  0
 14 29  1  0  0  0
 14 31  1  0  0  0
 15 30  2  0  0  0
 15 41  1  0  0  0
 16 17  2  0  0  0
 16 18  1  0  0  0
 16 30  1  0  0  0
 17 26  1  0  0  0
 18 23  2  0  0  0
 19 20  1  0  0  0
 19 31  1  0  0  0
 19 42  1  0  0  0
 19 43  1  0  0  0
 20 22  1  0  0  0
 20 32  1  0  0  0
 20 44  1  0  0  0
 21 32  1  0  0  0
 21 45  1  0  0  0
 22 46  1  0  0  0
 22 47  1  0  0  0
 23 48  1  0  0  0
 24 25  3  0  0  0
 25 49  1  0  0  0
 32 50  1  0  0  0
 33 51  1  0  0  0
 52 53  1  0  0  0
 52 54  1  0  0  0
 52 62  1  0  0  0
 52 63  1  0  0  0
 53 55  1  0  0  0
 53 64  1  0  0  0
 53 65  1  0  0  0
 54 66  1  0  0  0
 54 67  1  0  0  0
 55 58  2  0  0  0
 55 59  1  0  0  0
 56 58  1  0  0  0
 56 61  2  0  0  0
 56 68  1  0  0  0
 57 59  2  0  0  0
 57 61  1  0  0  0
 57 69  1  0  0  0
 58 70  1  0  0  0
 59 71  1  0  0  0
 60 61  1  0  0  0
 60 72  1  0  0  0
 60 73  1  0  0  0
 60 74  1  0  0  0
M  CHG  1  52   1
M  END
> <s_m_entry_id>
521

> <s_m_entry_name>
000000363.1

> <s_m_Source_Path>
/Users/zaksoul/Documents/3r_UNI/2nd_SEMESTER/BSC/FRAG_RECON/RESULTS/2

> <s_m_Source_File>
000000363.mol2

> <i_m_Source_File_Index>
1

$$$$
No_0_381
                    3D
 Schrodinger Suite 2022-4.
 72 78  0  0  1  0            999 V2000
   -5.0200    3.7390  -22.0790 C   0  0  0  0  0  0
   -5.2760    3.8790  -23.4220 C   0  0  0  0  0  0
   -3.7880    3.4760  -21.7220 C   0  0  0  0  0  0
   -2.8850    3.4970  -23.8860 C   0  0  0  0  0  0
   -2.7350    3.3070  -22.4560 C   0  0  0  0  0  0
   -4.2250    3.7640  -24.4240 C   0  0  0  0  0  0
   -3.4610    3.6820  -26.6180 C   0  0  0  0  0  0
    6.2300    2.9740  -21.2780 C   0  0  0  0  0  0
    6.1050    3.0160  -23.8320 C   0  0  0  0  0  0
   -4.4680    3.8420  -25.7650 C   0  0  0  0  0  0
    2.3320    3.6360  -23.8900 C   0  0  0  0  0  0
    1.5310    4.7710  -23.6400 C   0  0  0  0  0  0
    3.3500    5.9590  -23.0000 C   0  0  0  0  0  0
    3.7340    3.8120  -23.5780 C   0  0  0  0  0  0
    1.7670    2.5040  -24.5080 C   0  0  0  0  0  0
   -0.3450    3.3620  -24.4420 C   0  0  0  0  0  0
    0.2030    4.5950  -23.8900 C   0  0  0  0  0  0
   -1.7960    3.3810  -24.8030 C   0  0  0  0  0  0
    4.2900    1.3170  -23.1820 C   0  0  0  0  0  0
    5.2120    0.9900  -22.0180 C   0  0  2  0  0  0
    6.8370    2.4760  -22.6080 C   0  0  2  0  0  0
    5.2080    2.0380  -20.8920 C   0  0  0  0  0  0
   -2.1120    3.4890  -26.2380 C   0  0  0  0  0  0
   -1.4020    2.8930  -21.8350 C   0  0  0  0  0  0
   -0.3800    2.5460  -21.3100 C   0  0  0  0  0  0
   -0.6200    5.6690  -23.5920 F   0  0  0  0  0  0
   -3.5880    3.2860  -20.3300 F   0  0  0  0  0  0
    2.0290    5.9410  -23.1540 N   0  0  0  0  0  0
    4.2280    4.9710  -23.1770 N   0  0  0  0  0  0
    0.4600    2.4270  -24.8160 N   0  0  0  0  0  0
    4.6330    2.7400  -23.7080 N   0  0  0  0  0  0
    6.6210    1.0100  -22.4950 N   0  0  1  0  0  0
   -3.6270    3.6440  -28.0080 O   0  0  0  0  0  0
   -5.8232    3.8474  -21.3591 H   0  0  0  0  0  0
   -6.2852    4.0796  -23.7631 H   0  0  0  0  0  0
    5.7791    3.9657  -21.4303 H   0  0  0  0  0  0
    7.0131    3.0012  -20.5060 H   0  0  0  0  0  0
    6.4947    2.5263  -24.7366 H   0  0  0  0  0  0
    6.2695    4.1010  -23.9077 H   0  0  0  0  0  0
   -5.4732    4.0326  -26.1231 H   0  0  0  0  0  0
    2.3903    1.6519  -24.7539 H   0  0  0  0  0  0
    3.2448    1.2948  -22.8400 H   0  0  0  0  0  0
    4.4423    0.5828  -23.9868 H   0  0  0  0  0  0
    4.9659   -0.0016  -21.6105 H   0  0  0  0  0  0
    7.9103    2.7113  -22.6595 H   0  0  0  0  0  0
    4.2340    2.5487  -20.8728 H   0  0  0  0  0  0
    5.4946    1.5566  -19.9454 H   0  0  0  0  0  0
   -1.3399    3.4237  -26.9961 H   0  0  0  0  0  0
    0.5192    2.2409  -20.8479 H   0  0  0  0  0  0
    7.2561    0.5289  -21.7659 H   0  0  0  0  0  0
   -2.7821    3.5222  -28.4250 H   0  0  0  0  0  0
    3.9230    7.4650  -21.0860 N   0  0  1  0  0  0
    6.2630    9.3210  -22.1820 N   0  0  0  0  0  0
    3.9330    7.3050  -22.5840 C   0  0  0  0  0  0
    4.4960    8.7600  -20.5720 C   0  0  0  0  0  0
    8.5740    9.1180  -21.5650 C   0  0  0  0  0  0
    5.9630    8.9010  -20.9380 C   0  0  0  0  0  0
    6.9050    8.5790  -19.9900 C   0  0  0  0  0  0
    8.2310    8.6900  -20.3090 C   0  0  0  0  0  0
    7.5770    9.4190  -22.4610 C   0  0  0  0  0  0
   10.0240    9.2640  -21.9780 C   0  0  0  0  0  0
    2.9063    7.4160  -20.7251 H   0  0  0  0  0  0
    4.9658    7.3860  -22.9539 H   0  0  0  0  0  0
    3.3478    8.1153  -23.0432 H   0  0  0  0  0  0
    4.3859    8.8010  -19.4783 H   0  0  0  0  0  0
    3.9311    9.6038  -20.9949 H   0  0  0  0  0  0
    6.5928    8.2438  -19.0075 H   0  0  0  0  0  0
    9.0048    8.4461  -19.5902 H   0  0  0  0  0  0
    7.9003    9.7513  -23.4409 H   0  0  0  0  0  0
   10.0750    9.6178  -23.0183 H   0  0  0  0  0  0
   10.5221    9.9912  -21.3199 H   0  0  0  0  0  0
   10.5294    8.2903  -21.8969 H   0  0  0  0  0  0
  1  2  2  0  0  0
  1  3  1  0  0  0
  1 34  1  0  0  0
  2  6  1  0  0  0
  2 35  1  0  0  0
  3  5  2  0  0  0
  3 27  1  0  0  0
  4  5  1  0  0  0
  4  6  2  0  0  0
  4 18  1  0  0  0
  5 24  1  0  0  0
  6 10  1  0  0  0
  7 10  2  0  0  0
  7 23  1  0  0  0
  7 33  1  0  0  0
  8 21  1  0  0  0
  8 22  1  0  0  0
  8 36  1  0  0  0
  8 37  1  0  0  0
  9 21  1  0  0  0
  9 31  1  0  0  0
  9 38  1  0  0  0
  9 39  1  0  0  0
 10 40  1  0  0  0
 11 12  1  0  0  0
 11 14  2  0  0  0
 11 15  1  0  0  0
 12 17  1  0  0  0
 12 28  2  0  0  0
 13 28  1  0  0  0
 13 29  2  0  0  0
 13 54  1  0  0  0
 14 29  1  0  0  0
 14 31  1  0  0  0
 15 30  2  0  0  0
 15 41  1  0  0  0
 16 17  2  0  0  0
 16 18  1  0  0  0
 16 30  1  0  0  0
 17 26  1  0  0  0
 18 23  2  0  0  0
 19 20  1  0  0  0
 19 31  1  0  0  0
 19 42  1  0  0  0
 19 43  1  0  0  0
 20 22  1  0  0  0
 20 32  1  0  0  0
 20 44  1  0  0  0
 21 32  1  0  0  0
 21 45  1  0  0  0
 22 46  1  0  0  0
 22 47  1  0  0  0
 23 48  1  0  0  0
 24 25  3  0  0  0
 25 49  1  0  0  0
 32 50  1  0  0  0
 33 51  1  0  0  0
 52 54  1  0  0  0
 52 55  1  0  0  0
 52 62  1  0  0  0
 53 57  2  0  0  0
 53 60  1  0  0  0
 54 63  1  0  0  0
 54 64  1  0  0  0
 55 57  1  0  0  0
 55 65  1  0  0  0
 55 66  1  0  0  0
 56 59  1  0  0  0
 56 60  2  0  0  0
 56 61  1  0  0  0
 57 58  1  0  0  0
 58 59  2  0  0  0
 58 67  1  0  0  0
 59 68  1  0  0  0
 60 69  1  0  0  0
 61 70  1  0  0  0
 61 71  1  0  0  0
 61 72  1  0  0  0
M  END
> <s_m_entry_id>
522

> <s_m_entry_name>
000000364.1

> <s_m_Source_Path>
/Users/zaksoul/Documents/3r_UNI/2nd_SEMESTER/BSC/FRAG_RECON/RESULTS/2

> <s_m_Source_File>
000000364.mol2

> <i_m_Source_File_Index>
1

$$$$
No_0_382
                    3D
 Schrodinger Suite 2022-4.
 74 80  0  0  1  0            999 V2000
   -5.1810    3.6090  -21.8530 C   0  0  0  0  0  0
   -5.4520    3.8050  -23.1860 C   0  0  0  0  0  0
   -3.9420    3.3510  -21.5190 C   0  0  0  0  0  0
   -3.0590    3.4860  -23.6870 C   0  0  0  0  0  0
   -2.8930    3.2340  -22.2690 C   0  0  0  0  0  0
   -4.4090    3.7540  -24.2010 C   0  0  0  0  0  0
   -3.6630    3.7850  -26.4030 C   0  0  0  0  0  0
    6.0870    3.0010  -21.1820 C   0  0  0  0  0  0
    5.9380    3.1560  -23.7310 C   0  0  0  0  0  0
   -4.6650    3.8890  -25.5350 C   0  0  0  0  0  0
    2.1540    3.7130  -23.7290 C   0  0  0  0  0  0
    1.3370    4.8230  -23.4210 C   0  0  0  0  0  0
    3.1410    6.0110  -22.7430 C   0  0  0  0  0  0
    3.5570    3.8990  -23.4210 C   0  0  0  0  0  0
    1.6030    2.6010  -24.3930 C   0  0  0  0  0  0
   -0.5220    3.4190  -24.2700 C   0  0  0  0  0  0
    0.0100    4.6350  -23.6670 C   0  0  0  0  0  0
   -1.9770    3.4300  -24.6180 C   0  0  0  0  0  0
    4.1570    1.3990  -23.1440 C   0  0  0  0  0  0
    5.0950    1.0350  -22.0030 C   0  0  2  0  0  0
    6.6890    2.5740  -22.5390 C   0  0  2  0  0  0
    5.0840    2.0310  -20.8310 C   0  0  0  0  0  0
   -2.3080    3.5970  -26.0440 C   0  0  0  0  0  0
   -1.5470    2.8150  -21.6780 C   0  0  0  0  0  0
   -0.5150    2.4620  -21.1780 C   0  0  0  0  0  0
   -0.8280    5.6800  -23.3140 F   0  0  0  0  0  0
   -3.7260    3.1020  -20.1390 F   0  0  0  0  0  0
    1.8200    5.9780  -22.8860 N   0  0  0  0  0  0
    4.0350    5.0470  -22.9720 N   0  0  0  0  0  0
    0.2950    2.5160  -24.6930 N   0  0  0  0  0  0
    4.4710    2.8500  -23.6070 N   0  0  0  0  0  0
    6.5000    1.1010  -22.4910 N   0  0  1  0  0  0
   -3.8410    3.8060  -27.7920 O   0  0  0  0  0  0
   -5.9796    3.6712  -21.1226 H   0  0  0  0  0  0
   -6.4675    4.0037  -23.5091 H   0  0  0  0  0  0
    5.6179    3.9906  -21.2849 H   0  0  0  0  0  0
    6.8763    3.0060  -20.4159 H   0  0  0  0  0  0
    6.3275    2.7150  -24.6604 H   0  0  0  0  0  0
    6.0833    4.2460  -23.7593 H   0  0  0  0  0  0
   -5.6765    4.0776  -25.8762 H   0  0  0  0  0  0
    2.2385    1.7718  -24.6821 H   0  0  0  0  0  0
    3.1157    1.3435  -22.7939 H   0  0  0  0  0  0
    4.3144    0.7047  -23.9826 H   0  0  0  0  0  0
    4.8700    0.0218  -21.6387 H   0  0  0  0  0  0
    7.7578    2.8293  -22.5885 H   0  0  0  0  0  0
    4.1018    2.5236  -20.7805 H   0  0  0  0  0  0
    5.3877    1.5123  -19.9097 H   0  0  0  0  0  0
   -1.5411    3.5789  -26.8099 H   0  0  0  0  0  0
    0.3934    2.1519  -20.7378 H   0  0  0  0  0  0
    7.1492    0.5983  -21.7894 H   0  0  0  0  0  0
   -2.9984    3.7179  -28.2217 H   0  0  0  0  0  0
    4.0440    7.2970  -20.8040 N   0  0  1  0  0  0
    7.1160    8.1470  -20.1620 N   0  0  0  0  0  0
    4.5970    8.5790  -20.2360 C   0  0  0  0  0  0
    6.0370    8.8280  -20.6570 C   0  0  0  0  0  0
    3.7060    7.3460  -22.2710 C   0  0  0  0  0  0
    8.1970    8.6910  -20.7970 C   0  0  0  0  0  0
    6.4170    9.7400  -21.5540 C   0  0  0  0  0  0
    7.8260    9.6510  -21.6450 C   0  0  0  0  0  0
    7.1230    7.0330  -19.2020 C   0  0  0  0  0  0
    9.6250    8.2440  -20.5490 C   0  0  0  0  0  0
    4.7684    6.5056  -20.6799 H   0  0  0  0  0  0
    4.5360    8.5480  -19.1381 H   0  0  0  0  0  0
    3.9703    9.4226  -20.5609 H   0  0  0  0  0  0
    4.6117    7.5849  -22.8478 H   0  0  0  0  0  0
    2.9671    8.1409  -22.4500 H   0  0  0  0  0  0
    5.6748   10.3612  -22.0421 H   0  0  0  0  0  0
    8.5732   10.1781  -22.2271 H   0  0  0  0  0  0
    8.1595    6.7151  -19.0161 H   0  0  0  0  0  0
    6.6658    7.3602  -18.2565 H   0  0  0  0  0  0
    6.5497    6.1896  -19.6142 H   0  0  0  0  0  0
   10.3079    8.8329  -21.1789 H   0  0  0  0  0  0
    9.8790    8.3980  -19.4899 H   0  0  0  0  0  0
    9.7250    7.1774  -20.7989 H   0  0  0  0  0  0
  1  2  2  0  0  0
  1  3  1  0  0  0
  1 34  1  0  0  0
  2  6  1  0  0  0
  2 35  1  0  0  0
  3  5  2  0  0  0
  3 27  1  0  0  0
  4  5  1  0  0  0
  4  6  2  0  0  0
  4 18  1  0  0  0
  5 24  1  0  0  0
  6 10  1  0  0  0
  7 10  2  0  0  0
  7 23  1  0  0  0
  7 33  1  0  0  0
  8 21  1  0  0  0
  8 22  1  0  0  0
  8 36  1  0  0  0
  8 37  1  0  0  0
  9 21  1  0  0  0
  9 31  1  0  0  0
  9 38  1  0  0  0
  9 39  1  0  0  0
 10 40  1  0  0  0
 11 12  1  0  0  0
 11 14  2  0  0  0
 11 15  1  0  0  0
 12 17  1  0  0  0
 12 28  2  0  0  0
 13 28  1  0  0  0
 13 29  2  0  0  0
 13 56  1  0  0  0
 14 29  1  0  0  0
 14 31  1  0  0  0
 15 30  2  0  0  0
 15 41  1  0  0  0
 16 17  2  0  0  0
 16 18  1  0  0  0
 16 30  1  0  0  0
 17 26  1  0  0  0
 18 23  2  0  0  0
 19 20  1  0  0  0
 19 31  1  0  0  0
 19 42  1  0  0  0
 19 43  1  0  0  0
 20 22  1  0  0  0
 20 32  1  0  0  0
 20 44  1  0  0  0
 21 32  1  0  0  0
 21 45  1  0  0  0
 22 46  1  0  0  0
 22 47  1  0  0  0
 23 48  1  0  0  0
 24 25  3  0  0  0
 25 49  1  0  0  0
 32 50  1  0  0  0
 33 51  1  0  0  0
 52 54  1  0  0  0
 52 56  1  0  0  0
 52 62  1  0  0  0
 53 55  1  0  0  0
 53 57  1  0  0  0
 53 60  1  0  0  0
 54 55  1  0  0  0
 54 63  1  0  0  0
 54 64  1  0  0  0
 55 58  2  0  0  0
 56 65  1  0  0  0
 56 66  1  0  0  0
 57 59  2  0  0  0
 57 61  1  0  0  0
 58 59  1  0  0  0
 58 67  1  0  0  0
 59 68  1  0  0  0
 60 69  1  0  0  0
 60 70  1  0  0  0
 60 71  1  0  0  0
 61 72  1  0  0  0
 61 73  1  0  0  0
 61 74  1  0  0  0
M  END
> <s_m_entry_id>
523

> <s_m_entry_name>
000000365.1

> <s_m_Source_Path>
/Users/zaksoul/Documents/3r_UNI/2nd_SEMESTER/BSC/FRAG_RECON/RESULTS/2

> <s_m_Source_File>
000000365.mol2

> <i_m_Source_File_Index>
1

$$$$
No_0_383
                    3D
 Schrodinger Suite 2022-4.
 74 80  0  0  1  0            999 V2000
   -5.1480    3.7570  -21.7050 C   0  0  0  0  0  0
   -5.4400    3.9450  -23.0360 C   0  0  0  0  0  0
   -3.9070    3.4830  -21.3910 C   0  0  0  0  0  0
   -3.0620    3.5810  -23.5760 C   0  0  0  0  0  0
   -2.8740    3.3410  -22.1580 C   0  0  0  0  0  0
   -4.4160    3.8670  -24.0680 C   0  0  0  0  0  0
   -3.7090    3.8640  -26.2830 C   0  0  0  0  0  0
    6.1190    2.9710  -21.2310 C   0  0  0  0  0  0
    5.9260    3.1030  -23.7770 C   0  0  0  0  0  0
   -4.6940    3.9930  -25.3990 C   0  0  0  0  0  0
    2.1530    3.7230  -23.7130 C   0  0  0  0  0  0
    1.3600    4.8480  -23.4020 C   0  0  0  0  0  0
    3.1950    6.0130  -22.7680 C   0  0  0  0  0  0
    3.5640    3.8880  -23.4320 C   0  0  0  0  0  0
    1.5710    2.6130  -24.3560 C   0  0  0  0  0  0
   -0.5370    3.4670  -24.2030 C   0  0  0  0  0  0
    0.0260    4.6800  -23.6220 C   0  0  0  0  0  0
   -1.9970    3.4990  -24.5250 C   0  0  0  0  0  0
    4.1280    1.3810  -23.1410 C   0  0  0  0  0  0
    5.0800    1.0130  -22.0130 C   0  0  2  0  0  0
    6.6900    2.5210  -22.5930 C   0  0  2  0  0  0
    5.1070    2.0200  -20.8510 C   0  0  0  0  0  0
   -2.3510    3.6580  -25.9460 C   0  0  0  0  0  0
   -1.5250    2.9050  -21.5870 C   0  0  0  0  0  0
   -0.4900    2.5400  -21.1030 C   0  0  0  0  0  0
   -0.7880    5.7420  -23.2650 F   0  0  0  0  0  0
   -3.6700    3.2430  -20.0120 F   0  0  0  0  0  0
    1.8710    6.0000  -22.8870 N   0  0  0  0  0  0
    4.0680    5.0320  -23.0030 N   0  0  0  0  0  0
    0.2570    2.5470  -24.6320 N   0  0  0  0  0  0
    4.4580    2.8220  -23.6240 N   0  0  0  0  0  0
    6.4770    1.0510  -22.5270 N   0  0  1  0  0  0
   -3.9130    3.8750  -27.6690 O   0  0  0  0  0  0
   -5.9321    3.8393  -20.9611 H   0  0  0  0  0  0
   -6.4580    4.1568  -23.3422 H   0  0  0  0  0  0
    5.6647    3.9674  -21.3350 H   0  0  0  0  0  0
    6.9221    2.9700  -20.4793 H   0  0  0  0  0  0
    6.2914    2.6467  -24.7088 H   0  0  0  0  0  0
    6.0895    4.1900  -23.8194 H   0  0  0  0  0  0
   -5.7084    4.1949  -25.7234 H   0  0  0  0  0  0
    2.1882    1.7710  -24.6480 H   0  0  0  0  0  0
    3.0925    1.3457  -22.7716 H   0  0  0  0  0  0
    4.2592    0.6755  -23.9747 H   0  0  0  0  0  0
    4.8459    0.0070  -21.6346 H   0  0  0  0  0  0
    7.7620    2.7572  -22.6647 H   0  0  0  0  0  0
    4.1342    2.5296  -20.7884 H   0  0  0  0  0  0
    5.4189    1.5052  -19.9303 H   0  0  0  0  0  0
   -1.5992    3.6199  -26.7260 H   0  0  0  0  0  0
    0.4209    2.2190  -20.6760 H   0  0  0  0  0  0
    7.1306    0.5439  -21.8327 H   0  0  0  0  0  0
   -3.0796    3.7691  -28.1124 H   0  0  0  0  0  0
    4.4180    7.2180  -20.9560 N   0  0  1  0  0  0
    7.5200    8.1870  -20.8740 N   0  0  0  0  0  0
    5.0220    8.4880  -20.4160 C   0  0  0  0  0  0
    6.3380    8.8400  -21.0940 C   0  0  0  0  0  0
    3.7900    7.3430  -22.3200 C   0  0  0  0  0  0
    8.4290    8.8280  -21.6680 C   0  0  0  0  0  0
    6.4930    9.8270  -21.9780 C   0  0  0  0  0  0
    7.8570    9.8200  -22.3520 C   0  0  0  0  0  0
    7.7650    7.0160  -20.0190 C   0  0  0  0  0  0
    9.8940    8.4440  -21.7420 C   0  0  0  0  0  0
    5.1831    6.4599  -21.0360 H   0  0  0  0  0  0
    5.1850    8.3830  -19.3332 H   0  0  0  0  0  0
    4.3099    9.3161  -20.5470 H   0  0  0  0  0  0
    4.5511    7.6670  -23.0451 H   0  0  0  0  0  0
    2.9991    8.1069  -22.2900 H   0  0  0  0  0  0
    5.6439   10.4381  -22.2620 H   0  0  0  0  0  0
    8.4500   10.4230  -23.0300 H   0  0  0  0  0  0
    8.8295    6.7429  -20.0660 H   0  0  0  0  0  0
    7.4941    7.2569  -18.9804 H   0  0  0  0  0  0
    7.1541    6.1712  -20.3699 H   0  0  0  0  0  0
   10.4130    9.1080  -22.4490 H   0  0  0  0  0  0
   10.3497    8.5419  -20.7456 H   0  0  0  0  0  0
    9.9840    7.4024  -22.0839 H   0  0  0  0  0  0
  1  2  2  0  0  0
  1  3  1  0  0  0
  1 34  1  0  0  0
  2  6  1  0  0  0
  2 35  1  0  0  0
  3  5  2  0  0  0
  3 27  1  0  0  0
  4  5  1  0  0  0
  4  6  2  0  0  0
  4 18  1  0  0  0
  5 24  1  0  0  0
  6 10  1  0  0  0
  7 10  2  0  0  0
  7 23  1  0  0  0
  7 33  1  0  0  0
  8 21  1  0  0  0
  8 22  1  0  0  0
  8 36  1  0  0  0
  8 37  1  0  0  0
  9 21  1  0  0  0
  9 31  1  0  0  0
  9 38  1  0  0  0
  9 39  1  0  0  0
 10 40  1  0  0  0
 11 12  1  0  0  0
 11 14  2  0  0  0
 11 15  1  0  0  0
 12 17  1  0  0  0
 12 28  2  0  0  0
 13 28  1  0  0  0
 13 29  2  0  0  0
 13 56  1  0  0  0
 14 29  1  0  0  0
 14 31  1  0  0  0
 15 30  2  0  0  0
 15 41  1  0  0  0
 16 17  2  0  0  0
 16 18  1  0  0  0
 16 30  1  0  0  0
 17 26  1  0  0  0
 18 23  2  0  0  0
 19 20  1  0  0  0
 19 31  1  0  0  0
 19 42  1  0  0  0
 19 43  1  0  0  0
 20 22  1  0  0  0
 20 32  1  0  0  0
 20 44  1  0  0  0
 21 32  1  0  0  0
 21 45  1  0  0  0
 22 46  1  0  0  0
 22 47  1  0  0  0
 23 48  1  0  0  0
 24 25  3  0  0  0
 25 49  1  0  0  0
 32 50  1  0  0  0
 33 51  1  0  0  0
 52 54  1  0  0  0
 52 56  1  0  0  0
 52 62  1  0  0  0
 53 55  1  0  0  0
 53 57  1  0  0  0
 53 60  1  0  0  0
 54 55  1  0  0  0
 54 63  1  0  0  0
 54 64  1  0  0  0
 55 58  2  0  0  0
 56 65  1  0  0  0
 56 66  1  0  0  0
 57 59  2  0  0  0
 57 61  1  0  0  0
 58 59  1  0  0  0
 58 67  1  0  0  0
 59 68  1  0  0  0
 60 69  1  0  0  0
 60 70  1  0  0  0
 60 71  1  0  0  0
 61 72  1  0  0  0
 61 73  1  0  0  0
 61 74  1  0  0  0
M  END
> <s_m_entry_id>
524

> <s_m_entry_name>
000000366.1

> <s_m_Source_Path>
/Users/zaksoul/Documents/3r_UNI/2nd_SEMESTER/BSC/FRAG_RECON/RESULTS/2

> <s_m_Source_File>
000000366.mol2

> <i_m_Source_File_Index>
1

$$$$
No_0_384
                    3D
 Schrodinger Suite 2022-4.
 74 80  0  0  1  0            999 V2000
   -5.1810    3.6090  -21.8530 C   0  0  0  0  0  0
   -5.4520    3.8050  -23.1860 C   0  0  0  0  0  0
   -3.9420    3.3510  -21.5190 C   0  0  0  0  0  0
   -3.0590    3.4860  -23.6870 C   0  0  0  0  0  0
   -2.8930    3.2340  -22.2690 C   0  0  0  0  0  0
   -4.4090    3.7540  -24.2010 C   0  0  0  0  0  0
   -3.6630    3.7850  -26.4030 C   0  0  0  0  0  0
    6.0870    3.0010  -21.1820 C   0  0  0  0  0  0
    5.9380    3.1560  -23.7310 C   0  0  0  0  0  0
   -4.6650    3.8890  -25.5350 C   0  0  0  0  0  0
    2.1540    3.7130  -23.7290 C   0  0  0  0  0  0
    1.3370    4.8230  -23.4210 C   0  0  0  0  0  0
    3.1410    6.0110  -22.7430 C   0  0  0  0  0  0
    3.5570    3.8990  -23.4210 C   0  0  0  0  0  0
    1.6030    2.6010  -24.3930 C   0  0  0  0  0  0
   -0.5220    3.4190  -24.2700 C   0  0  0  0  0  0
    0.0100    4.6350  -23.6670 C   0  0  0  0  0  0
   -1.9770    3.4300  -24.6180 C   0  0  0  0  0  0
    4.1570    1.3990  -23.1440 C   0  0  0  0  0  0
    5.0950    1.0350  -22.0030 C   0  0  2  0  0  0
    6.6890    2.5740  -22.5390 C   0  0  2  0  0  0
    5.0840    2.0310  -20.8310 C   0  0  0  0  0  0
   -2.3080    3.5970  -26.0440 C   0  0  0  0  0  0
   -1.5470    2.8150  -21.6780 C   0  0  0  0  0  0
   -0.5150    2.4620  -21.1780 C   0  0  0  0  0  0
   -0.8280    5.6800  -23.3140 F   0  0  0  0  0  0
   -3.7260    3.1020  -20.1390 F   0  0  0  0  0  0
    1.8200    5.9780  -22.8860 N   0  0  0  0  0  0
    4.0350    5.0470  -22.9720 N   0  0  0  0  0  0
    0.2950    2.5160  -24.6930 N   0  0  0  0  0  0
    4.4710    2.8500  -23.6070 N   0  0  0  0  0  0
    6.5000    1.1010  -22.4910 N   0  0  1  0  0  0
   -3.8410    3.8060  -27.7920 O   0  0  0  0  0  0
   -5.9796    3.6712  -21.1226 H   0  0  0  0  0  0
   -6.4675    4.0037  -23.5091 H   0  0  0  0  0  0
    5.6179    3.9906  -21.2849 H   0  0  0  0  0  0
    6.8763    3.0060  -20.4159 H   0  0  0  0  0  0
    6.3275    2.7150  -24.6604 H   0  0  0  0  0  0
    6.0833    4.2460  -23.7593 H   0  0  0  0  0  0
   -5.6765    4.0776  -25.8762 H   0  0  0  0  0  0
    2.2385    1.7718  -24.6821 H   0  0  0  0  0  0
    3.1157    1.3435  -22.7939 H   0  0  0  0  0  0
    4.3144    0.7047  -23.9826 H   0  0  0  0  0  0
    4.8700    0.0218  -21.6387 H   0  0  0  0  0  0
    7.7578    2.8293  -22.5885 H   0  0  0  0  0  0
    4.1018    2.5236  -20.7805 H   0  0  0  0  0  0
    5.3877    1.5123  -19.9097 H   0  0  0  0  0  0
   -1.5411    3.5789  -26.8099 H   0  0  0  0  0  0
    0.3934    2.1519  -20.7378 H   0  0  0  0  0  0
    7.1492    0.5983  -21.7894 H   0  0  0  0  0  0
   -2.9984    3.7179  -28.2217 H   0  0  0  0  0  0
    4.4390    7.1870  -20.9650 N   0  0  1  0  0  0
    7.4910    8.3040  -21.0570 N   0  0  0  0  0  0
    5.0230    8.4580  -20.4050 C   0  0  0  0  0  0
    6.2670    8.9080  -21.1570 C   0  0  0  0  0  0
    3.7060    7.3460  -22.2710 C   0  0  0  0  0  0
    8.3070    9.0270  -21.8810 C   0  0  0  0  0  0
    6.3100    9.9420  -21.9980 C   0  0  0  0  0  0
    7.6410   10.0210  -22.4700 C   0  0  0  0  0  0
    7.8520    7.1070  -20.2830 C   0  0  0  0  0  0
    9.7790    8.7200  -22.0800 C   0  0  0  0  0  0
    5.2302    6.4728  -21.1390 H   0  0  0  0  0  0
    5.2711    8.3099  -19.3436 H   0  0  0  0  0  0
    4.2659    9.2551  -20.4410 H   0  0  0  0  0  0
    4.3948    7.7419  -23.0318 H   0  0  0  0  0  0
    2.8849    8.0671  -22.1450 H   0  0  0  0  0  0
    5.4150   10.5230  -22.1890 H   0  0  0  0  0  0
    8.1530   10.6850  -23.1570 H   0  0  0  0  0  0
    8.9215    6.8899  -20.4211 H   0  0  0  0  0  0
    7.6489    7.2841  -19.2165 H   0  0  0  0  0  0
    7.2559    6.2509  -20.6320 H   0  0  0  0  0  0
   10.2122    9.4424  -22.7874 H   0  0  0  0  0  0
   10.3028    8.7930  -21.1154 H   0  0  0  0  0  0
    9.8911    7.7015  -22.4802 H   0  0  0  0  0  0
  1  2  2  0  0  0
  1  3  1  0  0  0
  1 34  1  0  0  0
  2  6  1  0  0  0
  2 35  1  0  0  0
  3  5  2  0  0  0
  3 27  1  0  0  0
  4  5  1  0  0  0
  4  6  2  0  0  0
  4 18  1  0  0  0
  5 24  1  0  0  0
  6 10  1  0  0  0
  7 10  2  0  0  0
  7 23  1  0  0  0
  7 33  1  0  0  0
  8 21  1  0  0  0
  8 22  1  0  0  0
  8 36  1  0  0  0
  8 37  1  0  0  0
  9 21  1  0  0  0
  9 31  1  0  0  0
  9 38  1  0  0  0
  9 39  1  0  0  0
 10 40  1  0  0  0
 11 12  1  0  0  0
 11 14  2  0  0  0
 11 15  1  0  0  0
 12 17  1  0  0  0
 12 28  2  0  0  0
 13 28  1  0  0  0
 13 29  2  0  0  0
 13 56  1  0  0  0
 14 29  1  0  0  0
 14 31  1  0  0  0
 15 30  2  0  0  0
 15 41  1  0  0  0
 16 17  2  0  0  0
 16 18  1  0  0  0
 16 30  1  0  0  0
 17 26  1  0  0  0
 18 23  2  0  0  0
 19 20  1  0  0  0
 19 31  1  0  0  0
 19 42  1  0  0  0
 19 43  1  0  0  0
 20 22  1  0  0  0
 20 32  1  0  0  0
 20 44  1  0  0  0
 21 32  1  0  0  0
 21 45  1  0  0  0
 22 46  1  0  0  0
 22 47  1  0  0  0
 23 48  1  0  0  0
 24 25  3  0  0  0
 25 49  1  0  0  0
 32 50  1  0  0  0
 33 51  1  0  0  0
 52 54  1  0  0  0
 52 56  1  0  0  0
 52 62  1  0  0  0
 53 55  1  0  0  0
 53 57  1  0  0  0
 53 60  1  0  0  0
 54 55  1  0  0  0
 54 63  1  0  0  0
 54 64  1  0  0  0
 55 58  2  0  0  0
 56 65  1  0  0  0
 56 66  1  0  0  0
 57 59  2  0  0  0
 57 61  1  0  0  0
 58 59  1  0  0  0
 58 67  1  0  0  0
 59 68  1  0  0  0
 60 69  1  0  0  0
 60 70  1  0  0  0
 60 71  1  0  0  0
 61 72  1  0  0  0
 61 73  1  0  0  0
 61 74  1  0  0  0
M  END
> <s_m_entry_id>
525

> <s_m_entry_name>
000000367.1

> <s_m_Source_Path>
/Users/zaksoul/Documents/3r_UNI/2nd_SEMESTER/BSC/FRAG_RECON/RESULTS/2

> <s_m_Source_File>
000000367.mol2

> <i_m_Source_File_Index>
1

$$$$
No_0_385
                    3D
 Schrodinger Suite 2022-4.
 68 74  0  0  1  0            999 V2000
   -5.1810    3.6090  -21.8530 C   0  0  0  0  0  0
   -5.4520    3.8050  -23.1860 C   0  0  0  0  0  0
   -3.9420    3.3510  -21.5190 C   0  0  0  0  0  0
   -3.0590    3.4860  -23.6870 C   0  0  0  0  0  0
   -2.8930    3.2340  -22.2690 C   0  0  0  0  0  0
   -4.4090    3.7540  -24.2010 C   0  0  0  0  0  0
   -3.6630    3.7850  -26.4030 C   0  0  0  0  0  0
    6.0870    3.0010  -21.1820 C   0  0  0  0  0  0
    5.9380    3.1560  -23.7310 C   0  0  0  0  0  0
   -4.6650    3.8890  -25.5350 C   0  0  0  0  0  0
    2.1540    3.7130  -23.7290 C   0  0  0  0  0  0
    1.3370    4.8230  -23.4210 C   0  0  0  0  0  0
    3.1410    6.0110  -22.7430 C   0  0  0  0  0  0
    3.5570    3.8990  -23.4210 C   0  0  0  0  0  0
    1.6030    2.6010  -24.3930 C   0  0  0  0  0  0
   -0.5220    3.4190  -24.2700 C   0  0  0  0  0  0
    0.0100    4.6350  -23.6670 C   0  0  0  0  0  0
   -1.9770    3.4300  -24.6180 C   0  0  0  0  0  0
    4.1570    1.3990  -23.1440 C   0  0  0  0  0  0
    5.0950    1.0350  -22.0030 C   0  0  2  0  0  0
    6.6890    2.5740  -22.5390 C   0  0  2  0  0  0
    5.0840    2.0310  -20.8310 C   0  0  0  0  0  0
   -2.3080    3.5970  -26.0440 C   0  0  0  0  0  0
   -1.5470    2.8150  -21.6780 C   0  0  0  0  0  0
   -0.5150    2.4620  -21.1780 C   0  0  0  0  0  0
   -0.8280    5.6800  -23.3140 F   0  0  0  0  0  0
   -3.7260    3.1020  -20.1390 F   0  0  0  0  0  0
    1.8200    5.9780  -22.8860 N   0  0  0  0  0  0
    4.0350    5.0470  -22.9720 N   0  0  0  0  0  0
    0.2950    2.5160  -24.6930 N   0  0  0  0  0  0
    4.4710    2.8500  -23.6070 N   0  0  0  0  0  0
    6.5000    1.1010  -22.4910 N   0  0  1  0  0  0
   -3.8410    3.8060  -27.7920 O   0  0  0  0  0  0
   -5.9796    3.6712  -21.1226 H   0  0  0  0  0  0
   -6.4675    4.0037  -23.5091 H   0  0  0  0  0  0
    5.6179    3.9906  -21.2849 H   0  0  0  0  0  0
    6.8763    3.0060  -20.4159 H   0  0  0  0  0  0
    6.3275    2.7150  -24.6604 H   0  0  0  0  0  0
    6.0833    4.2460  -23.7593 H   0  0  0  0  0  0
   -5.6765    4.0776  -25.8762 H   0  0  0  0  0  0
    2.2385    1.7718  -24.6821 H   0  0  0  0  0  0
    3.1157    1.3435  -22.7939 H   0  0  0  0  0  0
    4.3144    0.7047  -23.9826 H   0  0  0  0  0  0
    4.8700    0.0218  -21.6387 H   0  0  0  0  0  0
    7.7578    2.8293  -22.5885 H   0  0  0  0  0  0
    4.1018    2.5236  -20.7805 H   0  0  0  0  0  0
    5.3877    1.5123  -19.9097 H   0  0  0  0  0  0
   -1.5411    3.5789  -26.8099 H   0  0  0  0  0  0
    0.3934    2.1519  -20.7378 H   0  0  0  0  0  0
    7.1492    0.5983  -21.7894 H   0  0  0  0  0  0
   -2.9984    3.7179  -28.2217 H   0  0  0  0  0  0
    3.4070    7.6450  -20.8220 N   0  0  1  0  0  0
    4.5730   10.6420  -20.4930 N   0  0  0  0  0  0
    3.7060    7.3460  -22.2710 C   0  0  0  0  0  0
    5.1660    9.4190  -20.6030 C   0  0  0  0  0  0
    4.5750    8.1520  -20.0140 C   0  0  0  0  0  0
    6.4550   10.8550  -21.6690 C   0  0  0  0  0  0
    6.3020    9.4970  -21.2980 C   0  0  0  0  0  0
    5.3970   11.4930  -21.1670 C   0  0  0  0  0  0
    2.6405    8.4035  -20.7620 H   0  0  0  0  0  0
    3.6881   10.7400  -19.9751 H   0  0  0  0  0  0
    4.7945    7.3590  -22.4289 H   0  0  0  0  0  0
    3.3062    8.1545  -22.9006 H   0  0  0  0  0  0
    5.3521    7.3749  -19.9660 H   0  0  0  0  0  0
    4.2489    8.3461  -18.9815 H   0  0  0  0  0  0
    7.3160   11.1650  -22.2500 H   0  0  0  0  0  0
    6.8955    8.6058  -21.4669 H   0  0  0  0  0  0
    5.1481   12.5456  -21.2380 H   0  0  0  0  0  0
  1  2  2  0  0  0
  1  3  1  0  0  0
  1 34  1  0  0  0
  2  6  1  0  0  0
  2 35  1  0  0  0
  3  5  2  0  0  0
  3 27  1  0  0  0
  4  5  1  0  0  0
  4  6  2  0  0  0
  4 18  1  0  0  0
  5 24  1  0  0  0
  6 10  1  0  0  0
  7 10  2  0  0  0
  7 23  1  0  0  0
  7 33  1  0  0  0
  8 21  1  0  0  0
  8 22  1  0  0  0
  8 36  1  0  0  0
  8 37  1  0  0  0
  9 21  1  0  0  0
  9 31  1  0  0  0
  9 38  1  0  0  0
  9 39  1  0  0  0
 10 40  1  0  0  0
 11 12  1  0  0  0
 11 14  2  0  0  0
 11 15  1  0  0  0
 12 17  1  0  0  0
 12 28  2  0  0  0
 13 28  1  0  0  0
 13 29  2  0  0  0
 13 54  1  0  0  0
 14 29  1  0  0  0
 14 31  1  0  0  0
 15 30  2  0  0  0
 15 41  1  0  0  0
 16 17  2  0  0  0
 16 18  1  0  0  0
 16 30  1  0  0  0
 17 26  1  0  0  0
 18 23  2  0  0  0
 19 20  1  0  0  0
 19 31  1  0  0  0
 19 42  1  0  0  0
 19 43  1  0  0  0
 20 22  1  0  0  0
 20 32  1  0  0  0
 20 44  1  0  0  0
 21 32  1  0  0  0
 21 45  1  0  0  0
 22 46  1  0  0  0
 22 47  1  0  0  0
 23 48  1  0  0  0
 24 25  3  0  0  0
 25 49  1  0  0  0
 32 50  1  0  0  0
 33 51  1  0  0  0
 52 54  1  0  0  0
 52 56  1  0  0  0
 52 60  1  0  0  0
 53 55  1  0  0  0
 53 59  1  0  0  0
 53 61  1  0  0  0
 54 62  1  0  0  0
 54 63  1  0  0  0
 55 56  1  0  0  0
 55 58  2  0  0  0
 56 64  1  0  0  0
 56 65  1  0  0  0
 57 58  1  0  0  0
 57 59  2  0  0  0
 57 66  1  0  0  0
 58 67  1  0  0  0
 59 68  1  0  0  0
M  END
> <s_m_entry_id>
526

> <s_m_entry_name>
000000368.1

> <s_m_Source_Path>
/Users/zaksoul/Documents/3r_UNI/2nd_SEMESTER/BSC/FRAG_RECON/RESULTS/2

> <s_m_Source_File>
000000368.mol2

> <i_m_Source_File_Index>
1

$$$$
No_0_386
                    3D
 Schrodinger Suite 2022-4.
 68 74  0  0  1  0            999 V2000
   -5.4060    3.5230  -21.9710 C   0  0  0  0  0  0
   -5.6800    3.6650  -23.3110 C   0  0  0  0  0  0
   -4.1640    3.2980  -21.6270 C   0  0  0  0  0  0
   -3.2820    3.3680  -23.7990 C   0  0  0  0  0  0
   -3.1130    3.1710  -22.3730 C   0  0  0  0  0  0
   -4.6350    3.5950  -24.3230 C   0  0  0  0  0  0
   -3.8880    3.5580  -26.5240 C   0  0  0  0  0  0
    5.8690    3.1270  -21.2770 C   0  0  0  0  0  0
    5.7200    3.1860  -23.8290 C   0  0  0  0  0  0
   -4.8930    3.6760  -25.6610 C   0  0  0  0  0  0
    1.9280    3.6800  -23.8490 C   0  0  0  0  0  0
    1.0920    4.7860  -23.5810 C   0  0  0  0  0  0
    2.8760    6.0280  -22.9470 C   0  0  0  0  0  0
    3.3260    3.9010  -23.5470 C   0  0  0  0  0  0
    1.3950    2.5350  -24.4720 C   0  0  0  0  0  0
   -0.7430    3.3220  -24.3790 C   0  0  0  0  0  0
   -0.2320    4.5680  -23.8210 C   0  0  0  0  0  0
   -2.1980    3.2960  -24.7270 C   0  0  0  0  0  0
    3.9680    1.4220  -23.1790 C   0  0  0  0  0  0
    4.9110    1.1160  -22.0250 C   0  0  2  0  0  0
    6.4800    2.6610  -22.6170 C   0  0  2  0  0  0
    4.8830    2.1530  -20.8900 C   0  0  0  0  0  0
   -2.5300    3.4060  -26.1580 C   0  0  0  0  0  0
   -1.7600    2.7960  -21.7670 C   0  0  0  0  0  0
   -0.7230    2.4790  -21.2540 C   0  0  0  0  0  0
   -1.0870    5.6120  -23.5060 F   0  0  0  0  0  0
   -3.9450    3.1030  -20.2390 F   0  0  0  0  0  0
    1.5550    5.9680  -23.0890 N   0  0  0  0  0  0
    3.7850    5.0710  -23.1400 N   0  0  0  0  0  0
    0.0890    2.4180  -24.7690 N   0  0  0  0  0  0
    4.2580    2.8600  -23.6950 N   0  0  0  0  0  0
    6.3150    1.1870  -22.5150 N   0  0  1  0  0  0
   -4.0660    3.5260  -27.9130 O   0  0  0  0  0  0
   -6.2064    3.5982  -21.2438 H   0  0  0  0  0  0
   -6.6983    3.8356  -23.6411 H   0  0  0  0  0  0
    5.3843    4.1046  -21.4164 H   0  0  0  0  0  0
    6.6582    3.1724  -20.5121 H   0  0  0  0  0  0
    6.1168    2.7175  -24.7417 H   0  0  0  0  0  0
    5.8471    4.2765  -23.8966 H   0  0  0  0  0  0
   -5.9072    3.8367  -26.0084 H   0  0  0  0  0  0
    2.0447    1.7065  -24.7301 H   0  0  0  0  0  0
    2.9276    1.3625  -22.8268 H   0  0  0  0  0  0
    4.1366    0.7001  -23.9917 H   0  0  0  0  0  0
    4.7021    0.1130  -21.6244 H   0  0  0  0  0  0
    7.5446    2.9314  -22.6755 H   0  0  0  0  0  0
    3.8930    2.6314  -20.8587 H   0  0  0  0  0  0
    5.1939    1.6735  -19.9501 H   0  0  0  0  0  0
   -1.7629    3.3729  -26.9231 H   0  0  0  0  0  0
    0.1901    2.2000  -20.8029 H   0  0  0  0  0  0
    6.9716    0.7208  -21.7953 H   0  0  0  0  0  0
   -3.2215    3.4359  -28.3387 H   0  0  0  0  0  0
    3.7750    7.4630  -21.0590 N   0  0  1  0  0  0
    4.5710   10.5770  -20.7110 N   0  0  0  0  0  0
    3.4180    7.3890  -22.5240 C   0  0  0  0  0  0
    5.1990    9.5140  -21.2900 C   0  0  0  0  0  0
    5.1080    8.1000  -20.7520 C   0  0  0  0  0  0
    5.6660   11.2840  -22.5190 C   0  0  0  0  0  0
    5.8750    9.8900  -22.3780 C   0  0  0  0  0  0
    4.8820   11.6420  -21.5020 C   0  0  0  0  0  0
    3.0308    8.0442  -20.5348 H   0  0  0  0  0  0
    4.0141   10.4420  -19.8551 H   0  0  0  0  0  0
    4.3041    7.6340  -23.1280 H   0  0  0  0  0  0
    2.6762    8.1668  -22.7579 H   0  0  0  0  0  0
    5.9137    7.4902  -21.1868 H   0  0  0  0  0  0
    5.2650    8.1120  -19.6633 H   0  0  0  0  0  0
    6.1221   11.8191  -23.3441 H   0  0  0  0  0  0
    6.4344    9.1574  -22.9485 H   0  0  0  0  0  0
    4.4960   12.6261  -21.2620 H   0  0  0  0  0  0
  1  2  2  0  0  0
  1  3  1  0  0  0
  1 34  1  0  0  0
  2  6  1  0  0  0
  2 35  1  0  0  0
  3  5  2  0  0  0
  3 27  1  0  0  0
  4  5  1  0  0  0
  4  6  2  0  0  0
  4 18  1  0  0  0
  5 24  1  0  0  0
  6 10  1  0  0  0
  7 10  2  0  0  0
  7 23  1  0  0  0
  7 33  1  0  0  0
  8 21  1  0  0  0
  8 22  1  0  0  0
  8 36  1  0  0  0
  8 37  1  0  0  0
  9 21  1  0  0  0
  9 31  1  0  0  0
  9 38  1  0  0  0
  9 39  1  0  0  0
 10 40  1  0  0  0
 11 12  1  0  0  0
 11 14  2  0  0  0
 11 15  1  0  0  0
 12 17  1  0  0  0
 12 28  2  0  0  0
 13 28  1  0  0  0
 13 29  2  0  0  0
 13 54  1  0  0  0
 14 29  1  0  0  0
 14 31  1  0  0  0
 15 30  2  0  0  0
 15 41  1  0  0  0
 16 17  2  0  0  0
 16 18  1  0  0  0
 16 30  1  0  0  0
 17 26  1  0  0  0
 18 23  2  0  0  0
 19 20  1  0  0  0
 19 31  1  0  0  0
 19 42  1  0  0  0
 19 43  1  0  0  0
 20 22  1  0  0  0
 20 32  1  0  0  0
 20 44  1  0  0  0
 21 32  1  0  0  0
 21 45  1  0  0  0
 22 46  1  0  0  0
 22 47  1  0  0  0
 23 48  1  0  0  0
 24 25  3  0  0  0
 25 49  1  0  0  0
 32 50  1  0  0  0
 33 51  1  0  0  0
 52 54  1  0  0  0
 52 56  1  0  0  0
 52 60  1  0  0  0
 53 55  1  0  0  0
 53 59  1  0  0  0
 53 61  1  0  0  0
 54 62  1  0  0  0
 54 63  1  0  0  0
 55 56  1  0  0  0
 55 58  2  0  0  0
 56 64  1  0  0  0
 56 65  1  0  0  0
 57 58  1  0  0  0
 57 59  2  0  0  0
 57 66  1  0  0  0
 58 67  1  0  0  0
 59 68  1  0  0  0
M  END
> <s_m_entry_id>
527

> <s_m_entry_name>
000000369.1

> <s_m_Source_Path>
/Users/zaksoul/Documents/3r_UNI/2nd_SEMESTER/BSC/FRAG_RECON/RESULTS/2

> <s_m_Source_File>
000000369.mol2

> <i_m_Source_File_Index>
1

$$$$
No_0_387
                    3D
 Schrodinger Suite 2022-4.
 68 74  0  0  1  0            999 V2000
   -5.4750    3.4600  -21.9610 C   0  0  0  0  0  0
   -5.7400    3.6490  -23.2970 C   0  0  0  0  0  0
   -4.2390    3.1960  -21.6200 C   0  0  0  0  0  0
   -3.3480    3.3090  -23.7870 C   0  0  0  0  0  0
   -3.1890    3.0660  -22.3660 C   0  0  0  0  0  0
   -4.6930    3.5840  -24.3080 C   0  0  0  0  0  0
   -3.9390    3.5930  -26.5060 C   0  0  0  0  0  0
    5.7860    2.7760  -21.2440 C   0  0  0  0  0  0
    5.6470    2.9140  -23.7930 C   0  0  0  0  0  0
   -4.9440    3.7100  -25.6430 C   0  0  0  0  0  0
    1.8680    3.4990  -23.8100 C   0  0  0  0  0  0
    1.0580    4.6160  -23.5130 C   0  0  0  0  0  0
    2.8680    5.7960  -22.8370 C   0  0  0  0  0  0
    3.2700    3.6770  -23.4980 C   0  0  0  0  0  0
    1.3100    2.3860  -24.4690 C   0  0  0  0  0  0
   -0.8090    3.2200  -24.3590 C   0  0  0  0  0  0
   -0.2700    4.4360  -23.7630 C   0  0  0  0  0  0
   -2.2620    3.2390  -24.7130 C   0  0  0  0  0  0
    3.8520    1.1740  -23.2010 C   0  0  0  0  0  0
    4.7820    0.8110  -22.0540 C   0  0  2  0  0  0
    6.3900    2.3350  -22.5950 C   0  0  2  0  0  0
    4.7750    1.8150  -20.8890 C   0  0  0  0  0  0
   -2.5870    3.3990  -26.1410 C   0  0  0  0  0  0
   -1.8480    2.6410  -21.7670 C   0  0  0  0  0  0
   -0.8210    2.2850  -21.2610 C   0  0  0  0  0  0
   -1.1020    5.4900  -23.4200 F   0  0  0  0  0  0
   -4.0300    2.9550  -20.2380 F   0  0  0  0  0  0
    1.5460    5.7710  -22.9840 N   0  0  0  0  0  0
    3.7550    4.8240  -23.0550 N   0  0  0  0  0  0
    0.0030    2.3080  -24.7730 N   0  0  0  0  0  0
    4.1780    2.6200  -23.6730 N   0  0  0  0  0  0
    6.1890    0.8640  -22.5370 N   0  0  1  0  0  0
   -4.1120    3.6070  -27.8960 O   0  0  0  0  0  0
   -6.2760    3.5333  -21.2343 H   0  0  0  0  0  0
   -6.7528    3.8528  -23.6252 H   0  0  0  0  0  0
    5.3238    3.7680  -21.3550 H   0  0  0  0  0  0
    6.5723    2.7810  -20.4748 H   0  0  0  0  0  0
    6.0364    2.4640  -24.7181 H   0  0  0  0  0  0
    5.8004    4.0027  -23.8293 H   0  0  0  0  0  0
   -5.9526    3.9047  -25.9892 H   0  0  0  0  0  0
    1.9411    1.5503  -24.7489 H   0  0  0  0  0  0
    2.8088    1.1286  -22.8550 H   0  0  0  0  0  0
    4.0064    0.4728  -24.0344 H   0  0  0  0  0  0
    4.5487   -0.1980  -21.6833 H   0  0  0  0  0  0
    7.4608    2.5823  -22.6424 H   0  0  0  0  0  0
    3.7964    2.3154  -20.8456 H   0  0  0  0  0  0
    5.0706    1.3004  -19.9628 H   0  0  0  0  0  0
   -1.8173    3.3699  -26.9037 H   0  0  0  0  0  0
    0.0834    1.9712  -20.8153 H   0  0  0  0  0  0
    6.8327    0.3615  -21.8302 H   0  0  0  0  0  0
   -3.2684    3.5090  -28.3218 H   0  0  0  0  0  0
    4.3600    7.0060  -21.1810 N   0  0  1  0  0  0
    5.0110   10.0980  -20.5010 N   0  0  0  0  0  0
    3.4400    7.1300  -22.3720 C   0  0  0  0  0  0
    5.4190    9.2580  -21.4940 C   0  0  0  0  0  0
    5.6540    7.7740  -21.2830 C   0  0  0  0  0  0
    5.2190   11.2610  -22.3920 C   0  0  0  0  0  0
    5.5630    9.9110  -22.6480 C   0  0  0  0  0  0
    4.8970   11.3180  -21.0990 C   0  0  0  0  0  0
    3.8567    7.3702  -20.2975 H   0  0  0  0  0  0
    4.8639    9.7369  -19.5477 H   0  0  0  0  0  0
    3.9820    7.6050  -23.2030 H   0  0  0  0  0  0
    2.6160    7.8160  -22.1260 H   0  0  0  0  0  0
    6.2511    7.3769  -22.1171 H   0  0  0  0  0  0
    6.2418    7.6241  -20.3654 H   0  0  0  0  0  0
    5.2590   11.9917  -23.1917 H   0  0  0  0  0  0
    5.8889    9.3792  -23.5346 H   0  0  0  0  0  0
    4.5760   12.1770  -20.5210 H   0  0  0  0  0  0
  1  2  2  0  0  0
  1  3  1  0  0  0
  1 34  1  0  0  0
  2  6  1  0  0  0
  2 35  1  0  0  0
  3  5  2  0  0  0
  3 27  1  0  0  0
  4  5  1  0  0  0
  4  6  2  0  0  0
  4 18  1  0  0  0
  5 24  1  0  0  0
  6 10  1  0  0  0
  7 10  2  0  0  0
  7 23  1  0  0  0
  7 33  1  0  0  0
  8 21  1  0  0  0
  8 22  1  0  0  0
  8 36  1  0  0  0
  8 37  1  0  0  0
  9 21  1  0  0  0
  9 31  1  0  0  0
  9 38  1  0  0  0
  9 39  1  0  0  0
 10 40  1  0  0  0
 11 12  1  0  0  0
 11 14  2  0  0  0
 11 15  1  0  0  0
 12 17  1  0  0  0
 12 28  2  0  0  0
 13 28  1  0  0  0
 13 29  2  0  0  0
 13 54  1  0  0  0
 14 29  1  0  0  0
 14 31  1  0  0  0
 15 30  2  0  0  0
 15 41  1  0  0  0
 16 17  2  0  0  0
 16 18  1  0  0  0
 16 30  1  0  0  0
 17 26  1  0  0  0
 18 23  2  0  0  0
 19 20  1  0  0  0
 19 31  1  0  0  0
 19 42  1  0  0  0
 19 43  1  0  0  0
 20 22  1  0  0  0
 20 32  1  0  0  0
 20 44  1  0  0  0
 21 32  1  0  0  0
 21 45  1  0  0  0
 22 46  1  0  0  0
 22 47  1  0  0  0
 23 48  1  0  0  0
 24 25  3  0  0  0
 25 49  1  0  0  0
 32 50  1  0  0  0
 33 51  1  0  0  0
 52 54  1  0  0  0
 52 56  1  0  0  0
 52 60  1  0  0  0
 53 55  1  0  0  0
 53 59  1  0  0  0
 53 61  1  0  0  0
 54 62  1  0  0  0
 54 63  1  0  0  0
 55 56  1  0  0  0
 55 58  2  0  0  0
 56 64  1  0  0  0
 56 65  1  0  0  0
 57 58  1  0  0  0
 57 59  2  0  0  0
 57 66  1  0  0  0
 58 67  1  0  0  0
 59 68  1  0  0  0
M  END
> <s_m_entry_id>
528

> <s_m_entry_name>
000000370.1

> <s_m_Source_Path>
/Users/zaksoul/Documents/3r_UNI/2nd_SEMESTER/BSC/FRAG_RECON/RESULTS/2

> <s_m_Source_File>
000000370.mol2

> <i_m_Source_File_Index>
1

$$$$
No_0_388
                    3D
 Schrodinger Suite 2022-4.
 75 81  0  0  1  0            999 V2000
   -5.1380    3.9330  -22.1290 C   0  0  0  0  0  0
   -5.3980    4.0810  -23.4700 C   0  0  0  0  0  0
   -3.9070    3.6630  -21.7770 C   0  0  0  0  0  0
   -3.0100    3.6920  -23.9440 C   0  0  0  0  0  0
   -2.8570    3.4940  -22.5150 C   0  0  0  0  0  0
   -4.3500    3.9680  -24.4760 C   0  0  0  0  0  0
   -3.5920    3.8950  -26.6720 C   0  0  0  0  0  0
    6.1100    3.1140  -21.3640 C   0  0  0  0  0  0
    5.9780    3.1710  -23.9180 C   0  0  0  0  0  0
   -4.5970    4.0550  -25.8160 C   0  0  0  0  0  0
    2.2070    3.8070  -23.9620 C   0  0  0  0  0  0
    1.4130    4.9450  -23.7030 C   0  0  0  0  0  0
    3.2380    6.1210  -23.0620 C   0  0  0  0  0  0
    3.6120    3.9760  -23.6530 C   0  0  0  0  0  0
    1.6350    2.6810  -24.5850 C   0  0  0  0  0  0
   -0.4720    3.5480  -24.5070 C   0  0  0  0  0  0
    0.0830    4.7760  -23.9500 C   0  0  0  0  0  0
   -1.9240    3.5770  -24.8640 C   0  0  0  0  0  0
    4.1570    1.4760  -23.2720 C   0  0  0  0  0  0
    5.0810    1.1380  -22.1120 C   0  0  2  0  0  0
    6.7110    2.6210  -22.6990 C   0  0  2  0  0  0
    5.0850    2.1800  -20.9810 C   0  0  0  0  0  0
   -2.2440    3.6940  -26.2980 C   0  0  0  0  0  0
   -1.5240    3.0700  -21.9000 C   0  0  0  0  0  0
   -0.5020    2.7150  -21.3800 C   0  0  0  0  0  0
   -0.7340    5.8520  -23.6440 F   0  0  0  0  0  0
   -3.7040    3.4640  -20.3860 F   0  0  0  0  0  0
    1.9170    6.1100  -23.2110 N   0  0  0  0  0  0
    4.1120    5.1300  -23.2460 N   0  0  0  0  0  0
    0.3280    2.6120  -24.8890 N   0  0  0  0  0  0
    4.5050    2.9010  -23.7910 N   0  0  0  0  0  0
    6.4890    1.1550  -22.5940 N   0  0  1  0  0  0
   -3.7630    3.8650  -28.0620 O   0  0  0  0  0  0
   -5.9389    4.0404  -21.4064 H   0  0  0  0  0  0
   -6.4071    4.2886  -23.8070 H   0  0  0  0  0  0
    5.6631    4.1086  -21.5093 H   0  0  0  0  0  0
    6.8952    3.1332  -20.5939 H   0  0  0  0  0  0
    6.3626    2.6845  -24.8265 H   0  0  0  0  0  0
    6.1467    4.2557  -23.9887 H   0  0  0  0  0  0
   -5.6024    4.2517  -26.1702 H   0  0  0  0  0  0
    2.2551    1.8280  -24.8359 H   0  0  0  0  0  0
    3.1127    1.4568  -22.9269 H   0  0  0  0  0  0
    4.3033    0.7455  -24.0813 H   0  0  0  0  0  0
    4.8318    0.1451  -21.7094 H   0  0  0  0  0  0
    7.7853    2.8512  -22.7525 H   0  0  0  0  0  0
    4.1136    2.6955  -20.9568 H   0  0  0  0  0  0
    5.3715    1.6918  -20.0378 H   0  0  0  0  0  0
   -1.4739    3.6287  -27.0581 H   0  0  0  0  0  0
    0.3972    2.4039  -20.9219 H   0  0  0  0  0  0
    7.1241    0.6675  -21.8691 H   0  0  0  0  0  0
   -2.9200    3.7423  -28.4825 H   0  0  0  0  0  0
    4.1600    7.4700  -21.1700 N   0  0  1  0  0  0
    7.9850   10.1760  -21.7710 N   0  0  0  0  0  0
    4.6080    8.7960  -20.6030 C   0  0  0  0  0  0
    6.1030    9.0630  -20.7600 C   0  0  0  0  0  0
    3.8290    7.4620  -22.6400 C   0  0  0  0  0  0
    8.2940    8.5990  -19.9900 C   0  0  0  0  0  0
    5.7730   10.7260  -22.6160 C   0  0  0  0  0  0
    6.6600    9.9430  -21.6680 C   0  0  0  0  0  0
    6.9450    8.3840  -19.9150 C   0  0  0  0  0  0
   10.2640    9.7160  -20.9590 C   0  0  0  0  0  0
    8.7680    9.4920  -20.9160 C   0  0  0  0  0  0
    4.9412    6.7368  -21.0340 H   0  0  0  0  0  0
    4.3382    8.8470  -19.5378 H   0  0  0  0  0  0
    4.0399    9.6082  -21.0801 H   0  0  0  0  0  0
    4.7411    7.6600  -23.2221 H   0  0  0  0  0  0
    3.1080    8.2640  -22.8570 H   0  0  0  0  0  0
    8.9652    8.0679  -19.3248 H   0  0  0  0  0  0
    4.7209   10.4560  -22.4420 H   0  0  0  0  0  0
    5.9079   11.8034  -22.4401 H   0  0  0  0  0  0
    6.0450   10.4880  -23.6549 H   0  0  0  0  0  0
    6.5400    7.6831  -19.1941 H   0  0  0  0  0  0
   10.7524    9.0855  -20.2014 H   0  0  0  0  0  0
   10.6457    9.4522  -21.9563 H   0  0  0  0  0  0
   10.4829   10.7737  -20.7511 H   0  0  0  0  0  0
  1  2  2  0  0  0
  1  3  1  0  0  0
  1 34  1  0  0  0
  2  6  1  0  0  0
  2 35  1  0  0  0
  3  5  2  0  0  0
  3 27  1  0  0  0
  4  5  1  0  0  0
  4  6  2  0  0  0
  4 18  1  0  0  0
  5 24  1  0  0  0
  6 10  1  0  0  0
  7 10  2  0  0  0
  7 23  1  0  0  0
  7 33  1  0  0  0
  8 21  1  0  0  0
  8 22  1  0  0  0
  8 36  1  0  0  0
  8 37  1  0  0  0
  9 21  1  0  0  0
  9 31  1  0  0  0
  9 38  1  0  0  0
  9 39  1  0  0  0
 10 40  1  0  0  0
 11 12  1  0  0  0
 11 14  2  0  0  0
 11 15  1  0  0  0
 12 17  1  0  0  0
 12 28  2  0  0  0
 13 28  1  0  0  0
 13 29  2  0  0  0
 13 56  1  0  0  0
 14 29  1  0  0  0
 14 31  1  0  0  0
 15 30  2  0  0  0
 15 41  1  0  0  0
 16 17  2  0  0  0
 16 18  1  0  0  0
 16 30  1  0  0  0
 17 26  1  0  0  0
 18 23  2  0  0  0
 19 20  1  0  0  0
 19 31  1  0  0  0
 19 42  1  0  0  0
 19 43  1  0  0  0
 20 22  1  0  0  0
 20 32  1  0  0  0
 20 44  1  0  0  0
 21 32  1  0  0  0
 21 45  1  0  0  0
 22 46  1  0  0  0
 22 47  1  0  0  0
 23 48  1  0  0  0
 24 25  3  0  0  0
 25 49  1  0  0  0
 32 50  1  0  0  0
 33 51  1  0  0  0
 52 54  1  0  0  0
 52 56  1  0  0  0
 52 63  1  0  0  0
 53 59  2  0  0  0
 53 62  1  0  0  0
 54 55  1  0  0  0
 54 64  1  0  0  0
 54 65  1  0  0  0
 55 59  1  0  0  0
 55 60  2  0  0  0
 56 66  1  0  0  0
 56 67  1  0  0  0
 57 60  1  0  0  0
 57 62  2  0  0  0
 57 68  1  0  0  0
 58 59  1  0  0  0
 58 69  1  0  0  0
 58 70  1  0  0  0
 58 71  1  0  0  0
 60 72  1  0  0  0
 61 62  1  0  0  0
 61 73  1  0  0  0
 61 74  1  0  0  0
 61 75  1  0  0  0
M  END
> <s_m_entry_id>
529

> <s_m_entry_name>
000000371.1

> <s_m_Source_Path>
/Users/zaksoul/Documents/3r_UNI/2nd_SEMESTER/BSC/FRAG_RECON/RESULTS/2

> <s_m_Source_File>
000000371.mol2

> <i_m_Source_File_Index>
1

$$$$
No_0_389
                    3D
 Schrodinger Suite 2022-4.
 73 80  0  0  1  0            999 V2000
   -5.1490    3.4480  -22.1270 C   0  0  0  0  0  0
   -5.4050    3.6040  -23.4690 C   0  0  0  0  0  0
   -3.9170    3.1840  -21.7720 C   0  0  0  0  0  0
   -3.0120    3.2360  -23.9350 C   0  0  0  0  0  0
   -2.8630    3.0290  -22.5080 C   0  0  0  0  0  0
   -4.3520    3.5060  -24.4710 C   0  0  0  0  0  0
   -3.5850    3.4560  -26.6650 C   0  0  0  0  0  0
    6.1020    2.7090  -21.3250 C   0  0  0  0  0  0
    5.9800    2.7830  -23.8780 C   0  0  0  0  0  0
   -4.5940    3.6010  -25.8110 C   0  0  0  0  0  0
    2.2040    3.3920  -23.9320 C   0  0  0  0  0  0
    1.4000    4.5210  -23.6680 C   0  0  0  0  0  0
    3.2140    5.7060  -23.0110 C   0  0  0  0  0  0
    3.6060    3.5680  -23.6160 C   0  0  0  0  0  0
    1.6430    2.2660  -24.5660 C   0  0  0  0  0  0
   -0.4710    3.1160  -24.4900 C   0  0  0  0  0  0
    0.0730    4.3440  -23.9210 C   0  0  0  0  0  0
   -1.9220    3.1360  -24.8530 C   0  0  0  0  0  0
    4.1690    1.0700  -23.2530 C   0  0  0  0  0  0
    5.0910    0.7310  -22.0910 C   0  0  2  0  0  0
    6.7110    2.2300  -22.6600 C   0  0  2  0  0  0
    5.0830    1.7640  -20.9520 C   0  0  0  0  0  0
   -2.2370    3.2620  -26.2860 C   0  0  0  0  0  0
   -1.5290    2.6100  -21.8900 C   0  0  0  0  0  0
   -0.5070    2.2600  -21.3690 C   0  0  0  0  0  0
   -0.7540    5.4110  -23.6110 F   0  0  0  0  0  0
   -3.7180    2.9760  -20.3830 F   0  0  0  0  0  0
    1.8930    5.6860  -23.1660 N   0  0  0  0  0  0
    4.0960    4.7230  -23.2000 N   0  0  0  0  0  0
    0.3370    2.1890  -24.8760 N   0  0  0  0  0  0
    4.5080    2.5010  -23.7590 N   0  0  0  0  0  0
    6.5010    0.7620  -22.5670 N   0  0  1  0  0  0
   -3.7500    3.4350  -28.0550 O   0  0  0  0  0  0
   -5.9539    3.5444  -21.4074 H   0  0  0  0  0  0
   -6.4144    3.8067  -23.8082 H   0  0  0  0  0  0
    5.6478    3.7011  -21.4643 H   0  0  0  0  0  0
    6.8842    2.7272  -20.5518 H   0  0  0  0  0  0
    6.3718    2.3064  -24.7887 H   0  0  0  0  0  0
    6.1405    3.8695  -23.9396 H   0  0  0  0  0  0
   -5.5994    3.7926  -26.1682 H   0  0  0  0  0  0
    2.2700    1.4193  -24.8208 H   0  0  0  0  0  0
    3.1236    1.0397  -22.9119 H   0  0  0  0  0  0
    4.3245    0.3462  -24.0666 H   0  0  0  0  0  0
    4.8479   -0.2667  -21.6966 H   0  0  0  0  0  0
    7.7838    2.4682  -22.7084 H   0  0  0  0  0  0
    4.1074    2.2715  -20.9278 H   0  0  0  0  0  0
    5.3696    1.2706  -20.0116 H   0  0  0  0  0  0
   -1.4634    3.2088  -27.0435 H   0  0  0  0  0  0
    0.3926    1.9511  -20.9102 H   0  0  0  0  0  0
    7.1362    0.2733  -21.8430 H   0  0  0  0  0  0
   -2.9048    3.3212  -28.4736 H   0  0  0  0  0  0
    3.7730    7.1710  -21.0770 N   0  0  1  0  0  0
    6.4470    9.5740  -21.2870 N   0  0  0  0  0  0
    8.1650   10.7540  -22.0450 N   0  0  0  0  0  0
    5.8050    8.6030  -20.5360 C   0  0  0  0  0  0
    4.2860    8.4740  -20.5210 C   0  0  0  0  0  0
    3.7930    7.0480  -22.5760 C   0  0  0  0  0  0
    7.8010    9.7370  -21.2570 C   0  0  0  0  0  0
    6.5580    7.7860  -19.7840 C   0  0  0  0  0  0
    6.0090   10.5360  -22.1460 C   0  0  0  0  0  0
    7.9790    7.9230  -19.7540 C   0  0  0  0  0  0
    8.6040    8.8790  -20.4670 C   0  0  0  0  0  0
    7.0320   11.2590  -22.6100 C   0  0  0  0  0  0
    4.3721    6.3558  -20.6989 H   0  0  0  0  0  0
    3.9198    8.6001  -19.4914 H   0  0  0  0  0  0
    3.8427    9.3096  -21.0824 H   0  0  0  0  0  0
    4.8284    7.1350  -22.9371 H   0  0  0  0  0  0
    3.2012    7.8627  -23.0188 H   0  0  0  0  0  0
    6.0890    7.0100  -19.1900 H   0  0  0  0  0  0
    4.9509   10.6270  -22.3630 H   0  0  0  0  0  0
    8.5755    7.2494  -19.1495 H   0  0  0  0  0  0
    9.6804    9.0060  -20.4510 H   0  0  0  0  0  0
    7.0960   12.0977  -23.2938 H   0  0  0  0  0  0
  1  2  2  0  0  0
  1  3  1  0  0  0
  1 34  1  0  0  0
  2  6  1  0  0  0
  2 35  1  0  0  0
  3  5  2  0  0  0
  3 27  1  0  0  0
  4  5  1  0  0  0
  4  6  2  0  0  0
  4 18  1  0  0  0
  5 24  1  0  0  0
  6 10  1  0  0  0
  7 10  2  0  0  0
  7 23  1  0  0  0
  7 33  1  0  0  0
  8 21  1  0  0  0
  8 22  1  0  0  0
  8 36  1  0  0  0
  8 37  1  0  0  0
  9 21  1  0  0  0
  9 31  1  0  0  0
  9 38  1  0  0  0
  9 39  1  0  0  0
 10 40  1  0  0  0
 11 12  1  0  0  0
 11 14  2  0  0  0
 11 15  1  0  0  0
 12 17  1  0  0  0
 12 28  2  0  0  0
 13 28  1  0  0  0
 13 29  2  0  0  0
 13 57  1  0  0  0
 14 29  1  0  0  0
 14 31  1  0  0  0
 15 30  2  0  0  0
 15 41  1  0  0  0
 16 17  2  0  0  0
 16 18  1  0  0  0
 16 30  1  0  0  0
 17 26  1  0  0  0
 18 23  2  0  0  0
 19 20  1  0  0  0
 19 31  1  0  0  0
 19 42  1  0  0  0
 19 43  1  0  0  0
 20 22  1  0  0  0
 20 32  1  0  0  0
 20 44  1  0  0  0
 21 32  1  0  0  0
 21 45  1  0  0  0
 22 46  1  0  0  0
 22 47  1  0  0  0
 23 48  1  0  0  0
 24 25  3  0  0  0
 25 49  1  0  0  0
 32 50  1  0  0  0
 33 51  1  0  0  0
 52 56  1  0  0  0
 52 57  1  0  0  0
 52 64  1  0  0  0
 53 55  1  0  0  0
 53 58  1  0  0  0
 53 60  1  0  0  0
 54 58  2  0  0  0
 54 63  1  0  0  0
 55 56  1  0  0  0
 55 59  2  0  0  0
 56 65  1  0  0  0
 56 66  1  0  0  0
 57 67  1  0  0  0
 57 68  1  0  0  0
 58 62  1  0  0  0
 59 61  1  0  0  0
 59 69  1  0  0  0
 60 63  2  0  0  0
 60 70  1  0  0  0
 61 62  2  0  0  0
 61 71  1  0  0  0
 62 72  1  0  0  0
 63 73  1  0  0  0
M  END
> <s_m_entry_id>
530

> <s_m_entry_name>
000000372.1

> <s_m_Source_Path>
/Users/zaksoul/Documents/3r_UNI/2nd_SEMESTER/BSC/FRAG_RECON/RESULTS/2

> <s_m_Source_File>
000000372.mol2

> <i_m_Source_File_Index>
1

$$$$
No_0_390
                    3D
 Schrodinger Suite 2022-4.
 76 82  0  0  1  0            999 V2000
   -5.2560    3.5470  -21.8870 C   0  0  0  0  0  0
   -5.5390    3.7100  -23.2220 C   0  0  0  0  0  0
   -4.0080    3.3320  -21.5540 C   0  0  0  0  0  0
   -3.1400    3.4510  -23.7290 C   0  0  0  0  0  0
   -2.9600    3.2310  -22.3070 C   0  0  0  0  0  0
   -4.4990    3.6700  -24.2410 C   0  0  0  0  0  0
   -3.7650    3.6810  -26.4470 C   0  0  0  0  0  0
    6.0280    3.2800  -21.2630 C   0  0  0  0  0  0
    5.8620    3.3830  -23.8130 C   0  0  0  0  0  0
   -4.7660    3.7720  -25.5760 C   0  0  0  0  0  0
    2.0640    3.8300  -23.8020 C   0  0  0  0  0  0
    1.2170    4.9200  -23.5110 C   0  0  0  0  0  0
    2.9890    6.1730  -22.8650 C   0  0  0  0  0  0
    3.4620    4.0620  -23.5050 C   0  0  0  0  0  0
    1.5420    2.6890  -24.4430 C   0  0  0  0  0  0
   -0.6050    3.4470  -24.3240 C   0  0  0  0  0  0
   -0.1060    4.6890  -23.7470 C   0  0  0  0  0  0
   -2.0610    3.4100  -24.6640 C   0  0  0  0  0  0
    4.1370    1.5850  -23.1840 C   0  0  0  0  0  0
    5.0900    1.2710  -22.0420 C   0  0  2  0  0  0
    6.6360    2.8460  -22.6140 C   0  0  2  0  0  0
    5.0560    2.2880  -20.8880 C   0  0  0  0  0  0
   -2.4030    3.5400  -26.0910 C   0  0  0  0  0  0
   -1.6000    2.8620  -21.7160 C   0  0  0  0  0  0
   -0.5560    2.5490  -21.2150 C   0  0  0  0  0  0
   -0.9720    5.7160  -23.4090 F   0  0  0  0  0  0
   -3.7790    3.1150  -20.1710 F   0  0  0  0  0  0
    1.6680    6.0990  -23.0000 N   0  0  0  0  0  0
    3.9080    5.2310  -23.0800 N   0  0  0  0  0  0
    0.2360    2.5610  -24.7340 N   0  0  0  0  0  0
    4.4060    3.0360  -23.6760 N   0  0  0  0  0  0
    6.4900    1.3680  -22.5380 N   0  0  1  0  0  0
   -3.9500    3.6710  -27.8350 O   0  0  0  0  0  0
   -6.0526    3.5992  -21.1536 H   0  0  0  0  0  0
   -6.5615    3.8726  -23.5431 H   0  0  0  0  0  0
    5.5297    4.2534  -21.3820 H   0  0  0  0  0  0
    6.8207    3.3224  -20.5016 H   0  0  0  0  0  0
    6.2595    2.9361  -24.7362 H   0  0  0  0  0  0
    5.9760    4.4760  -23.8624 H   0  0  0  0  0  0
   -5.7840    3.9256  -25.9153 H   0  0  0  0  0  0
    2.2003    1.8732  -24.7190 H   0  0  0  0  0  0
    3.0992    1.5063  -22.8280 H   0  0  0  0  0  0
    4.3096    0.8803  -24.0108 H   0  0  0  0  0  0
    4.8962    0.2588  -21.6575 H   0  0  0  0  0  0
    7.6968    3.1306  -22.6746 H   0  0  0  0  0  0
    4.0602    2.7531  -20.8426 H   0  0  0  0  0  0
    5.3782    1.7952  -19.9589 H   0  0  0  0  0  0
   -1.6401    3.5300  -26.8610 H   0  0  0  0  0  0
    0.3632    2.2739  -20.7739 H   0  0  0  0  0  0
    7.1576    0.8983  -21.8308 H   0  0  0  0  0  0
   -3.1073    3.5997  -28.2677 H   0  0  0  0  0  0
    3.8590    7.5100  -20.9540 N   0  3  0  0  0  0
    7.7960   10.9390  -23.4980 N   0  0  0  0  0  0
    4.4960    8.7580  -20.3950 C   0  0  0  0  0  0
    5.8780    9.0400  -20.9840 C   0  0  0  0  0  0
    3.5160    7.5330  -22.4210 C   0  0  0  0  0  0
    6.1460    9.8920  -22.0420 C   0  0  0  0  0  0
    7.4660   10.0670  -22.4550 C   0  0  0  0  0  0
    6.9090    8.3610  -20.3690 C   0  0  0  0  0  0
    8.2090    8.5230  -20.7860 C   0  0  0  0  0  0
    8.4840    9.3760  -21.8220 C   0  0  0  0  0  0
    5.0470   10.6510  -22.7800 C   0  0  0  0  0  0
    3.0303    7.2941  -20.4222 H   0  0  0  0  0  0
    4.4547    6.7194  -20.7641 H   0  0  0  0  0  0
    8.7795   11.0509  -23.7829 H   0  0  0  0  0  0
    7.0565   11.4694  -23.9804 H   0  0  0  0  0  0
    4.5770    8.6690  -19.3016 H   0  0  0  0  0  0
    3.8370    9.6191  -20.5800 H   0  0  0  0  0  0
    4.4148    7.7850  -23.0029 H   0  0  0  0  0  0
    2.7508    8.3012  -22.6061 H   0  0  0  0  0  0
    6.7009    7.6886  -19.5446 H   0  0  0  0  0  0
    9.0067    7.9772  -20.2952 H   0  0  0  0  0  0
    9.5103    9.5080  -22.1451 H   0  0  0  0  0  0
    5.4948   11.2618  -23.5777 H   0  0  0  0  0  0
    4.3382    9.9352  -23.2219 H   0  0  0  0  0  0
    4.5141   11.3049  -22.0741 H   0  0  0  0  0  0
  1  2  2  0  0  0
  1  3  1  0  0  0
  1 34  1  0  0  0
  2  6  1  0  0  0
  2 35  1  0  0  0
  3  5  2  0  0  0
  3 27  1  0  0  0
  4  5  1  0  0  0
  4  6  2  0  0  0
  4 18  1  0  0  0
  5 24  1  0  0  0
  6 10  1  0  0  0
  7 10  2  0  0  0
  7 23  1  0  0  0
  7 33  1  0  0  0
  8 21  1  0  0  0
  8 22  1  0  0  0
  8 36  1  0  0  0
  8 37  1  0  0  0
  9 21  1  0  0  0
  9 31  1  0  0  0
  9 38  1  0  0  0
  9 39  1  0  0  0
 10 40  1  0  0  0
 11 12  1  0  0  0
 11 14  2  0  0  0
 11 15  1  0  0  0
 12 17  1  0  0  0
 12 28  2  0  0  0
 13 28  1  0  0  0
 13 29  2  0  0  0
 13 56  1  0  0  0
 14 29  1  0  0  0
 14 31  1  0  0  0
 15 30  2  0  0  0
 15 41  1  0  0  0
 16 17  2  0  0  0
 16 18  1  0  0  0
 16 30  1  0  0  0
 17 26  1  0  0  0
 18 23  2  0  0  0
 19 20  1  0  0  0
 19 31  1  0  0  0
 19 42  1  0  0  0
 19 43  1  0  0  0
 20 22  1  0  0  0
 20 32  1  0  0  0
 20 44  1  0  0  0
 21 32  1  0  0  0
 21 45  1  0  0  0
 22 46  1  0  0  0
 22 47  1  0  0  0
 23 48  1  0  0  0
 24 25  3  0  0  0
 25 49  1  0  0  0
 32 50  1  0  0  0
 33 51  1  0  0  0
 52 54  1  0  0  0
 52 56  1  0  0  0
 52 63  1  0  0  0
 52 64  1  0  0  0
 53 58  1  0  0  0
 53 65  1  0  0  0
 53 66  1  0  0  0
 54 55  1  0  0  0
 54 67  1  0  0  0
 54 68  1  0  0  0
 55 57  2  0  0  0
 55 59  1  0  0  0
 56 69  1  0  0  0
 56 70  1  0  0  0
 57 58  1  0  0  0
 57 62  1  0  0  0
 58 61  2  0  0  0
 59 60  2  0  0  0
 59 71  1  0  0  0
 60 61  1  0  0  0
 60 72  1  0  0  0
 61 73  1  0  0  0
 62 74  1  0  0  0
 62 75  1  0  0  0
 62 76  1  0  0  0
M  CHG  1  52   1
M  END
> <s_m_entry_id>
531

> <s_m_entry_name>
000000373.1

> <s_m_Source_Path>
/Users/zaksoul/Documents/3r_UNI/2nd_SEMESTER/BSC/FRAG_RECON/RESULTS/2

> <s_m_Source_File>
000000373.mol2

> <i_m_Source_File_Index>
1

$$$$
No_0_391
                    3D
 Schrodinger Suite 2022-4.
 76 82  0  0  1  0            999 V2000
   -5.2290    3.5200  -21.8800 C   0  0  0  0  0  0
   -5.4810    3.6850  -23.2220 C   0  0  0  0  0  0
   -3.9890    3.3030  -21.5200 C   0  0  0  0  0  0
   -3.0720    3.4240  -23.6740 C   0  0  0  0  0  0
   -2.9240    3.2010  -22.2490 C   0  0  0  0  0  0
   -4.4180    3.6460  -24.2170 C   0  0  0  0  0  0
   -3.6330    3.6580  -26.4050 C   0  0  0  0  0  0
    6.0370    3.2360  -20.9990 C   0  0  0  0  0  0
    5.9310    3.3420  -23.5520 C   0  0  0  0  0  0
   -4.6540    3.7490  -25.5570 C   0  0  0  0  0  0
    2.1340    3.7950  -23.6280 C   0  0  0  0  0  0
    1.2820    4.8860  -23.3540 C   0  0  0  0  0  0
    3.0400    6.1350  -22.6660 C   0  0  0  0  0  0
    3.5250    4.0240  -23.2980 C   0  0  0  0  0  0
    1.6250    2.6560  -24.2810 C   0  0  0  0  0  0
   -0.5230    3.4170  -24.2100 C   0  0  0  0  0  0
   -0.0360    4.6570  -23.6200 C   0  0  0  0  0  0
   -1.9710    3.3820  -24.5840 C   0  0  0  0  0  0
    4.1880    1.5470  -22.9650 C   0  0  0  0  0  0
    5.1150    1.2290  -21.8020 C   0  0  2  0  0  0
    6.6760    2.8020  -22.3370 C   0  0  2  0  0  0
    5.0560    2.2440  -20.6480 C   0  0  0  0  0  0
   -2.2810    3.5150  -26.0190 C   0  0  0  0  0  0
   -1.5790    2.8300  -21.6270 C   0  0  0  0  0  0
   -0.5470    2.5140  -21.1030 C   0  0  0  0  0  0
   -0.9080    5.6850  -23.3010 F   0  0  0  0  0  0
   -3.7920    3.0830  -20.1320 F   0  0  0  0  0  0
    1.7220    6.0630  -22.8310 N   0  0  0  0  0  0
    3.9630    5.1920  -22.8610 N   0  0  0  0  0  0
    0.3260    2.5290  -24.6030 N   0  0  0  0  0  0
    4.4710    2.9980  -23.4490 N   0  0  0  0  0  0
    6.5260    1.3250  -22.2660 N   0  0  1  0  0  0
   -3.7870    3.6510  -27.7970 O   0  0  0  0  0  0
   -6.0422    3.5722  -21.1652 H   0  0  0  0  0  0
   -6.4955    3.8506  -23.5662 H   0  0  0  0  0  0
    5.5432    4.2104  -21.1283 H   0  0  0  0  0  0
    6.8123    3.2764  -20.2197 H   0  0  0  0  0  0
    6.3489    2.8959  -24.4665 H   0  0  0  0  0  0
    6.0471    4.4349  -23.5974 H   0  0  0  0  0  0
   -5.6637    3.9046  -25.9193 H   0  0  0  0  0  0
    2.2884    1.8400  -24.5440 H   0  0  0  0  0  0
    3.1423    1.4683  -22.6329 H   0  0  0  0  0  0
    4.3797    0.8429  -23.7881 H   0  0  0  0  0  0
    4.9111    0.2165  -21.4235 H   0  0  0  0  0  0
    7.7382    3.0857  -22.3723 H   0  0  0  0  0  0
    4.0604    2.7110  -20.6238 H   0  0  0  0  0  0
    5.3559    1.7502  -19.7119 H   0  0  0  0  0  0
   -1.5001    3.5050  -26.7708 H   0  0  0  0  0  0
    0.3615    2.2372  -20.6413 H   0  0  0  0  0  0
    7.1762    0.8534  -21.5441 H   0  0  0  0  0  0
   -2.9345    3.5787  -28.2099 H   0  0  0  0  0  0
    4.1400    7.3940  -20.8210 N   0  3  0  0  0  0
    7.4120   11.2410  -23.6900 N   0  0  0  0  0  0
    4.7920    8.6410  -20.2760 C   0  0  0  0  0  0
    6.0400    9.0520  -21.0560 C   0  0  0  0  0  0
    3.5590    7.4940  -22.2080 C   0  0  0  0  0  0
    6.0830    9.9900  -22.0750 C   0  0  0  0  0  0
    7.3060   10.2800  -22.6780 C   0  0  0  0  0  0
    7.1940    8.4040  -20.6700 C   0  0  0  0  0  0
    8.3960    8.6790  -21.2760 C   0  0  0  0  0  0
    8.4500    9.6170  -22.2730 C   0  0  0  0  0  0
    4.8380   10.7240  -22.5650 C   0  0  0  0  0  0
    3.4230    7.0880  -20.1820 H   0  0  0  0  0  0
    4.8012    6.6338  -20.7910 H   0  0  0  0  0  0
    8.3272   11.4370  -24.1201 H   0  0  0  0  0  0
    6.5752   11.7529  -24.0039 H   0  0  0  0  0  0
    5.0570    8.4830  -19.2201 H   0  0  0  0  0  0
    4.0658    9.4672  -20.2860 H   0  0  0  0  0  0
    4.3343    7.8442  -22.9053 H   0  0  0  0  0  0
    2.7328    8.2202  -22.2080 H   0  0  0  0  0  0
    7.1610    7.6653  -19.8773 H   0  0  0  0  0  0
    9.2924    8.1553  -20.9642 H   0  0  0  0  0  0
    9.4002    9.8370  -22.7461 H   0  0  0  0  0  0
    5.1151   11.4154  -23.3744 H   0  0  0  0  0  0
    4.1065    9.9935  -22.9408 H   0  0  0  0  0  0
    4.3947   11.2914  -21.7334 H   0  0  0  0  0  0
  1  2  2  0  0  0
  1  3  1  0  0  0
  1 34  1  0  0  0
  2  6  1  0  0  0
  2 35  1  0  0  0
  3  5  2  0  0  0
  3 27  1  0  0  0
  4  5  1  0  0  0
  4  6  2  0  0  0
  4 18  1  0  0  0
  5 24  1  0  0  0
  6 10  1  0  0  0
  7 10  2  0  0  0
  7 23  1  0  0  0
  7 33  1  0  0  0
  8 21  1  0  0  0
  8 22  1  0  0  0
  8 36  1  0  0  0
  8 37  1  0  0  0
  9 21  1  0  0  0
  9 31  1  0  0  0
  9 38  1  0  0  0
  9 39  1  0  0  0
 10 40  1  0  0  0
 11 12  1  0  0  0
 11 14  2  0  0  0
 11 15  1  0  0  0
 12 17  1  0  0  0
 12 28  2  0  0  0
 13 28  1  0  0  0
 13 29  2  0  0  0
 13 56  1  0  0  0
 14 29  1  0  0  0
 14 31  1  0  0  0
 15 30  2  0  0  0
 15 41  1  0  0  0
 16 17  2  0  0  0
 16 18  1  0  0  0
 16 30  1  0  0  0
 17 26  1  0  0  0
 18 23  2  0  0  0
 19 20  1  0  0  0
 19 31  1  0  0  0
 19 42  1  0  0  0
 19 43  1  0  0  0
 20 22  1  0  0  0
 20 32  1  0  0  0
 20 44  1  0  0  0
 21 32  1  0  0  0
 21 45  1  0  0  0
 22 46  1  0  0  0
 22 47  1  0  0  0
 23 48  1  0  0  0
 24 25  3  0  0  0
 25 49  1  0  0  0
 32 50  1  0  0  0
 33 51  1  0  0  0
 52 54  1  0  0  0
 52 56  1  0  0  0
 52 63  1  0  0  0
 52 64  1  0  0  0
 53 58  1  0  0  0
 53 65  1  0  0  0
 53 66  1  0  0  0
 54 55  1  0  0  0
 54 67  1  0  0  0
 54 68  1  0  0  0
 55 57  2  0  0  0
 55 59  1  0  0  0
 56 69  1  0  0  0
 56 70  1  0  0  0
 57 58  1  0  0  0
 57 62  1  0  0  0
 58 61  2  0  0  0
 59 60  2  0  0  0
 59 71  1  0  0  0
 60 61  1  0  0  0
 60 72  1  0  0  0
 61 73  1  0  0  0
 62 74  1  0  0  0
 62 75  1  0  0  0
 62 76  1  0  0  0
M  CHG  1  52   1
M  END
> <s_m_entry_id>
532

> <s_m_entry_name>
000000374.1

> <s_m_Source_Path>
/Users/zaksoul/Documents/3r_UNI/2nd_SEMESTER/BSC/FRAG_RECON/RESULTS/2

> <s_m_Source_File>
000000374.mol2

> <i_m_Source_File_Index>
1

$$$$
No_0_392
                    3D
 Schrodinger Suite 2022-4.
 72 78  0  0  1  0            999 V2000
   -5.3090    3.4180  -22.1480 C   0  0  0  0  0  0
   -5.5750    3.5670  -23.4880 C   0  0  0  0  0  0
   -4.0710    3.1730  -21.8000 C   0  0  0  0  0  0
   -3.1810    3.2320  -23.9690 C   0  0  0  0  0  0
   -3.0200    3.0300  -22.5420 C   0  0  0  0  0  0
   -4.5280    3.4820  -24.4970 C   0  0  0  0  0  0
   -3.7740    3.4360  -26.6950 C   0  0  0  0  0  0
    5.9570    2.8400  -21.4160 C   0  0  0  0  0  0
    5.8170    2.9060  -23.9680 C   0  0  0  0  0  0
   -4.7800    3.5700  -25.8360 C   0  0  0  0  0  0
    2.0330    3.4610  -24.0000 C   0  0  0  0  0  0
    1.2150    4.5800  -23.7340 C   0  0  0  0  0  0
    3.0160    5.7910  -23.0910 C   0  0  0  0  0  0
    3.4340    3.6580  -23.6930 C   0  0  0  0  0  0
    1.4840    2.3260  -24.6270 C   0  0  0  0  0  0
   -0.6410    3.1460  -24.5400 C   0  0  0  0  0  0
   -0.1120    4.3830  -23.9780 C   0  0  0  0  0  0
   -2.0950    3.1450  -24.8930 C   0  0  0  0  0  0
    4.0350    1.1690  -23.3270 C   0  0  0  0  0  0
    4.9680    0.8460  -22.1710 C   0  0  2  0  0  0
    6.5640    2.3660  -22.7540 C   0  0  2  0  0  0
    4.9530    1.8820  -21.0340 C   0  0  0  0  0  0
   -2.4210    3.2620  -26.3250 C   0  0  0  0  0  0
   -1.6760    2.6320  -21.9320 C   0  0  0  0  0  0
   -0.6460    2.2980  -21.4170 C   0  0  0  0  0  0
   -0.9510    5.4400  -23.6640 F   0  0  0  0  0  0
   -3.8600    2.9720  -20.4120 F   0  0  0  0  0  0
    1.6940    5.7530  -23.2370 N   0  0  0  0  0  0
    3.9100    4.8210  -23.2830 N   0  0  0  0  0  0
    0.1770    2.2300  -24.9290 N   0  0  0  0  0  0
    4.3500    2.6030  -23.8400 N   0  0  0  0  0  0
    6.3750    0.8950  -22.6560 N   0  0  1  0  0  0
   -3.9480    3.4090  -28.0850 O   0  0  0  0  0  0
   -6.1102    3.5054  -21.4231 H   0  0  0  0  0  0
   -6.5893    3.7546  -23.8211 H   0  0  0  0  0  0
    5.4877    3.8251  -21.5553 H   0  0  0  0  0  0
    6.7435    2.8713  -20.6476 H   0  0  0  0  0  0
    6.2095    2.4328  -24.8801 H   0  0  0  0  0  0
    5.9624    3.9944  -24.0336 H   0  0  0  0  0  0
   -5.7904    3.7468  -26.1865 H   0  0  0  0  0  0
    2.1210    1.4874  -24.8838 H   0  0  0  0  0  0
    2.9924    1.1246  -22.9791 H   0  0  0  0  0  0
    4.1944    0.4456  -24.1402 H   0  0  0  0  0  0
    4.7420   -0.1540  -21.7724 H   0  0  0  0  0  0
    7.6330    2.6194  -22.8095 H   0  0  0  0  0  0
    3.9705    2.3758  -21.0047 H   0  0  0  0  0  0
    5.2528    1.3954  -20.0941 H   0  0  0  0  0  0
   -1.6516    3.2179  -27.0873 H   0  0  0  0  0  0
    0.2607    2.0031  -20.9631 H   0  0  0  0  0  0
    7.0219    0.4170  -21.9353 H   0  0  0  0  0  0
   -3.1034    3.3070  -28.5078 H   0  0  0  0  0  0
    8.4530    8.3710  -19.7200 O   0  0  0  0  0  0
    3.2650    7.4740  -21.2270 N   0  3  0  0  0  0
    5.1510    9.1490  -21.0240 C   0  0  0  0  0  0
    3.5780    7.1430  -22.6640 C   0  0  0  0  0  0
    3.6810    8.8490  -20.7630 C   0  0  0  0  0  0
    7.4710    8.8960  -20.5030 C   0  0  0  0  0  0
    6.8120   10.2110  -22.3780 C   0  0  0  0  0  0
    6.1450    8.6320  -20.2220 C   0  0  0  0  0  0
    5.4920    9.9440  -22.0970 C   0  0  0  0  0  0
    7.8030    9.6860  -21.5850 C   0  0  0  0  0  0
    9.3006    8.6479  -20.0478 H   0  0  0  0  0  0
    3.6821    6.7798  -20.6268 H   0  0  0  0  0  0
    2.2772    7.3540  -21.0660 H   0  0  0  0  0  0
    4.6683    7.1480  -22.8099 H   0  0  0  0  0  0
    3.1738    7.9303  -23.3173 H   0  0  0  0  0  0
    3.4720    8.9510  -19.6879 H   0  0  0  0  0  0
    3.0601    9.6069  -21.2630 H   0  0  0  0  0  0
    7.0699   10.8357  -23.2256 H   0  0  0  0  0  0
    5.8870    8.0161  -19.3681 H   0  0  0  0  0  0
    4.7166   10.3642  -22.7273 H   0  0  0  0  0  0
    8.8438    9.8910  -21.8080 H   0  0  0  0  0  0
  1  2  2  0  0  0
  1  3  1  0  0  0
  1 34  1  0  0  0
  2  6  1  0  0  0
  2 35  1  0  0  0
  3  5  2  0  0  0
  3 27  1  0  0  0
  4  5  1  0  0  0
  4  6  2  0  0  0
  4 18  1  0  0  0
  5 24  1  0  0  0
  6 10  1  0  0  0
  7 10  2  0  0  0
  7 23  1  0  0  0
  7 33  1  0  0  0
  8 21  1  0  0  0
  8 22  1  0  0  0
  8 36  1  0  0  0
  8 37  1  0  0  0
  9 21  1  0  0  0
  9 31  1  0  0  0
  9 38  1  0  0  0
  9 39  1  0  0  0
 10 40  1  0  0  0
 11 12  1  0  0  0
 11 14  2  0  0  0
 11 15  1  0  0  0
 12 17  1  0  0  0
 12 28  2  0  0  0
 13 28  1  0  0  0
 13 29  2  0  0  0
 13 55  1  0  0  0
 14 29  1  0  0  0
 14 31  1  0  0  0
 15 30  2  0  0  0
 15 41  1  0  0  0
 16 17  2  0  0  0
 16 18  1  0  0  0
 16 30  1  0  0  0
 17 26  1  0  0  0
 18 23  2  0  0  0
 19 20  1  0  0  0
 19 31  1  0  0  0
 19 42  1  0  0  0
 19 43  1  0  0  0
 20 22  1  0  0  0
 20 32  1  0  0  0
 20 44  1  0  0  0
 21 32  1  0  0  0
 21 45  1  0  0  0
 22 46  1  0  0  0
 22 47  1  0  0  0
 23 48  1  0  0  0
 24 25  3  0  0  0
 25 49  1  0  0  0
 32 50  1  0  0  0
 33 51  1  0  0  0
 52 57  1  0  0  0
 52 62  1  0  0  0
 53 55  1  0  0  0
 53 56  1  0  0  0
 53 63  1  0  0  0
 53 64  1  0  0  0
 54 56  1  0  0  0
 54 59  2  0  0  0
 54 60  1  0  0  0
 55 65  1  0  0  0
 55 66  1  0  0  0
 56 67  1  0  0  0
 56 68  1  0  0  0
 57 59  1  0  0  0
 57 61  2  0  0  0
 58 60  2  0  0  0
 58 61  1  0  0  0
 58 69  1  0  0  0
 59 70  1  0  0  0
 60 71  1  0  0  0
 61 72  1  0  0  0
M  CHG  1  53   1
M  END
> <s_m_entry_id>
533

> <s_m_entry_name>
000000375.1

> <s_m_Source_Path>
/Users/zaksoul/Documents/3r_UNI/2nd_SEMESTER/BSC/FRAG_RECON/RESULTS/2

> <s_m_Source_File>
000000375.mol2

> <i_m_Source_File_Index>
1

$$$$
No_0_393
                    3D
 Schrodinger Suite 2022-4.
 72 78  0  0  1  0            999 V2000
   -5.4380    3.6830  -21.8820 C   0  0  0  0  0  0
   -5.6950    3.8640  -23.2200 C   0  0  0  0  0  0
   -4.2020    3.4310  -21.5310 C   0  0  0  0  0  0
   -3.2960    3.5460  -23.6920 C   0  0  0  0  0  0
   -3.1450    3.3090  -22.2690 C   0  0  0  0  0  0
   -4.6400    3.8060  -24.2230 C   0  0  0  0  0  0
   -3.8700    3.8160  -26.4160 C   0  0  0  0  0  0
    5.8230    3.1110  -21.0820 C   0  0  0  0  0  0
    5.7020    3.2400  -23.6330 C   0  0  0  0  0  0
   -4.8820    3.9260  -25.5610 C   0  0  0  0  0  0
    1.9170    3.7870  -23.6790 C   0  0  0  0  0  0
    1.0940    4.8970  -23.3910 C   0  0  0  0  0  0
    2.8880    6.0970  -22.7050 C   0  0  0  0  0  0
    3.3160    3.9800  -23.3570 C   0  0  0  0  0  0
    1.3760    2.6670  -24.3370 C   0  0  0  0  0  0
   -0.7520    3.4800  -24.2460 C   0  0  0  0  0  0
   -0.2300    4.7040  -23.6500 C   0  0  0  0  0  0
   -2.2030    3.4840  -24.6100 C   0  0  0  0  0  0
    3.9200    1.4840  -23.0480 C   0  0  0  0  0  0
    4.8460    1.1340  -21.8930 C   0  0  2  0  0  0
    6.4420    2.6720  -22.4270 C   0  0  2  0  0  0
    4.8200    2.1420  -20.7310 C   0  0  0  0  0  0
   -2.5190    3.6360  -26.0410 C   0  0  0  0  0  0
   -1.8040    2.9000  -21.6590 C   0  0  0  0  0  0
   -0.7770    2.5550  -21.1450 C   0  0  0  0  0  0
   -1.0740    5.7500  -23.3160 F   0  0  0  0  0  0
   -4.0010    3.1960  -20.1470 F   0  0  0  0  0  0
    1.5680    6.0590  -22.8620 N   0  0  0  0  0  0
    3.7860    5.1330  -22.9140 N   0  0  0  0  0  0
    0.0710    2.5750  -24.6510 N   0  0  0  0  0  0
    4.2350    2.9310  -23.5220 N   0  0  0  0  0  0
    6.2550    1.1990  -22.3660 N   0  0  1  0  0  0
   -4.0340    3.8230  -27.8070 O   0  0  0  0  0  0
   -6.2450    3.7492  -21.1613 H   0  0  0  0  0  0
   -6.7074    4.0566  -23.5561 H   0  0  0  0  0  0
    5.3538    4.0989  -21.2001 H   0  0  0  0  0  0
    6.6043    3.1261  -20.3078 H   0  0  0  0  0  0
    6.1028    2.7908  -24.5536 H   0  0  0  0  0  0
    5.8453    4.3300  -23.6703 H   0  0  0  0  0  0
   -5.8904    4.1086  -25.9142 H   0  0  0  0  0  0
    2.0162    1.8362  -24.6109 H   0  0  0  0  0  0
    2.8749    1.4295  -22.7091 H   0  0  0  0  0  0
    4.0876    0.7815  -23.8777 H   0  0  0  0  0  0
    4.6190    0.1241  -21.5207 H   0  0  0  0  0  0
    7.5107    2.9293  -22.4684 H   0  0  0  0  0  0
    3.8360    2.6325  -20.6967 H   0  0  0  0  0  0
    5.1138    1.6331  -19.8011 H   0  0  0  0  0  0
   -1.7442    3.6119  -26.7987 H   0  0  0  0  0  0
    0.1271    2.2510  -20.6919 H   0  0  0  0  0  0
    6.8985    0.7051  -21.6530 H   0  0  0  0  0  0
   -3.1863    3.7330  -28.2264 H   0  0  0  0  0  0
    8.9710    9.0770  -21.4050 O   0  0  0  0  0  0
    3.7800    7.4500  -20.7710 N   0  3  0  0  0  0
    5.3770    9.4020  -20.9790 C   0  0  0  0  0  0
    3.4440    7.4390  -22.2410 C   0  0  0  0  0  0
    4.2210    8.7800  -20.2080 C   0  0  0  0  0  0
    7.6950    9.5250  -21.5530 C   0  0  0  0  0  0
    6.1330   10.9870  -22.6040 C   0  0  0  0  0  0
    6.6710    8.9610  -20.8160 C   0  0  0  0  0  0
    5.1160   10.4210  -21.8690 C   0  0  0  0  0  0
    7.4220   10.5380  -22.4500 C   0  0  0  0  0  0
    9.5483    9.5663  -21.9793 H   0  0  0  0  0  0
    4.4907    6.7593  -20.5871 H   0  0  0  0  0  0
    2.9888    7.1119  -20.2459 H   0  0  0  0  0  0
    4.3446    7.6832  -22.8234 H   0  0  0  0  0  0
    2.7115    8.2315  -22.4541 H   0  0  0  0  0  0
    4.5099    8.6520  -19.1544 H   0  0  0  0  0  0
    3.3682    9.4748  -20.2040 H   0  0  0  0  0  0
    5.9169   11.7865  -23.3034 H   0  0  0  0  0  0
    6.8890    8.1689  -20.1089 H   0  0  0  0  0  0
    4.1021   10.7830  -21.9960 H   0  0  0  0  0  0
    8.2243   10.9792  -23.0302 H   0  0  0  0  0  0
  1  2  2  0  0  0
  1  3  1  0  0  0
  1 34  1  0  0  0
  2  6  1  0  0  0
  2 35  1  0  0  0
  3  5  2  0  0  0
  3 27  1  0  0  0
  4  5  1  0  0  0
  4  6  2  0  0  0
  4 18  1  0  0  0
  5 24  1  0  0  0
  6 10  1  0  0  0
  7 10  2  0  0  0
  7 23  1  0  0  0
  7 33  1  0  0  0
  8 21  1  0  0  0
  8 22  1  0  0  0
  8 36  1  0  0  0
  8 37  1  0  0  0
  9 21  1  0  0  0
  9 31  1  0  0  0
  9 38  1  0  0  0
  9 39  1  0  0  0
 10 40  1  0  0  0
 11 12  1  0  0  0
 11 14  2  0  0  0
 11 15  1  0  0  0
 12 17  1  0  0  0
 12 28  2  0  0  0
 13 28  1  0  0  0
 13 29  2  0  0  0
 13 55  1  0  0  0
 14 29  1  0  0  0
 14 31  1  0  0  0
 15 30  2  0  0  0
 15 41  1  0  0  0
 16 17  2  0  0  0
 16 18  1  0  0  0
 16 30  1  0  0  0
 17 26  1  0  0  0
 18 23  2  0  0  0
 19 20  1  0  0  0
 19 31  1  0  0  0
 19 42  1  0  0  0
 19 43  1  0  0  0
 20 22  1  0  0  0
 20 32  1  0  0  0
 20 44  1  0  0  0
 21 32  1  0  0  0
 21 45  1  0  0  0
 22 46  1  0  0  0
 22 47  1  0  0  0
 23 48  1  0  0  0
 24 25  3  0  0  0
 25 49  1  0  0  0
 32 50  1  0  0  0
 33 51  1  0  0  0
 52 57  1  0  0  0
 52 62  1  0  0  0
 53 55  1  0  0  0
 53 56  1  0  0  0
 53 63  1  0  0  0
 53 64  1  0  0  0
 54 56  1  0  0  0
 54 59  2  0  0  0
 54 60  1  0  0  0
 55 65  1  0  0  0
 55 66  1  0  0  0
 56 67  1  0  0  0
 56 68  1  0  0  0
 57 59  1  0  0  0
 57 61  2  0  0  0
 58 60  2  0  0  0
 58 61  1  0  0  0
 58 69  1  0  0  0
 59 70  1  0  0  0
 60 71  1  0  0  0
 61 72  1  0  0  0
M  CHG  1  53   1
M  END
> <s_m_entry_id>
534

> <s_m_entry_name>
000000376.1

> <s_m_Source_Path>
/Users/zaksoul/Documents/3r_UNI/2nd_SEMESTER/BSC/FRAG_RECON/RESULTS/2

> <s_m_Source_File>
000000376.mol2

> <i_m_Source_File_Index>
1

$$$$
No_0_398
                    3D
 Schrodinger Suite 2022-4.
 71 77  0  0  1  0            999 V2000
   -5.1810    3.6090  -21.8530 C   0  0  0  0  0  0
   -5.4520    3.8050  -23.1860 C   0  0  0  0  0  0
   -3.9420    3.3510  -21.5190 C   0  0  0  0  0  0
   -3.0590    3.4860  -23.6870 C   0  0  0  0  0  0
   -2.8930    3.2340  -22.2690 C   0  0  0  0  0  0
   -4.4090    3.7540  -24.2010 C   0  0  0  0  0  0
   -3.6630    3.7850  -26.4030 C   0  0  0  0  0  0
    6.0870    3.0010  -21.1820 C   0  0  0  0  0  0
    5.9380    3.1560  -23.7310 C   0  0  0  0  0  0
   -4.6650    3.8890  -25.5350 C   0  0  0  0  0  0
    2.1540    3.7130  -23.7290 C   0  0  0  0  0  0
    1.3370    4.8230  -23.4210 C   0  0  0  0  0  0
    3.1410    6.0110  -22.7430 C   0  0  0  0  0  0
    3.5570    3.8990  -23.4210 C   0  0  0  0  0  0
    1.6030    2.6010  -24.3930 C   0  0  0  0  0  0
   -0.5220    3.4190  -24.2700 C   0  0  0  0  0  0
    0.0100    4.6350  -23.6670 C   0  0  0  0  0  0
   -1.9770    3.4300  -24.6180 C   0  0  0  0  0  0
    4.1570    1.3990  -23.1440 C   0  0  0  0  0  0
    5.0950    1.0350  -22.0030 C   0  0  2  0  0  0
    6.6890    2.5740  -22.5390 C   0  0  2  0  0  0
    5.0840    2.0310  -20.8310 C   0  0  0  0  0  0
   -2.3080    3.5970  -26.0440 C   0  0  0  0  0  0
   -1.5470    2.8150  -21.6780 C   0  0  0  0  0  0
   -0.5150    2.4620  -21.1780 C   0  0  0  0  0  0
   -0.8280    5.6800  -23.3140 F   0  0  0  0  0  0
   -3.7260    3.1020  -20.1390 F   0  0  0  0  0  0
    1.8200    5.9780  -22.8860 N   0  0  0  0  0  0
    4.0350    5.0470  -22.9720 N   0  0  0  0  0  0
    0.2950    2.5160  -24.6930 N   0  0  0  0  0  0
    4.4710    2.8500  -23.6070 N   0  0  0  0  0  0
    6.5000    1.1010  -22.4910 N   0  0  1  0  0  0
   -3.8410    3.8060  -27.7920 O   0  0  0  0  0  0
   -5.9796    3.6712  -21.1226 H   0  0  0  0  0  0
   -6.4675    4.0037  -23.5091 H   0  0  0  0  0  0
    5.6179    3.9906  -21.2849 H   0  0  0  0  0  0
    6.8763    3.0060  -20.4159 H   0  0  0  0  0  0
    6.3275    2.7150  -24.6604 H   0  0  0  0  0  0
    6.0833    4.2460  -23.7593 H   0  0  0  0  0  0
   -5.6765    4.0776  -25.8762 H   0  0  0  0  0  0
    2.2385    1.7718  -24.6821 H   0  0  0  0  0  0
    3.1157    1.3435  -22.7939 H   0  0  0  0  0  0
    4.3144    0.7047  -23.9826 H   0  0  0  0  0  0
    4.8700    0.0218  -21.6387 H   0  0  0  0  0  0
    7.7578    2.8293  -22.5885 H   0  0  0  0  0  0
    4.1018    2.5236  -20.7805 H   0  0  0  0  0  0
    5.3877    1.5123  -19.9097 H   0  0  0  0  0  0
   -1.5411    3.5789  -26.8099 H   0  0  0  0  0  0
    0.3934    2.1519  -20.7378 H   0  0  0  0  0  0
    7.1492    0.5983  -21.7894 H   0  0  0  0  0  0
   -2.9984    3.7179  -28.2217 H   0  0  0  0  0  0
    5.9850    9.2430  -23.4040 Cl  0  0  0  0  0  0
    4.7330    7.1740  -21.1840 N   0  3  0  0  0  0
    5.2240    8.4620  -20.5650 C   0  0  0  0  0  0
    3.7060    7.3460  -22.2710 C   0  0  0  0  0  0
    7.1220    9.1280  -22.0950 C   0  0  0  0  0  0
    7.6090    8.6580  -19.8140 C   0  0  0  0  0  0
    6.6930    8.7530  -20.8390 C   0  0  0  0  0  0
    9.3590    9.3190  -21.2920 C   0  0  0  0  0  0
    8.4510    9.4120  -22.3200 C   0  0  0  0  0  0
    8.9370    8.9400  -20.0380 C   0  0  0  0  0  0
    4.3580    6.5790  -20.4620 H   0  0  0  0  0  0
    5.5187    6.6572  -21.5469 H   0  0  0  0  0  0
    5.0539    8.4330  -19.4786 H   0  0  0  0  0  0
    4.6118    9.2993  -20.9311 H   0  0  0  0  0  0
    4.1600    7.8731  -23.1231 H   0  0  0  0  0  0
    2.8859    7.9801  -21.9030 H   0  0  0  0  0  0
    7.2848    8.3599  -18.8235 H   0  0  0  0  0  0
   10.4043    9.5441  -21.4701 H   0  0  0  0  0  0
    8.7811    9.7081  -23.3092 H   0  0  0  0  0  0
    9.6516    8.8640  -19.2264 H   0  0  0  0  0  0
  1  2  2  0  0  0
  1  3  1  0  0  0
  1 34  1  0  0  0
  2  6  1  0  0  0
  2 35  1  0  0  0
  3  5  2  0  0  0
  3 27  1  0  0  0
  4  5  1  0  0  0
  4  6  2  0  0  0
  4 18  1  0  0  0
  5 24  1  0  0  0
  6 10  1  0  0  0
  7 10  2  0  0  0
  7 23  1  0  0  0
  7 33  1  0  0  0
  8 21  1  0  0  0
  8 22  1  0  0  0
  8 36  1  0  0  0
  8 37  1  0  0  0
  9 21  1  0  0  0
  9 31  1  0  0  0
  9 38  1  0  0  0
  9 39  1  0  0  0
 10 40  1  0  0  0
 11 12  1  0  0  0
 11 14  2  0  0  0
 11 15  1  0  0  0
 12 17  1  0  0  0
 12 28  2  0  0  0
 13 28  1  0  0  0
 13 29  2  0  0  0
 13 55  1  0  0  0
 14 29  1  0  0  0
 14 31  1  0  0  0
 15 30  2  0  0  0
 15 41  1  0  0  0
 16 17  2  0  0  0
 16 18  1  0  0  0
 16 30  1  0  0  0
 17 26  1  0  0  0
 18 23  2  0  0  0
 19 20  1  0  0  0
 19 31  1  0  0  0
 19 42  1  0  0  0
 19 43  1  0  0  0
 20 22  1  0  0  0
 20 32  1  0  0  0
 20 44  1  0  0  0
 21 32  1  0  0  0
 21 45  1  0  0  0
 22 46  1  0  0  0
 22 47  1  0  0  0
 23 48  1  0  0  0
 24 25  3  0  0  0
 25 49  1  0  0  0
 32 50  1  0  0  0
 33 51  1  0  0  0
 52 56  1  0  0  0
 53 54  1  0  0  0
 53 55  1  0  0  0
 53 62  1  0  0  0
 53 63  1  0  0  0
 54 58  1  0  0  0
 54 64  1  0  0  0
 54 65  1  0  0  0
 55 66  1  0  0  0
 55 67  1  0  0  0
 56 58  2  0  0  0
 56 60  1  0  0  0
 57 58  1  0  0  0
 57 61  2  0  0  0
 57 68  1  0  0  0
 59 60  2  0  0  0
 59 61  1  0  0  0
 59 69  1  0  0  0
 60 70  1  0  0  0
 61 71  1  0  0  0
M  CHG  1  53   1
M  END
> <s_m_entry_id>
535

> <s_m_entry_name>
000000377.1

> <s_m_Source_Path>
/Users/zaksoul/Documents/3r_UNI/2nd_SEMESTER/BSC/FRAG_RECON/RESULTS/2

> <s_m_Source_File>
000000377.mol2

> <i_m_Source_File_Index>
1

$$$$
No_0_399
                    3D
 Schrodinger Suite 2022-4.
 71 77  0  0  1  0            999 V2000
   -5.0980    3.5100  -21.7030 C   0  0  0  0  0  0
   -5.3820    3.7180  -23.0320 C   0  0  0  0  0  0
   -3.8520    3.2730  -21.3790 C   0  0  0  0  0  0
   -2.9860    3.4540  -23.5520 C   0  0  0  0  0  0
   -2.8060    3.1870  -22.1380 C   0  0  0  0  0  0
   -4.3440    3.7020  -24.0540 C   0  0  0  0  0  0
   -3.6130    3.7760  -26.2590 C   0  0  0  0  0  0
    6.1840    3.1220  -21.1100 C   0  0  0  0  0  0
    6.0150    3.3070  -23.6550 C   0  0  0  0  0  0
   -4.6120    3.8490  -25.3840 C   0  0  0  0  0  0
    2.2220    3.7880  -23.6230 C   0  0  0  0  0  0
    1.3840    4.8760  -23.2950 C   0  0  0  0  0  0
    3.1690    6.0910  -22.6120 C   0  0  0  0  0  0
    3.6220    3.9980  -23.3210 C   0  0  0  0  0  0
    1.6880    2.6730  -24.2980 C   0  0  0  0  0  0
   -0.4520    3.4460  -24.1510 C   0  0  0  0  0  0
    0.0600    4.6650  -23.5350 C   0  0  0  0  0  0
   -1.9090    3.4330  -24.4890 C   0  0  0  0  0  0
    4.2740    1.5060  -23.0800 C   0  0  0  0  0  0
    5.2270    1.1470  -21.9500 C   0  0  2  0  0  0
    6.7860    2.7250  -22.4750 C   0  0  2  0  0  0
    5.2040    2.1270  -20.7650 C   0  0  0  0  0  0
   -2.2520    3.6120  -25.9110 C   0  0  0  0  0  0
   -1.4480    2.7870  -21.5610 C   0  0  0  0  0  0
   -0.4060    2.4490  -21.0720 C   0  0  0  0  0  0
   -0.7970    5.6880  -23.1630 F   0  0  0  0  0  0
   -3.6220    3.0100  -20.0040 F   0  0  0  0  0  0
    1.8470    6.0340  -22.7470 N   0  0  0  0  0  0
    4.0790    5.1490  -22.8590 N   0  0  0  0  0  0
    0.3800    2.5660  -24.5910 N   0  0  0  0  0  0
    4.5560    2.9700  -23.5260 N   0  0  0  0  0  0
    6.6270    1.2480  -22.4460 N   0  0  1  0  0  0
   -3.8010    3.8130  -27.6460 O   0  0  0  0  0  0
   -5.8926    3.5461  -20.9666 H   0  0  0  0  0  0
   -6.4032    3.9008  -23.3463 H   0  0  0  0  0  0
    5.6944    4.1032  -21.1968 H   0  0  0  0  0  0
    6.9783    3.1321  -20.3490 H   0  0  0  0  0  0
    6.4075    2.8862  -24.5925 H   0  0  0  0  0  0
    6.1391    4.3999  -23.6691 H   0  0  0  0  0  0
   -5.6292    4.0217  -25.7164 H   0  0  0  0  0  0
    2.3385    1.8609  -24.6021 H   0  0  0  0  0  0
    3.2361    1.4252  -22.7246 H   0  0  0  0  0  0
    4.4396    0.8265  -23.9291 H   0  0  0  0  0  0
    5.0242    0.1248  -21.5978 H   0  0  0  0  0  0
    7.8491    3.0024  -22.5285 H   0  0  0  0  0  0
    4.2124    2.5991  -20.7025 H   0  0  0  0  0  0
    5.5230    1.6021  -19.8525 H   0  0  0  0  0  0
   -1.4900    3.6200  -26.6820 H   0  0  0  0  0  0
    0.5112    2.1509  -20.6419 H   0  0  0  0  0  0
    7.2901    0.7486  -21.7551 H   0  0  0  0  0  0
   -2.9597    3.7477  -28.0825 H   0  0  0  0  0  0
    5.4750    9.6740  -23.5140 Cl  0  0  0  0  0  0
    4.9770    7.2750  -21.3290 N   0  3  0  0  0  0
    5.4850    8.5460  -20.6900 C   0  0  0  0  0  0
    3.7090    7.4320  -22.1260 C   0  0  0  0  0  0
    6.8970    9.5650  -22.5210 C   0  0  0  0  0  0
    7.9530    8.9410  -20.4830 C   0  0  0  0  0  0
    6.8150    9.0270  -21.2540 C   0  0  0  0  0  0
    9.2350    9.9330  -22.2310 C   0  0  0  0  0  0
    8.1030   10.0190  -23.0070 C   0  0  0  0  0  0
    9.1600    9.3920  -20.9680 C   0  0  0  0  0  0
    4.8390    6.5750  -20.6170 H   0  0  0  0  0  0
    5.6957    6.8871  -21.9198 H   0  0  0  0  0  0
    5.5830    8.3950  -19.6048 H   0  0  0  0  0  0
    4.7317    9.3393  -20.8050 H   0  0  0  0  0  0
    3.8991    8.0853  -22.9904 H   0  0  0  0  0  0
    2.9480    7.9310  -21.5080 H   0  0  0  0  0  0
    7.9020    8.5152  -19.4874 H   0  0  0  0  0  0
   10.1835   10.2918  -22.6138 H   0  0  0  0  0  0
    8.1610   10.4430  -24.0030 H   0  0  0  0  0  0
   10.0511    9.3210  -20.3549 H   0  0  0  0  0  0
  1  2  2  0  0  0
  1  3  1  0  0  0
  1 34  1  0  0  0
  2  6  1  0  0  0
  2 35  1  0  0  0
  3  5  2  0  0  0
  3 27  1  0  0  0
  4  5  1  0  0  0
  4  6  2  0  0  0
  4 18  1  0  0  0
  5 24  1  0  0  0
  6 10  1  0  0  0
  7 10  2  0  0  0
  7 23  1  0  0  0
  7 33  1  0  0  0
  8 21  1  0  0  0
  8 22  1  0  0  0
  8 36  1  0  0  0
  8 37  1  0  0  0
  9 21  1  0  0  0
  9 31  1  0  0  0
  9 38  1  0  0  0
  9 39  1  0  0  0
 10 40  1  0  0  0
 11 12  1  0  0  0
 11 14  2  0  0  0
 11 15  1  0  0  0
 12 17  1  0  0  0
 12 28  2  0  0  0
 13 28  1  0  0  0
 13 29  2  0  0  0
 13 55  1  0  0  0
 14 29  1  0  0  0
 14 31  1  0  0  0
 15 30  2  0  0  0
 15 41  1  0  0  0
 16 17  2  0  0  0
 16 18  1  0  0  0
 16 30  1  0  0  0
 17 26  1  0  0  0
 18 23  2  0  0  0
 19 20  1  0  0  0
 19 31  1  0  0  0
 19 42  1  0  0  0
 19 43  1  0  0  0
 20 22  1  0  0  0
 20 32  1  0  0  0
 20 44  1  0  0  0
 21 32  1  0  0  0
 21 45  1  0  0  0
 22 46  1  0  0  0
 22 47  1  0  0  0
 23 48  1  0  0  0
 24 25  3  0  0  0
 25 49  1  0  0  0
 32 50  1  0  0  0
 33 51  1  0  0  0
 52 56  1  0  0  0
 53 54  1  0  0  0
 53 55  1  0  0  0
 53 62  1  0  0  0
 53 63  1  0  0  0
 54 58  1  0  0  0
 54 64  1  0  0  0
 54 65  1  0  0  0
 55 66  1  0  0  0
 55 67  1  0  0  0
 56 58  2  0  0  0
 56 60  1  0  0  0
 57 58  1  0  0  0
 57 61  2  0  0  0
 57 68  1  0  0  0
 59 60  2  0  0  0
 59 61  1  0  0  0
 59 69  1  0  0  0
 60 70  1  0  0  0
 61 71  1  0  0  0
M  CHG  1  53   1
M  END
> <s_m_entry_id>
536

> <s_m_entry_name>
000000378.1

> <s_m_Source_Path>
/Users/zaksoul/Documents/3r_UNI/2nd_SEMESTER/BSC/FRAG_RECON/RESULTS/2

> <s_m_Source_File>
000000378.mol2

> <i_m_Source_File_Index>
1

$$$$
No_0_400
                    3D
 Schrodinger Suite 2022-4.
 71 77  0  0  1  0            999 V2000
   -5.2650    3.6510  -21.9160 C   0  0  0  0  0  0
   -5.5350    3.8470  -23.2500 C   0  0  0  0  0  0
   -4.0260    3.3920  -21.5820 C   0  0  0  0  0  0
   -3.1430    3.5270  -23.7500 C   0  0  0  0  0  0
   -2.9770    3.2750  -22.3320 C   0  0  0  0  0  0
   -4.4910    3.7960  -24.2640 C   0  0  0  0  0  0
   -3.7450    3.8260  -26.4660 C   0  0  0  0  0  0
    6.0030    3.0360  -21.2430 C   0  0  0  0  0  0
    5.8540    3.1920  -23.7910 C   0  0  0  0  0  0
   -4.7480    3.9310  -25.5980 C   0  0  0  0  0  0
    2.0710    3.7510  -23.7900 C   0  0  0  0  0  0
    1.2550    4.8610  -23.4830 C   0  0  0  0  0  0
    3.0590    6.0480  -22.8040 C   0  0  0  0  0  0
    3.4730    3.9360  -23.4820 C   0  0  0  0  0  0
    1.5190    2.6390  -24.4550 C   0  0  0  0  0  0
   -0.6050    3.4580  -24.3320 C   0  0  0  0  0  0
   -0.0730    4.6740  -23.7290 C   0  0  0  0  0  0
   -2.0600    3.4710  -24.6800 C   0  0  0  0  0  0
    4.0730    1.4350  -23.2050 C   0  0  0  0  0  0
    5.0100    1.0710  -22.0640 C   0  0  2  0  0  0
    6.6050    2.6090  -22.5990 C   0  0  2  0  0  0
    5.0000    2.0670  -20.8920 C   0  0  0  0  0  0
   -2.3900    3.6380  -26.1060 C   0  0  0  0  0  0
   -1.6320    2.8540  -21.7400 C   0  0  0  0  0  0
   -0.6000    2.5010  -21.2400 C   0  0  0  0  0  0
   -0.9100    5.7200  -23.3760 F   0  0  0  0  0  0
   -3.8100    3.1420  -20.2020 F   0  0  0  0  0  0
    1.7380    6.0160  -22.9470 N   0  0  0  0  0  0
    3.9520    5.0830  -23.0320 N   0  0  0  0  0  0
    0.2110    2.5550  -24.7550 N   0  0  0  0  0  0
    4.3880    2.8870  -23.6680 N   0  0  0  0  0  0
    6.4150    1.1360  -22.5510 N   0  0  1  0  0  0
   -3.9230    3.8480  -27.8540 O   0  0  0  0  0  0
   -6.0636    3.7133  -21.1857 H   0  0  0  0  0  0
   -6.5503    4.0466  -23.5731 H   0  0  0  0  0  0
    5.5347    4.0260  -21.3459 H   0  0  0  0  0  0
    6.7923    3.0410  -20.4769 H   0  0  0  0  0  0
    6.2435    2.7510  -24.7204 H   0  0  0  0  0  0
    6.0003    4.2819  -23.8193 H   0  0  0  0  0  0
   -5.7592    4.1208  -25.9394 H   0  0  0  0  0  0
    2.1545    1.8098  -24.7441 H   0  0  0  0  0  0
    3.0315    1.3806  -22.8552 H   0  0  0  0  0  0
    4.2294    0.7406  -24.0437 H   0  0  0  0  0  0
    4.7840    0.0580  -21.6998 H   0  0  0  0  0  0
    7.6741    2.8632  -22.6484 H   0  0  0  0  0  0
    4.0182    2.5604  -20.8415 H   0  0  0  0  0  0
    5.3017    1.5473  -19.9707 H   0  0  0  0  0  0
   -1.6241    3.6199  -26.8729 H   0  0  0  0  0  0
    0.3081    2.1900  -20.7999 H   0  0  0  0  0  0
    7.0639    0.6325  -21.8497 H   0  0  0  0  0  0
   -3.0804    3.7599  -28.2837 H   0  0  0  0  0  0
    4.9780   10.5130  -22.4090 F   0  0  0  0  0  0
    3.6300    7.4860  -20.8290 N   0  3  0  0  0  0
    4.2020    8.7690  -20.2770 C   0  0  0  0  0  0
    3.6250    7.3830  -22.3310 C   0  0  0  0  0  0
    5.9480    9.8470  -21.7630 C   0  0  0  0  0  0
    6.6650    8.3410  -20.0650 C   0  0  0  0  0  0
    5.6450    9.0010  -20.7130 C   0  0  0  0  0  0
    8.2690    9.3470  -21.5120 C   0  0  0  0  0  0
    7.9720    8.5140  -20.4590 C   0  0  0  0  0  0
    7.2570   10.0130  -22.1630 C   0  0  0  0  0  0
    2.6912    7.3630  -20.4831 H   0  0  0  0  0  0
    4.1340    6.7030  -20.4430 H   0  0  0  0  0  0
    4.1510    8.7490  -19.1784 H   0  0  0  0  0  0
    3.5808    9.6162  -20.6031 H   0  0  0  0  0  0
    4.6510    7.5000  -22.7100 H   0  0  0  0  0  0
    3.0260    8.2040  -22.7520 H   0  0  0  0  0  0
    6.4420    7.6780  -19.2369 H   0  0  0  0  0  0
    9.2976    9.4780  -21.8279 H   0  0  0  0  0  0
    8.7687    7.9942  -19.9392 H   0  0  0  0  0  0
    7.4911   10.6704  -22.9925 H   0  0  0  0  0  0
  1  2  2  0  0  0
  1  3  1  0  0  0
  1 34  1  0  0  0
  2  6  1  0  0  0
  2 35  1  0  0  0
  3  5  2  0  0  0
  3 27  1  0  0  0
  4  5  1  0  0  0
  4  6  2  0  0  0
  4 18  1  0  0  0
  5 24  1  0  0  0
  6 10  1  0  0  0
  7 10  2  0  0  0
  7 23  1  0  0  0
  7 33  1  0  0  0
  8 21  1  0  0  0
  8 22  1  0  0  0
  8 36  1  0  0  0
  8 37  1  0  0  0
  9 21  1  0  0  0
  9 31  1  0  0  0
  9 38  1  0  0  0
  9 39  1  0  0  0
 10 40  1  0  0  0
 11 12  1  0  0  0
 11 14  2  0  0  0
 11 15  1  0  0  0
 12 17  1  0  0  0
 12 28  2  0  0  0
 13 28  1  0  0  0
 13 29  2  0  0  0
 13 55  1  0  0  0
 14 29  1  0  0  0
 14 31  1  0  0  0
 15 30  2  0  0  0
 15 41  1  0  0  0
 16 17  2  0  0  0
 16 18  1  0  0  0
 16 30  1  0  0  0
 17 26  1  0  0  0
 18 23  2  0  0  0
 19 20  1  0  0  0
 19 31  1  0  0  0
 19 42  1  0  0  0
 19 43  1  0  0  0
 20 22  1  0  0  0
 20 32  1  0  0  0
 20 44  1  0  0  0
 21 32  1  0  0  0
 21 45  1  0  0  0
 22 46  1  0  0  0
 22 47  1  0  0  0
 23 48  1  0  0  0
 24 25  3  0  0  0
 25 49  1  0  0  0
 32 50  1  0  0  0
 33 51  1  0  0  0
 52 56  1  0  0  0
 53 54  1  0  0  0
 53 55  1  0  0  0
 53 62  1  0  0  0
 53 63  1  0  0  0
 54 58  1  0  0  0
 54 64  1  0  0  0
 54 65  1  0  0  0
 55 66  1  0  0  0
 55 67  1  0  0  0
 56 58  2  0  0  0
 56 61  1  0  0  0
 57 58  1  0  0  0
 57 60  2  0  0  0
 57 68  1  0  0  0
 59 60  1  0  0  0
 59 61  2  0  0  0
 59 69  1  0  0  0
 60 70  1  0  0  0
 61 71  1  0  0  0
M  CHG  1  53   1
M  END
> <s_m_entry_id>
537

> <s_m_entry_name>
000000379.1

> <s_m_Source_Path>
/Users/zaksoul/Documents/3r_UNI/2nd_SEMESTER/BSC/FRAG_RECON/RESULTS/2

> <s_m_Source_File>
000000379.mol2

> <i_m_Source_File_Index>
1

$$$$
No_0_401
                    3D
 Schrodinger Suite 2022-4.
 73 79  0  0  1  0            999 V2000
   -5.3130    3.7970  -21.9950 C   0  0  0  0  0  0
   -5.5680    3.9880  -23.3320 C   0  0  0  0  0  0
   -4.0830    3.5200  -21.6460 C   0  0  0  0  0  0
   -3.1760    3.6250  -23.8060 C   0  0  0  0  0  0
   -3.0280    3.3800  -22.3840 C   0  0  0  0  0  0
   -4.5140    3.9120  -24.3360 C   0  0  0  0  0  0
   -3.7460    3.9150  -26.5300 C   0  0  0  0  0  0
    5.9350    3.0030  -21.2020 C   0  0  0  0  0  0
    5.8150    3.1430  -23.7530 C   0  0  0  0  0  0
   -4.7550    4.0420  -25.6730 C   0  0  0  0  0  0
    2.0420    3.7640  -23.7950 C   0  0  0  0  0  0
    1.2400    4.8890  -23.5030 C   0  0  0  0  0  0
    3.0570    6.0510  -22.8140 C   0  0  0  0  0  0
    3.4430    3.9280  -23.4730 C   0  0  0  0  0  0
    1.4780    2.6570  -24.4570 C   0  0  0  0  0  0
   -0.6340    3.5110  -24.3610 C   0  0  0  0  0  0
   -0.0870    4.7220  -23.7610 C   0  0  0  0  0  0
   -2.0840    3.5450  -24.7250 C   0  0  0  0  0  0
    3.9990    1.4200  -23.1730 C   0  0  0  0  0  0
    4.9180    1.0480  -22.0200 C   0  0  2  0  0  0
    6.5440    2.5570  -22.5490 C   0  0  2  0  0  0
    4.9120    2.0520  -20.8550 C   0  0  0  0  0  0
   -2.3980    3.7080  -26.1550 C   0  0  0  0  0  0
   -1.6960    2.9420  -21.7770 C   0  0  0  0  0  0
   -0.6750    2.5750  -21.2640 C   0  0  0  0  0  0
   -0.9110    5.7840  -23.4240 F   0  0  0  0  0  0
   -3.8850    3.2760  -20.2620 F   0  0  0  0  0  0
    1.7370    6.0400  -22.9700 N   0  0  0  0  0  0
    3.9360    5.0710  -23.0270 N   0  0  0  0  0  0
    0.1720    2.5920  -24.7700 N   0  0  0  0  0  0
    4.3420    2.8630  -23.6430 N   0  0  0  0  0  0
    6.3290    1.0870  -22.4940 N   0  0  1  0  0  0
   -3.9090    3.9310  -27.9200 O   0  0  0  0  0  0
   -6.1184    3.8762  -21.2738 H   0  0  0  0  0  0
   -6.5763    4.2019  -23.6674 H   0  0  0  0  0  0
    5.4841    3.9997  -21.3170 H   0  0  0  0  0  0
    6.7163    3.0000  -20.4277 H   0  0  0  0  0  0
    6.2065    2.6889  -24.6753 H   0  0  0  0  0  0
    5.9795    4.2301  -23.7873 H   0  0  0  0  0  0
   -5.7594    4.2457  -26.0262 H   0  0  0  0  0  0
    2.1021    1.8151  -24.7340 H   0  0  0  0  0  0
    2.9531    1.3847  -22.8341 H   0  0  0  0  0  0
    4.1524    0.7176  -24.0056 H   0  0  0  0  0  0
    4.6717    0.0416  -21.6505 H   0  0  0  0  0  0
    7.6176    2.7931  -22.5904 H   0  0  0  0  0  0
    3.9379    2.5618  -20.8187 H   0  0  0  0  0  0
    5.1965    1.5345  -19.9269 H   0  0  0  0  0  0
   -1.6244    3.6719  -26.9135 H   0  0  0  0  0  0
    0.2233    2.2529  -20.8118 H   0  0  0  0  0  0
    6.9619    0.5781  -21.7820 H   0  0  0  0  0  0
   -3.0638    3.8251  -28.3406 H   0  0  0  0  0  0
    4.2970    7.2530  -20.9960 N   0  3  0  0  0  0
    7.6350    7.7410  -20.0810 N   0  0  0  0  0  0
    4.8030    8.5430  -20.4030 C   0  0  0  0  0  0
    3.6400    7.3800  -22.3450 C   0  0  0  0  0  0
    5.9760    9.1390  -21.1740 C   0  0  0  0  0  0
    7.2970    8.7440  -20.9940 C   0  0  0  0  0  0
    5.6860   10.1250  -22.0890 C   0  0  0  0  0  0
    8.2970    9.3560  -21.7310 C   0  0  0  0  0  0
    7.9930   10.3380  -22.6410 C   0  0  0  0  0  0
    6.6850   10.7230  -22.8230 C   0  0  0  0  0  0
    3.6552    6.8191  -20.3512 H   0  0  0  0  0  0
    5.0567    6.5933  -21.0570 H   0  0  0  0  0  0
    8.6198    7.4631  -19.9630 H   0  0  0  0  0  0
    6.8996    7.2797  -19.5267 H   0  0  0  0  0  0
    5.1020    8.3730  -19.3581 H   0  0  0  0  0  0
    3.9819    9.2740  -20.3650 H   0  0  0  0  0  0
    4.3774    7.7362  -23.0794 H   0  0  0  0  0  0
    2.8390    8.1320  -22.2920 H   0  0  0  0  0  0
    4.6597   10.4398  -22.2399 H   0  0  0  0  0  0
    9.3305    9.0601  -21.5921 H   0  0  0  0  0  0
    8.7833   10.8086  -23.2145 H   0  0  0  0  0  0
    6.4401   11.4957  -23.5427 H   0  0  0  0  0  0
  1  2  2  0  0  0
  1  3  1  0  0  0
  1 34  1  0  0  0
  2  6  1  0  0  0
  2 35  1  0  0  0
  3  5  2  0  0  0
  3 27  1  0  0  0
  4  5  1  0  0  0
  4  6  2  0  0  0
  4 18  1  0  0  0
  5 24  1  0  0  0
  6 10  1  0  0  0
  7 10  2  0  0  0
  7 23  1  0  0  0
  7 33  1  0  0  0
  8 21  1  0  0  0
  8 22  1  0  0  0
  8 36  1  0  0  0
  8 37  1  0  0  0
  9 21  1  0  0  0
  9 31  1  0  0  0
  9 38  1  0  0  0
  9 39  1  0  0  0
 10 40  1  0  0  0
 11 12  1  0  0  0
 11 14  2  0  0  0
 11 15  1  0  0  0
 12 17  1  0  0  0
 12 28  2  0  0  0
 13 28  1  0  0  0
 13 29  2  0  0  0
 13 55  1  0  0  0
 14 29  1  0  0  0
 14 31  1  0  0  0
 15 30  2  0  0  0
 15 41  1  0  0  0
 16 17  2  0  0  0
 16 18  1  0  0  0
 16 30  1  0  0  0
 17 26  1  0  0  0
 18 23  2  0  0  0
 19 20  1  0  0  0
 19 31  1  0  0  0
 19 42  1  0  0  0
 19 43  1  0  0  0
 20 22  1  0  0  0
 20 32  1  0  0  0
 20 44  1  0  0  0
 21 32  1  0  0  0
 21 45  1  0  0  0
 22 46  1  0  0  0
 22 47  1  0  0  0
 23 48  1  0  0  0
 24 25  3  0  0  0
 25 49  1  0  0  0
 32 50  1  0  0  0
 33 51  1  0  0  0
 52 54  1  0  0  0
 52 55  1  0  0  0
 52 62  1  0  0  0
 52 63  1  0  0  0
 53 57  1  0  0  0
 53 64  1  0  0  0
 53 65  1  0  0  0
 54 56  1  0  0  0
 54 66  1  0  0  0
 54 67  1  0  0  0
 55 68  1  0  0  0
 55 69  1  0  0  0
 56 57  2  0  0  0
 56 58  1  0  0  0
 57 59  1  0  0  0
 58 61  2  0  0  0
 58 70  1  0  0  0
 59 60  2  0  0  0
 59 71  1  0  0  0
 60 61  1  0  0  0
 60 72  1  0  0  0
 61 73  1  0  0  0
M  CHG  1  52   1
M  END
> <s_m_entry_id>
538

> <s_m_entry_name>
000000380.1

> <s_m_Source_Path>
/Users/zaksoul/Documents/3r_UNI/2nd_SEMESTER/BSC/FRAG_RECON/RESULTS/2

> <s_m_Source_File>
000000380.mol2

> <i_m_Source_File_Index>
1

$$$$
No_0_402
                    3D
 Schrodinger Suite 2022-4.
 71 77  0  0  1  0            999 V2000
   -5.1880    3.3920  -21.9100 C   0  0  0  0  0  0
   -5.4870    3.5470  -23.2430 C   0  0  0  0  0  0
   -3.9410    3.1490  -21.5940 C   0  0  0  0  0  0
   -3.1040    3.2220  -23.7830 C   0  0  0  0  0  0
   -2.9080    3.0130  -22.3620 C   0  0  0  0  0  0
   -4.4640    3.4710  -24.2770 C   0  0  0  0  0  0
   -3.7630    3.4390  -26.4930 C   0  0  0  0  0  0
    6.0940    2.8460  -21.4520 C   0  0  0  0  0  0
    5.8920    2.9250  -24.0000 C   0  0  0  0  0  0
   -4.7480    3.5650  -25.6090 C   0  0  0  0  0  0
    2.1070    3.4680  -23.9380 C   0  0  0  0  0  0
    1.2920    4.5830  -23.6460 C   0  0  0  0  0  0
    3.1040    5.7970  -23.0400 C   0  0  0  0  0  0
    3.5150    3.6680  -23.6640 C   0  0  0  0  0  0
    1.5470    2.3340  -24.5580 C   0  0  0  0  0  0
   -0.5790    3.1480  -24.4150 C   0  0  0  0  0  0
   -0.0390    4.3830  -23.8590 C   0  0  0  0  0  0
   -2.0400    3.1430  -24.7340 C   0  0  0  0  0  0
    4.1310    1.1790  -23.3250 C   0  0  0  0  0  0
    5.0940    0.8520  -22.1940 C   0  0  2  0  0  0
    6.6700    2.3810  -22.8070 C   0  0  2  0  0  0
    5.1030    1.8820  -21.0520 C   0  0  0  0  0  0
   -2.4000    3.2670  -26.1570 C   0  0  0  0  0  0
   -1.5480    2.6170  -21.7860 C   0  0  0  0  0  0
   -0.5050    2.2830  -21.2970 C   0  0  0  0  0  0
   -0.8740    5.4350  -23.5200 F   0  0  0  0  0  0
   -3.6970    2.9410  -20.2120 F   0  0  0  0  0  0
    1.7800    5.7550  -23.1550 N   0  0  0  0  0  0
    3.9970    4.8300  -23.2590 N   0  0  0  0  0  0
    0.2330    2.2360  -24.8280 N   0  0  0  0  0  0
    4.4300    2.6170  -23.8380 N   0  0  0  0  0  0
    6.4880    0.9090  -22.7120 N   0  0  1  0  0  0
   -3.9700    3.4190  -27.8780 O   0  0  0  0  0  0
   -5.9722    3.4723  -21.1660 H   0  0  0  0  0  0
   -6.5096    3.7327  -23.5511 H   0  0  0  0  0  0
    5.6185    3.8304  -21.5742 H   0  0  0  0  0  0
    6.8988    2.8763  -20.7027 H   0  0  0  0  0  0
    6.2644    2.4577  -24.9235 H   0  0  0  0  0  0
    6.0323    4.0142  -24.0636 H   0  0  0  0  0  0
   -5.7672    3.7397  -25.9343 H   0  0  0  0  0  0
    2.1803    1.4990  -24.8350 H   0  0  0  0  0  0
    3.0972    1.1295  -22.9525 H   0  0  0  0  0  0
    4.2742    0.4610  -24.1459 H   0  0  0  0  0  0
    4.8800   -0.1506  -21.7952 H   0  0  0  0  0  0
    7.7365    2.6383  -22.8867 H   0  0  0  0  0  0
    4.1200    2.3725  -20.9955 H   0  0  0  0  0  0
    5.4259    1.3917  -20.1218 H   0  0  0  0  0  0
   -1.6497    3.2288  -26.9384 H   0  0  0  0  0  0
    0.4134    1.9889  -20.8668 H   0  0  0  0  0  0
    7.1534    0.4297  -22.0092 H   0  0  0  0  0  0
   -3.1360    3.3211  -28.3222 H   0  0  0  0  0  0
    4.4960    7.0220  -21.3620 N   0  0  1  0  0  0
    7.6530    8.5630  -20.8560 N   0  0  0  0  0  0
    5.1150    8.3040  -20.8640 C   0  0  0  0  0  0
    3.6730    7.1480  -22.6190 C   0  0  0  0  0  0
    6.4550    8.6260  -21.5150 C   0  0  0  0  0  0
    6.6300    9.0110  -22.7820 C   0  0  0  0  0  0
    8.0210    9.2020  -22.9620 C   0  0  0  0  0  0
    8.5820    8.9230  -21.7860 C   0  0  0  0  0  0
    7.9070    8.2090  -19.4540 C   0  0  0  0  0  0
    5.2738    6.3042  -21.5769 H   0  0  0  0  0  0
    5.2440    8.2470  -19.7731 H   0  0  0  0  0  0
    4.4165    9.1366  -21.0341 H   0  0  0  0  0  0
    4.3000    7.5490  -23.4290 H   0  0  0  0  0  0
    2.8479    7.8551  -22.4480 H   0  0  0  0  0  0
    5.7741    9.1160  -23.4389 H   0  0  0  0  0  0
    8.4050    9.5160  -23.9259 H   0  0  0  0  0  0
    9.6321    8.9540  -21.5190 H   0  0  0  0  0  0
    8.9876    8.2580  -19.2541 H   0  0  0  0  0  0
    7.3801    8.9158  -18.7961 H   0  0  0  0  0  0
    7.5448    7.1884  -19.2609 H   0  0  0  0  0  0
  1  2  2  0  0  0
  1  3  1  0  0  0
  1 34  1  0  0  0
  2  6  1  0  0  0
  2 35  1  0  0  0
  3  5  2  0  0  0
  3 27  1  0  0  0
  4  5  1  0  0  0
  4  6  2  0  0  0
  4 18  1  0  0  0
  5 24  1  0  0  0
  6 10  1  0  0  0
  7 10  2  0  0  0
  7 23  1  0  0  0
  7 33  1  0  0  0
  8 21  1  0  0  0
  8 22  1  0  0  0
  8 36  1  0  0  0
  8 37  1  0  0  0
  9 21  1  0  0  0
  9 31  1  0  0  0
  9 38  1  0  0  0
  9 39  1  0  0  0
 10 40  1  0  0  0
 11 12  1  0  0  0
 11 14  2  0  0  0
 11 15  1  0  0  0
 12 17  1  0  0  0
 12 28  2  0  0  0
 13 28  1  0  0  0
 13 29  2  0  0  0
 13 55  1  0  0  0
 14 29  1  0  0  0
 14 31  1  0  0  0
 15 30  2  0  0  0
 15 41  1  0  0  0
 16 17  2  0  0  0
 16 18  1  0  0  0
 16 30  1  0  0  0
 17 26  1  0  0  0
 18 23  2  0  0  0
 19 20  1  0  0  0
 19 31  1  0  0  0
 19 42  1  0  0  0
 19 43  1  0  0  0
 20 22  1  0  0  0
 20 32  1  0  0  0
 20 44  1  0  0  0
 21 32  1  0  0  0
 21 45  1  0  0  0
 22 46  1  0  0  0
 22 47  1  0  0  0
 23 48  1  0  0  0
 24 25  3  0  0  0
 25 49  1  0  0  0
 32 50  1  0  0  0
 33 51  1  0  0  0
 52 54  1  0  0  0
 52 55  1  0  0  0
 52 61  1  0  0  0
 53 56  1  0  0  0
 53 59  1  0  0  0
 53 60  1  0  0  0
 54 56  1  0  0  0
 54 62  1  0  0  0
 54 63  1  0  0  0
 55 64  1  0  0  0
 55 65  1  0  0  0
 56 57  2  0  0  0
 57 58  1  0  0  0
 57 66  1  0  0  0
 58 59  2  0  0  0
 58 67  1  0  0  0
 59 68  1  0  0  0
 60 69  1  0  0  0
 60 70  1  0  0  0
 60 71  1  0  0  0
M  END
> <s_m_entry_id>
539

> <s_m_entry_name>
000000381.1

> <s_m_Source_Path>
/Users/zaksoul/Documents/3r_UNI/2nd_SEMESTER/BSC/FRAG_RECON/RESULTS/2

> <s_m_Source_File>
000000381.mol2

> <i_m_Source_File_Index>
1

$$$$
No_0_403
                    3D
 Schrodinger Suite 2022-4.
 71 77  0  0  1  0            999 V2000
   -5.2630    3.5780  -21.9430 C   0  0  0  0  0  0
   -5.5340    3.7740  -23.2770 C   0  0  0  0  0  0
   -4.0240    3.3200  -21.6090 C   0  0  0  0  0  0
   -3.1410    3.4540  -23.7780 C   0  0  0  0  0  0
   -2.9750    3.2020  -22.3590 C   0  0  0  0  0  0
   -4.4900    3.7230  -24.2920 C   0  0  0  0  0  0
   -3.7450    3.7540  -26.4930 C   0  0  0  0  0  0
    6.0050    2.9660  -21.2740 C   0  0  0  0  0  0
    5.8560    3.1220  -23.8220 C   0  0  0  0  0  0
   -4.7470    3.8580  -25.6260 C   0  0  0  0  0  0
    2.0730    3.6800  -23.8200 C   0  0  0  0  0  0
    1.2560    4.7890  -23.5120 C   0  0  0  0  0  0
    3.0600    5.9770  -22.8340 C   0  0  0  0  0  0
    3.4750    3.8660  -23.5120 C   0  0  0  0  0  0
    1.5200    2.5680  -24.4840 C   0  0  0  0  0  0
   -0.6040    3.3870  -24.3600 C   0  0  0  0  0  0
   -0.0710    4.6020  -23.7580 C   0  0  0  0  0  0
   -2.0590    3.3980  -24.7090 C   0  0  0  0  0  0
    4.0750    1.3650  -23.2350 C   0  0  0  0  0  0
    5.0120    1.0000  -22.0940 C   0  0  2  0  0  0
    6.6070    2.5390  -22.6300 C   0  0  2  0  0  0
    5.0020    1.9960  -20.9220 C   0  0  0  0  0  0
   -2.3900    3.5660  -26.1340 C   0  0  0  0  0  0
   -1.6290    2.7820  -21.7690 C   0  0  0  0  0  0
   -0.5970    2.4290  -21.2690 C   0  0  0  0  0  0
   -0.9090    5.6480  -23.4040 F   0  0  0  0  0  0
   -3.8080    3.0700  -20.2290 F   0  0  0  0  0  0
    1.7390    5.9440  -22.9760 N   0  0  0  0  0  0
    3.9530    5.0130  -23.0620 N   0  0  0  0  0  0
    0.2120    2.4830  -24.7840 N   0  0  0  0  0  0
    4.3890    2.8160  -23.6980 N   0  0  0  0  0  0
    6.4170    1.0660  -22.5820 N   0  0  1  0  0  0
   -3.9230    3.7760  -27.8820 O   0  0  0  0  0  0
   -6.0617    3.6393  -21.2126 H   0  0  0  0  0  0
   -6.5493    3.9736  -23.6001 H   0  0  0  0  0  0
    5.5367    3.9561  -21.3759 H   0  0  0  0  0  0
    6.7943    2.9710  -20.5079 H   0  0  0  0  0  0
    6.2446    2.6809  -24.7517 H   0  0  0  0  0  0
    6.0013    4.2120  -23.8503 H   0  0  0  0  0  0
   -5.7586    4.0477  -25.9662 H   0  0  0  0  0  0
    2.1561    1.7392  -24.7730 H   0  0  0  0  0  0
    3.0337    1.3095  -22.8849 H   0  0  0  0  0  0
    4.2314    0.6706  -24.0737 H   0  0  0  0  0  0
    4.7870   -0.0132  -21.7297 H   0  0  0  0  0  0
    7.6758    2.7943  -22.6805 H   0  0  0  0  0  0
    4.0202    2.4894  -20.8715 H   0  0  0  0  0  0
    5.3048    1.4772  -20.0005 H   0  0  0  0  0  0
   -1.6236    3.5479  -26.9004 H   0  0  0  0  0  0
    0.3111    2.1180  -20.8289 H   0  0  0  0  0  0
    7.0666    0.5630  -21.8810 H   0  0  0  0  0  0
   -3.0804    3.6879  -28.3117 H   0  0  0  0  0  0
    4.6510    7.1120  -21.2730 N   0  0  1  0  0  0
    7.7710    8.7970  -21.1110 N   0  0  0  0  0  0
    5.2830    8.3750  -20.7420 C   0  0  0  0  0  0
    3.6260    7.3120  -22.3610 C   0  0  0  0  0  0
    6.4790    8.8490  -21.5590 C   0  0  0  0  0  0
    6.4220    9.3720  -22.7870 C   0  0  0  0  0  0
    7.7530    9.6710  -23.1640 C   0  0  0  0  0  0
    8.5140    9.3110  -22.1320 C   0  0  0  0  0  0
    8.2720    8.3200  -19.8160 C   0  0  0  0  0  0
    5.4159    6.4731  -21.6890 H   0  0  0  0  0  0
    5.5928    8.2161  -19.6986 H   0  0  0  0  0  0
    4.5269    9.1731  -20.7040 H   0  0  0  0  0  0
    4.0899    7.8339  -23.2109 H   0  0  0  0  0  0
    2.8079    7.9421  -21.9819 H   0  0  0  0  0  0
    5.4651    9.4880  -23.2829 H   0  0  0  0  0  0
    7.9560   10.1060  -24.1359 H   0  0  0  0  0  0
    9.5913    9.3830  -22.0351 H   0  0  0  0  0  0
    9.3672    8.4190  -19.7870 H   0  0  0  0  0  0
    7.8280    8.9200  -19.0080 H   0  0  0  0  0  0
    7.9959    7.2636  -19.6829 H   0  0  0  0  0  0
  1  2  2  0  0  0
  1  3  1  0  0  0
  1 34  1  0  0  0
  2  6  1  0  0  0
  2 35  1  0  0  0
  3  5  2  0  0  0
  3 27  1  0  0  0
  4  5  1  0  0  0
  4  6  2  0  0  0
  4 18  1  0  0  0
  5 24  1  0  0  0
  6 10  1  0  0  0
  7 10  2  0  0  0
  7 23  1  0  0  0
  7 33  1  0  0  0
  8 21  1  0  0  0
  8 22  1  0  0  0
  8 36  1  0  0  0
  8 37  1  0  0  0
  9 21  1  0  0  0
  9 31  1  0  0  0
  9 38  1  0  0  0
  9 39  1  0  0  0
 10 40  1  0  0  0
 11 12  1  0  0  0
 11 14  2  0  0  0
 11 15  1  0  0  0
 12 17  1  0  0  0
 12 28  2  0  0  0
 13 28  1  0  0  0
 13 29  2  0  0  0
 13 55  1  0  0  0
 14 29  1  0  0  0
 14 31  1  0  0  0
 15 30  2  0  0  0
 15 41  1  0  0  0
 16 17  2  0  0  0
 16 18  1  0  0  0
 16 30  1  0  0  0
 17 26  1  0  0  0
 18 23  2  0  0  0
 19 20  1  0  0  0
 19 31  1  0  0  0
 19 42  1  0  0  0
 19 43  1  0  0  0
 20 22  1  0  0  0
 20 32  1  0  0  0
 20 44  1  0  0  0
 21 32  1  0  0  0
 21 45  1  0  0  0
 22 46  1  0  0  0
 22 47  1  0  0  0
 23 48  1  0  0  0
 24 25  3  0  0  0
 25 49  1  0  0  0
 32 50  1  0  0  0
 33 51  1  0  0  0
 52 54  1  0  0  0
 52 55  1  0  0  0
 52 61  1  0  0  0
 53 56  1  0  0  0
 53 59  1  0  0  0
 53 60  1  0  0  0
 54 56  1  0  0  0
 54 62  1  0  0  0
 54 63  1  0  0  0
 55 64  1  0  0  0
 55 65  1  0  0  0
 56 57  2  0  0  0
 57 58  1  0  0  0
 57 66  1  0  0  0
 58 59  2  0  0  0
 58 67  1  0  0  0
 59 68  1  0  0  0
 60 69  1  0  0  0
 60 70  1  0  0  0
 60 71  1  0  0  0
M  END
> <s_m_entry_id>
540

> <s_m_entry_name>
000000382.1

> <s_m_Source_Path>
/Users/zaksoul/Documents/3r_UNI/2nd_SEMESTER/BSC/FRAG_RECON/RESULTS/2

> <s_m_Source_File>
000000382.mol2

> <i_m_Source_File_Index>
1

$$$$
No_0_404
                    3D
 Schrodinger Suite 2022-4.
 71 77  0  0  1  0            999 V2000
   -5.3220    3.4470  -21.8740 C   0  0  0  0  0  0
   -5.5800    3.6380  -23.2110 C   0  0  0  0  0  0
   -4.0840    3.2030  -21.5260 C   0  0  0  0  0  0
   -3.1790    3.3440  -23.6850 C   0  0  0  0  0  0
   -3.0260    3.0960  -22.2640 C   0  0  0  0  0  0
   -4.5250    3.5980  -24.2140 C   0  0  0  0  0  0
   -3.7550    3.6330  -26.4070 C   0  0  0  0  0  0
    5.9440    2.9610  -21.0770 C   0  0  0  0  0  0
    5.8220    3.1110  -23.6260 C   0  0  0  0  0  0
   -4.7680    3.7280  -25.5510 C   0  0  0  0  0  0
    2.0330    3.6280  -23.6680 C   0  0  0  0  0  0
    1.2000    4.7290  -23.3710 C   0  0  0  0  0  0
    2.9840    5.9370  -22.6740 C   0  0  0  0  0  0
    3.4290    3.8290  -23.3450 C   0  0  0  0  0  0
    1.5000    2.5090  -24.3370 C   0  0  0  0  0  0
   -0.6340    3.3040  -24.2380 C   0  0  0  0  0  0
   -0.1220    4.5260  -23.6310 C   0  0  0  0  0  0
   -2.0850    3.2990  -24.6030 C   0  0  0  0  0  0
    4.0540    1.3350  -23.0570 C   0  0  0  0  0  0
    4.9820    0.9830  -21.9050 C   0  0  2  0  0  0
    6.5660    2.5390  -22.4260 C   0  0  2  0  0  0
    4.9480    1.9800  -20.7350 C   0  0  0  0  0  0
   -2.4020    3.4610  -26.0320 C   0  0  0  0  0  0
   -1.6820    2.6920  -21.6570 C   0  0  0  0  0  0
   -0.6520    2.3510  -21.1460 C   0  0  0  0  0  0
   -0.9750    5.5630  -23.2890 F   0  0  0  0  0  0
   -3.8810    2.9570  -20.1430 F   0  0  0  0  0  0
    1.6640    5.8900  -22.8320 N   0  0  0  0  0  0
    3.8900    4.9820  -22.8920 N   0  0  0  0  0  0
    0.1970    2.4090  -24.6520 N   0  0  0  0  0  0
    4.3570    2.7900  -23.5190 N   0  0  0  0  0  0
    6.3920    1.0640  -22.3780 N   0  0  1  0  0  0
   -3.9180    3.6520  -27.7980 O   0  0  0  0  0  0
   -6.1295    3.5012  -21.1529 H   0  0  0  0  0  0
   -6.5939    3.8257  -23.5453 H   0  0  0  0  0  0
    5.4658    3.9456  -21.1860 H   0  0  0  0  0  0
    6.7243    2.9751  -20.3018 H   0  0  0  0  0  0
    6.2258    2.6729  -24.5507 H   0  0  0  0  0  0
    5.9562    4.2024  -23.6542 H   0  0  0  0  0  0
   -5.7775    3.9058  -25.9036 H   0  0  0  0  0  0
    2.1481    1.6864  -24.6169 H   0  0  0  0  0  0
    3.0092    1.2694  -22.7192 H   0  0  0  0  0  0
    4.2276    0.6414  -23.8929 H   0  0  0  0  0  0
    4.7640   -0.0325  -21.5426 H   0  0  0  0  0  0
    7.6326    2.8054  -22.4643 H   0  0  0  0  0  0
    3.9601    2.4623  -20.6967 H   0  0  0  0  0  0
    5.2457    1.4653  -19.8096 H   0  0  0  0  0  0
   -1.6271    3.4500  -26.7899 H   0  0  0  0  0  0
    0.2546    2.0511  -20.6952 H   0  0  0  0  0  0
    7.0390    0.5689  -21.6690 H   0  0  0  0  0  0
   -3.0696    3.5718  -28.2178 H   0  0  0  0  0  0
    4.7820    7.0950  -21.3780 N   0  0  1  0  0  0
    7.7130    9.0690  -21.7090 N   0  0  0  0  0  0
    5.4100    8.3670  -20.8650 C   0  0  0  0  0  0
    3.5290    7.2790  -22.1980 C   0  0  0  0  0  0
    6.3540    9.0260  -21.8640 C   0  0  0  0  0  0
    5.9850    9.6400  -22.9920 C   0  0  0  0  0  0
    7.1720   10.1040  -23.6100 C   0  0  0  0  0  0
    8.1690    9.7390  -22.8050 C   0  0  0  0  0  0
    8.5240    8.5400  -20.6050 C   0  0  0  0  0  0
    5.4860    6.5740  -22.0100 H   0  0  0  0  0  0
    5.9553    8.1549  -19.9335 H   0  0  0  0  0  0
    4.6187    9.0783  -20.5859 H   0  0  0  0  0  0
    3.7501    7.9143  -23.0684 H   0  0  0  0  0  0
    2.7662    7.7888  -21.5912 H   0  0  0  0  0  0
    4.9361    9.6990  -23.2592 H   0  0  0  0  0  0
    7.1190   10.6360  -24.5530 H   0  0  0  0  0  0
    9.2317    9.9110  -22.9320 H   0  0  0  0  0  0
    9.5868    8.7470  -20.7990 H   0  0  0  0  0  0
    8.2228    9.0223  -19.6634 H   0  0  0  0  0  0
    8.3709    7.4536  -20.5260 H   0  0  0  0  0  0
  1  2  2  0  0  0
  1  3  1  0  0  0
  1 34  1  0  0  0
  2  6  1  0  0  0
  2 35  1  0  0  0
  3  5  2  0  0  0
  3 27  1  0  0  0
  4  5  1  0  0  0
  4  6  2  0  0  0
  4 18  1  0  0  0
  5 24  1  0  0  0
  6 10  1  0  0  0
  7 10  2  0  0  0
  7 23  1  0  0  0
  7 33  1  0  0  0
  8 21  1  0  0  0
  8 22  1  0  0  0
  8 36  1  0  0  0
  8 37  1  0  0  0
  9 21  1  0  0  0
  9 31  1  0  0  0
  9 38  1  0  0  0
  9 39  1  0  0  0
 10 40  1  0  0  0
 11 12  1  0  0  0
 11 14  2  0  0  0
 11 15  1  0  0  0
 12 17  1  0  0  0
 12 28  2  0  0  0
 13 28  1  0  0  0
 13 29  2  0  0  0
 13 55  1  0  0  0
 14 29  1  0  0  0
 14 31  1  0  0  0
 15 30  2  0  0  0
 15 41  1  0  0  0
 16 17  2  0  0  0
 16 18  1  0  0  0
 16 30  1  0  0  0
 17 26  1  0  0  0
 18 23  2  0  0  0
 19 20  1  0  0  0
 19 31  1  0  0  0
 19 42  1  0  0  0
 19 43  1  0  0  0
 20 22  1  0  0  0
 20 32  1  0  0  0
 20 44  1  0  0  0
 21 32  1  0  0  0
 21 45  1  0  0  0
 22 46  1  0  0  0
 22 47  1  0  0  0
 23 48  1  0  0  0
 24 25  3  0  0  0
 25 49  1  0  0  0
 32 50  1  0  0  0
 33 51  1  0  0  0
 52 54  1  0  0  0
 52 55  1  0  0  0
 52 61  1  0  0  0
 53 56  1  0  0  0
 53 59  1  0  0  0
 53 60  1  0  0  0
 54 56  1  0  0  0
 54 62  1  0  0  0
 54 63  1  0  0  0
 55 64  1  0  0  0
 55 65  1  0  0  0
 56 57  2  0  0  0
 57 58  1  0  0  0
 57 66  1  0  0  0
 58 59  2  0  0  0
 58 67  1  0  0  0
 59 68  1  0  0  0
 60 69  1  0  0  0
 60 70  1  0  0  0
 60 71  1  0  0  0
M  END
> <s_m_entry_id>
541

> <s_m_entry_name>
000000383.1

> <s_m_Source_Path>
/Users/zaksoul/Documents/3r_UNI/2nd_SEMESTER/BSC/FRAG_RECON/RESULTS/2

> <s_m_Source_File>
000000383.mol2

> <i_m_Source_File_Index>
1

$$$$
No_0_405
                    3D
 Schrodinger Suite 2022-4.
 72 78  0  0  1  0            999 V2000
   -5.2790    3.5680  -21.7750 C   0  0  0  0  0  0
   -5.5810    3.7640  -23.1020 C   0  0  0  0  0  0
   -4.0380    3.2800  -21.4720 C   0  0  0  0  0  0
   -3.2110    3.3810  -23.6650 C   0  0  0  0  0  0
   -3.0130    3.1320  -22.2500 C   0  0  0  0  0  0
   -4.5660    3.6810  -24.1440 C   0  0  0  0  0  0
   -3.8790    3.6810  -26.3650 C   0  0  0  0  0  0
    5.9840    2.6740  -21.4020 C   0  0  0  0  0  0
    5.7700    2.8200  -23.9460 C   0  0  0  0  0  0
   -4.8550    3.8150  -25.4710 C   0  0  0  0  0  0
    2.0040    3.4740  -23.8470 C   0  0  0  0  0  0
    1.2240    4.6060  -23.5230 C   0  0  0  0  0  0
    3.0750    5.7500  -22.9010 C   0  0  0  0  0  0
    3.4180    3.6260  -23.5770 C   0  0  0  0  0  0
    1.4060    2.3730  -24.4900 C   0  0  0  0  0  0
   -0.6930    3.2460  -24.3140 C   0  0  0  0  0  0
   -0.1140    4.4510  -23.7330 C   0  0  0  0  0  0
   -2.1550    3.2930  -24.6230 C   0  0  0  0  0  0
    3.9620    1.1120  -23.3020 C   0  0  0  0  0  0
    4.9200    0.7300  -22.1840 C   0  0  2  0  0  0
    6.5390    2.2250  -22.7710 C   0  0  2  0  0  0
    4.9670    1.7310  -21.0180 C   0  0  0  0  0  0
   -2.5200    3.4610  -26.0410 C   0  0  0  0  0  0
   -1.6630    2.6810  -21.6930 C   0  0  0  0  0  0
   -0.6280    2.3050  -21.2180 C   0  0  0  0  0  0
   -0.9150    5.5190  -23.3630 F   0  0  0  0  0  0
   -3.7920    3.0320  -20.0970 F   0  0  0  0  0  0
    1.7500    5.7510  -23.0080 N   0  0  0  0  0  0
    3.9370    4.7630  -23.1480 N   0  0  0  0  0  0
    0.0890    2.3200  -24.7540 N   0  0  0  0  0  0
    4.3010    2.5520  -23.7820 N   0  0  0  0  0  0
    6.3130    0.7570  -22.7100 N   0  0  1  0  0  0
   -4.0940    3.7010  -27.7480 O   0  0  0  0  0  0
   -6.0561    3.6533  -21.0240 H   0  0  0  0  0  0
   -6.5993    3.9869  -23.3993 H   0  0  0  0  0  0
    5.5380    3.6750  -21.4979 H   0  0  0  0  0  0
    6.7934    2.6629  -20.6572 H   0  0  0  0  0  0
    6.1234    2.3647  -24.8829 H   0  0  0  0  0  0
    5.9425    3.9057  -23.9843 H   0  0  0  0  0  0
   -5.8699    4.0288  -25.7862 H   0  0  0  0  0  0
    2.0122    1.5259  -24.7901 H   0  0  0  0  0  0
    2.9295    1.0847  -22.9235 H   0  0  0  0  0  0
    4.0790    0.4097  -24.1405 H   0  0  0  0  0  0
    4.6787   -0.2754  -21.8085 H   0  0  0  0  0  0
    7.6123    2.4522  -22.8518 H   0  0  0  0  0  0
    3.9997    2.2495  -20.9444 H   0  0  0  0  0  0
    5.2808    1.2093  -20.1018 H   0  0  0  0  0  0
   -1.7749    3.4198  -26.8273 H   0  0  0  0  0  0
    0.2837    1.9731  -20.8011 H   0  0  0  0  0  0
    6.9678    0.2413  -22.0231 H   0  0  0  0  0  0
   -3.2656    3.5892  -28.1993 H   0  0  0  0  0  0
    3.7270    7.1660  -20.9480 N   0  0  1  0  0  0
    7.6880    9.7190  -21.6140 N   0  0  0  0  0  0
    3.6870    7.0730  -22.4510 C   0  0  0  0  0  0
    4.2870    8.4490  -20.3880 C   0  0  0  0  0  0
    5.7870    8.6140  -20.6300 C   0  0  0  0  0  0
    6.3590    9.5870  -21.4260 C   0  0  0  0  0  0
    6.6200    7.7280  -19.9940 C   0  0  0  0  0  0
    7.9730    7.8310  -20.1660 C   0  0  0  0  0  0
    5.4860   10.5910  -22.1540 C   0  0  0  0  0  0
    8.4650    8.8260  -20.9720 C   0  0  0  0  0  0
    2.7254    7.0760  -20.5542 H   0  0  0  0  0  0
    4.7081    7.1590  -22.8510 H   0  0  0  0  0  0
    3.0925    7.9063  -22.8537 H   0  0  0  0  0  0
    4.0849    8.4950  -19.3077 H   0  0  0  0  0  0
    3.7508    9.3043  -20.8251 H   0  0  0  0  0  0
    6.2042    6.9523  -19.3612 H   0  0  0  0  0  0
    8.6377    7.1333  -19.6695 H   0  0  0  0  0  0
    4.4283   10.3891  -21.9291 H   0  0  0  0  0  0
    5.7421   11.6083  -21.8229 H   0  0  0  0  0  0
    5.6520   10.5050  -23.2380 H   0  0  0  0  0  0
    9.5429    8.8700  -21.0780 H   0  0  0  0  0  0
  1  2  2  0  0  0
  1  3  1  0  0  0
  1 34  1  0  0  0
  2  6  1  0  0  0
  2 35  1  0  0  0
  3  5  2  0  0  0
  3 27  1  0  0  0
  4  5  1  0  0  0
  4  6  2  0  0  0
  4 18  1  0  0  0
  5 24  1  0  0  0
  6 10  1  0  0  0
  7 10  2  0  0  0
  7 23  1  0  0  0
  7 33  1  0  0  0
  8 21  1  0  0  0
  8 22  1  0  0  0
  8 36  1  0  0  0
  8 37  1  0  0  0
  9 21  1  0  0  0
  9 31  1  0  0  0
  9 38  1  0  0  0
  9 39  1  0  0  0
 10 40  1  0  0  0
 11 12  1  0  0  0
 11 14  2  0  0  0
 11 15  1  0  0  0
 12 17  1  0  0  0
 12 28  2  0  0  0
 13 28  1  0  0  0
 13 29  2  0  0  0
 13 54  1  0  0  0
 14 29  1  0  0  0
 14 31  1  0  0  0
 15 30  2  0  0  0
 15 41  1  0  0  0
 16 17  2  0  0  0
 16 18  1  0  0  0
 16 30  1  0  0  0
 17 26  1  0  0  0
 18 23  2  0  0  0
 19 20  1  0  0  0
 19 31  1  0  0  0
 19 42  1  0  0  0
 19 43  1  0  0  0
 20 22  1  0  0  0
 20 32  1  0  0  0
 20 44  1  0  0  0
 21 32  1  0  0  0
 21 45  1  0  0  0
 22 46  1  0  0  0
 22 47  1  0  0  0
 23 48  1  0  0  0
 24 25  3  0  0  0
 25 49  1  0  0  0
 32 50  1  0  0  0
 33 51  1  0  0  0
 52 54  1  0  0  0
 52 55  1  0  0  0
 52 62  1  0  0  0
 53 57  2  0  0  0
 53 61  1  0  0  0
 54 63  1  0  0  0
 54 64  1  0  0  0
 55 56  1  0  0  0
 55 65  1  0  0  0
 55 66  1  0  0  0
 56 57  1  0  0  0
 56 58  2  0  0  0
 57 60  1  0  0  0
 58 59  1  0  0  0
 58 67  1  0  0  0
 59 61  2  0  0  0
 59 68  1  0  0  0
 60 69  1  0  0  0
 60 70  1  0  0  0
 60 71  1  0  0  0
 61 72  1  0  0  0
M  END
> <s_m_entry_id>
542

> <s_m_entry_name>
000000384.1

> <s_m_Source_Path>
/Users/zaksoul/Documents/3r_UNI/2nd_SEMESTER/BSC/FRAG_RECON/RESULTS/2

> <s_m_Source_File>
000000384.mol2

> <i_m_Source_File_Index>
1

$$$$
No_0_406
                    3D
 Schrodinger Suite 2022-4.
 68 74  0  0  1  0            999 V2000
   -5.3720    3.3450  -21.7790 C   0  0  0  0  0  0
   -5.6420    3.5360  -23.1140 C   0  0  0  0  0  0
   -4.1330    3.0900  -21.4420 C   0  0  0  0  0  0
   -3.2480    3.2180  -23.6100 C   0  0  0  0  0  0
   -3.0840    2.9710  -22.1900 C   0  0  0  0  0  0
   -4.5960    3.4840  -24.1270 C   0  0  0  0  0  0
   -3.8470    3.5080  -26.3270 C   0  0  0  0  0  0
    5.8950    2.7510  -21.0890 C   0  0  0  0  0  0
    5.7500    2.8980  -23.6380 C   0  0  0  0  0  0
   -4.8510    3.6140  -25.4610 C   0  0  0  0  0  0
    1.9660    3.4510  -23.6440 C   0  0  0  0  0  0
    1.1470    4.5600  -23.3410 C   0  0  0  0  0  0
    2.9490    5.7520  -22.6640 C   0  0  0  0  0  0
    3.3670    3.6390  -23.3350 C   0  0  0  0  0  0
    1.4160    2.3360  -24.3060 C   0  0  0  0  0  0
   -0.7100    3.1520  -24.1880 C   0  0  0  0  0  0
   -0.1800    4.3710  -23.5890 C   0  0  0  0  0  0
   -2.1640    3.1610  -24.5390 C   0  0  0  0  0  0
    3.9700    1.1400  -23.0490 C   0  0  0  0  0  0
    4.9060    0.7810  -21.9050 C   0  0  2  0  0  0
    6.5000    2.3200  -22.4430 C   0  0  2  0  0  0
    4.8930    1.7800  -20.7360 C   0  0  0  0  0  0
   -2.4930    3.3230  -25.9650 C   0  0  0  0  0  0
   -1.7380    2.5550  -21.5960 C   0  0  0  0  0  0
   -0.7070    2.2050  -21.0940 C   0  0  0  0  0  0
   -1.0190    5.4160  -23.2400 F   0  0  0  0  0  0
   -3.9200    2.8440  -20.0610 F   0  0  0  0  0  0
    1.6270    5.7180  -22.8090 N   0  0  0  0  0  0
    3.8430    4.7890  -22.8880 N   0  0  0  0  0  0
    0.1090    2.2490  -24.6080 N   0  0  0  0  0  0
    4.2830    2.5900  -23.5160 N   0  0  0  0  0  0
    6.3120    0.8470  -22.3910 N   0  0  1  0  0  0
   -4.0240    3.5250  -27.7160 O   0  0  0  0  0  0
   -6.1720    3.4082  -21.0503 H   0  0  0  0  0  0
   -6.6572    3.7338  -23.4384 H   0  0  0  0  0  0
    5.4257    3.7401  -21.1960 H   0  0  0  0  0  0
    6.6833    2.7591  -20.3219 H   0  0  0  0  0  0
    6.1406    2.4539  -24.5655 H   0  0  0  0  0  0
    5.8943    3.9880  -23.6703 H   0  0  0  0  0  0
   -5.8622    3.8006  -25.8041 H   0  0  0  0  0  0
    2.0530    1.5064  -24.5909 H   0  0  0  0  0  0
    2.9284    1.0845  -22.6998 H   0  0  0  0  0  0
    4.1286    0.4432  -23.8852 H   0  0  0  0  0  0
    4.6819   -0.2313  -21.5376 H   0  0  0  0  0  0
    7.5686    2.5763  -22.4924 H   0  0  0  0  0  0
    3.9104    2.2723  -20.6896 H   0  0  0  0  0  0
    5.1948    1.2642  -19.8125 H   0  0  0  0  0  0
   -1.7256    3.3039  -26.7304 H   0  0  0  0  0  0
    0.2008    1.8971  -20.6511 H   0  0  0  0  0  0
    6.9610    0.3466  -21.6875 H   0  0  0  0  0  0
   -3.1807    3.4369  -28.1446 H   0  0  0  0  0  0
    6.3930    7.3970  -19.5360 O   0  0  0  0  0  0
    3.5150    7.1970  -20.6940 N   0  3  0  0  0  0
    3.5120    7.0900  -22.1950 C   0  0  0  0  0  0
    4.1980    8.4240  -20.1500 C   0  0  0  0  0  0
    5.7050    8.2890  -20.2530 C   0  0  0  0  0  0
    7.8160    8.4870  -20.8070 C   0  0  0  0  0  0
    6.5130    8.9860  -21.0430 C   0  0  0  0  0  0
    7.6700    7.5340  -19.8950 C   0  0  0  0  0  0
    3.9449    6.3742  -20.3011 H   0  0  0  0  0  0
    2.5662    7.1650  -20.3551 H   0  0  0  0  0  0
    4.5386    7.2071  -22.5722 H   0  0  0  0  0  0
    2.9110    7.9080  -22.6190 H   0  0  0  0  0  0
    3.9142    8.5649  -19.0966 H   0  0  0  0  0  0
    3.8689    9.3072  -20.7171 H   0  0  0  0  0  0
    8.6650    8.9050  -21.3460 H   0  0  0  0  0  0
    6.1060    9.7609  -21.6909 H   0  0  0  0  0  0
    8.5392    6.9829  -19.5389 H   0  0  0  0  0  0
  1  2  2  0  0  0
  1  3  1  0  0  0
  1 34  1  0  0  0
  2  6  1  0  0  0
  2 35  1  0  0  0
  3  5  2  0  0  0
  3 27  1  0  0  0
  4  5  1  0  0  0
  4  6  2  0  0  0
  4 18  1  0  0  0
  5 24  1  0  0  0
  6 10  1  0  0  0
  7 10  2  0  0  0
  7 23  1  0  0  0
  7 33  1  0  0  0
  8 21  1  0  0  0
  8 22  1  0  0  0
  8 36  1  0  0  0
  8 37  1  0  0  0
  9 21  1  0  0  0
  9 31  1  0  0  0
  9 38  1  0  0  0
  9 39  1  0  0  0
 10 40  1  0  0  0
 11 12  1  0  0  0
 11 14  2  0  0  0
 11 15  1  0  0  0
 12 17  1  0  0  0
 12 28  2  0  0  0
 13 28  1  0  0  0
 13 29  2  0  0  0
 13 54  1  0  0  0
 14 29  1  0  0  0
 14 31  1  0  0  0
 15 30  2  0  0  0
 15 41  1  0  0  0
 16 17  2  0  0  0
 16 18  1  0  0  0
 16 30  1  0  0  0
 17 26  1  0  0  0
 18 23  2  0  0  0
 19 20  1  0  0  0
 19 31  1  0  0  0
 19 42  1  0  0  0
 19 43  1  0  0  0
 20 22  1  0  0  0
 20 32  1  0  0  0
 20 44  1  0  0  0
 21 32  1  0  0  0
 21 45  1  0  0  0
 22 46  1  0  0  0
 22 47  1  0  0  0
 23 48  1  0  0  0
 24 25  3  0  0  0
 25 49  1  0  0  0
 32 50  1  0  0  0
 33 51  1  0  0  0
 52 56  1  0  0  0
 52 59  1  0  0  0
 53 54  1  0  0  0
 53 55  1  0  0  0
 53 60  1  0  0  0
 53 61  1  0  0  0
 54 62  1  0  0  0
 54 63  1  0  0  0
 55 56  1  0  0  0
 55 64  1  0  0  0
 55 65  1  0  0  0
 56 58  2  0  0  0
 57 58  1  0  0  0
 57 59  2  0  0  0
 57 66  1  0  0  0
 58 67  1  0  0  0
 59 68  1  0  0  0
M  CHG  1  53   1
M  END
> <s_m_entry_id>
543

> <s_m_entry_name>
000000385.1

> <s_m_Source_Path>
/Users/zaksoul/Documents/3r_UNI/2nd_SEMESTER/BSC/FRAG_RECON/RESULTS/2

> <s_m_Source_File>
000000385.mol2

> <i_m_Source_File_Index>
1

$$$$
No_0_407
                    3D
 Schrodinger Suite 2022-4.
 68 74  0  0  1  0            999 V2000
   -5.2290    3.7230  -21.9650 C   0  0  0  0  0  0
   -5.4800    3.9150  -23.3030 C   0  0  0  0  0  0
   -3.9970    3.4630  -21.6110 C   0  0  0  0  0  0
   -3.0810    3.5860  -23.7660 C   0  0  0  0  0  0
   -2.9370    3.3390  -22.3440 C   0  0  0  0  0  0
   -4.4210    3.8570  -24.3020 C   0  0  0  0  0  0
   -3.6420    3.8770  -26.4910 C   0  0  0  0  0  0
    6.0250    3.0790  -21.1210 C   0  0  0  0  0  0
    5.9150    3.2250  -23.6720 C   0  0  0  0  0  0
   -4.6570    3.9870  -25.6400 C   0  0  0  0  0  0
    2.1340    3.7950  -23.7300 C   0  0  0  0  0  0
    1.3160    4.9080  -23.4380 C   0  0  0  0  0  0
    3.1140    6.0930  -22.7370 C   0  0  0  0  0  0
    3.5320    3.9770  -23.4010 C   0  0  0  0  0  0
    1.5880    2.6820  -24.3980 C   0  0  0  0  0  0
   -0.5350    3.5080  -24.3100 C   0  0  0  0  0  0
   -0.0080    4.7240  -23.7040 C   0  0  0  0  0  0
   -1.9840    3.5230  -24.6800 C   0  0  0  0  0  0
    4.1190    1.4760  -23.1050 C   0  0  0  0  0  0
    5.0380    1.1130  -21.9490 C   0  0  2  0  0  0
    6.6460    2.6450  -22.4660 C   0  0  2  0  0  0
    5.0140    2.1130  -20.7810 C   0  0  0  0  0  0
   -2.2930    3.6860  -26.1110 C   0  0  0  0  0  0
   -1.6020    2.9170  -21.7320 C   0  0  0  0  0  0
   -0.5790    2.5630  -21.2150 C   0  0  0  0  0  0
   -0.8470    5.7740  -23.3670 F   0  0  0  0  0  0
   -3.8030    3.2170  -20.2270 F   0  0  0  0  0  0
    1.7940    6.0640  -22.9000 N   0  0  0  0  0  0
    4.0070    5.1250  -22.9490 N   0  0  0  0  0  0
    0.2850    2.6010  -24.7180 N   0  0  0  0  0  0
    4.4460    2.9240  -23.5690 N   0  0  0  0  0  0
    6.4510    1.1720  -22.4160 N   0  0  1  0  0  0
   -3.7990    3.8940  -27.8830 O   0  0  0  0  0  0
   -6.0383    3.7902  -21.2470 H   0  0  0  0  0  0
   -6.4896    4.1167  -23.6422 H   0  0  0  0  0  0
    5.5609    4.0698  -21.2350 H   0  0  0  0  0  0
    6.8023    3.0840  -20.3427 H   0  0  0  0  0  0
    6.3168    2.7788  -24.5937 H   0  0  0  0  0  0
    6.0644    4.3144  -23.7023 H   0  0  0  0  0  0
   -5.6627    4.1787  -25.9963 H   0  0  0  0  0  0
    2.2254    1.8498  -24.6741 H   0  0  0  0  0  0
    3.0722    1.4245  -22.7709 H   0  0  0  0  0  0
    4.2865    0.7778  -23.9384 H   0  0  0  0  0  0
    4.8039    0.1018  -21.5847 H   0  0  0  0  0  0
    7.7166    2.8952  -22.5013 H   0  0  0  0  0  0
    4.0328    2.6091  -20.7477 H   0  0  0  0  0  0
    5.3007    1.5961  -19.8533 H   0  0  0  0  0  0
   -1.5152    3.6629  -26.8657 H   0  0  0  0  0  0
    0.3216    2.2511  -20.7602 H   0  0  0  0  0  0
    7.0873    0.6694  -21.7027 H   0  0  0  0  0  0
   -2.9504    3.8009  -28.2999 H   0  0  0  0  0  0
    7.0400    7.7500  -20.2490 O   0  0  0  0  0  0
    3.9980    7.4040  -20.7910 N   0  3  0  0  0  0
    3.6760    7.4280  -22.2610 C   0  0  0  0  0  0
    4.7010    8.6340  -20.2790 C   0  0  0  0  0  0
    6.1550    8.6380  -20.7100 C   0  0  0  0  0  0
    8.0780    9.0650  -21.6710 C   0  0  0  0  0  0
    6.7250    9.4690  -21.5750 C   0  0  0  0  0  0
    8.1960    8.0280  -20.8520 C   0  0  0  0  0  0
    4.5566    6.5906  -20.5851 H   0  0  0  0  0  0
    3.1495    7.2619  -20.2657 H   0  0  0  0  0  0
    4.5861    7.6660  -22.8311 H   0  0  0  0  0  0
    2.9457    8.2254  -22.4631 H   0  0  0  0  0  0
    4.6450    8.6570  -19.1807 H   0  0  0  0  0  0
    4.1998    9.5313  -20.6711 H   0  0  0  0  0  0
    8.7610    9.5990  -22.3300 H   0  0  0  0  0  0
    6.1377   10.2593  -22.0402 H   0  0  0  0  0  0
    9.1555    7.5242  -20.7451 H   0  0  0  0  0  0
  1  2  2  0  0  0
  1  3  1  0  0  0
  1 34  1  0  0  0
  2  6  1  0  0  0
  2 35  1  0  0  0
  3  5  2  0  0  0
  3 27  1  0  0  0
  4  5  1  0  0  0
  4  6  2  0  0  0
  4 18  1  0  0  0
  5 24  1  0  0  0
  6 10  1  0  0  0
  7 10  2  0  0  0
  7 23  1  0  0  0
  7 33  1  0  0  0
  8 21  1  0  0  0
  8 22  1  0  0  0
  8 36  1  0  0  0
  8 37  1  0  0  0
  9 21  1  0  0  0
  9 31  1  0  0  0
  9 38  1  0  0  0
  9 39  1  0  0  0
 10 40  1  0  0  0
 11 12  1  0  0  0
 11 14  2  0  0  0
 11 15  1  0  0  0
 12 17  1  0  0  0
 12 28  2  0  0  0
 13 28  1  0  0  0
 13 29  2  0  0  0
 13 54  1  0  0  0
 14 29  1  0  0  0
 14 31  1  0  0  0
 15 30  2  0  0  0
 15 41  1  0  0  0
 16 17  2  0  0  0
 16 18  1  0  0  0
 16 30  1  0  0  0
 17 26  1  0  0  0
 18 23  2  0  0  0
 19 20  1  0  0  0
 19 31  1  0  0  0
 19 42  1  0  0  0
 19 43  1  0  0  0
 20 22  1  0  0  0
 20 32  1  0  0  0
 20 44  1  0  0  0
 21 32  1  0  0  0
 21 45  1  0  0  0
 22 46  1  0  0  0
 22 47  1  0  0  0
 23 48  1  0  0  0
 24 25  3  0  0  0
 25 49  1  0  0  0
 32 50  1  0  0  0
 33 51  1  0  0  0
 52 56  1  0  0  0
 52 59  1  0  0  0
 53 54  1  0  0  0
 53 55  1  0  0  0
 53 60  1  0  0  0
 53 61  1  0  0  0
 54 62  1  0  0  0
 54 63  1  0  0  0
 55 56  1  0  0  0
 55 64  1  0  0  0
 55 65  1  0  0  0
 56 58  2  0  0  0
 57 58  1  0  0  0
 57 59  2  0  0  0
 57 66  1  0  0  0
 58 67  1  0  0  0
 59 68  1  0  0  0
M  CHG  1  53   1
M  END
> <s_m_entry_id>
544

> <s_m_entry_name>
000000386.1

> <s_m_Source_Path>
/Users/zaksoul/Documents/3r_UNI/2nd_SEMESTER/BSC/FRAG_RECON/RESULTS/2

> <s_m_Source_File>
000000386.mol2

> <i_m_Source_File_Index>
1

$$$$
No_0_408
                    3D
 Schrodinger Suite 2022-4.
 68 74  0  0  1  0            999 V2000
   -5.2770    3.5830  -21.9120 C   0  0  0  0  0  0
   -5.5420    3.7830  -23.2460 C   0  0  0  0  0  0
   -4.0380    3.3340  -21.5700 C   0  0  0  0  0  0
   -3.1430    3.4860  -23.7330 C   0  0  0  0  0  0
   -2.9840    3.2290  -22.3140 C   0  0  0  0  0  0
   -4.4910    3.7460  -24.2540 C   0  0  0  0  0  0
   -3.7310    3.7930  -26.4510 C   0  0  0  0  0  0
    5.9910    3.0650  -21.1710 C   0  0  0  0  0  0
    5.8570    3.2310  -23.7200 C   0  0  0  0  0  0
   -4.7400    3.8840  -25.5890 C   0  0  0  0  0  0
    2.0690    3.7570  -23.7400 C   0  0  0  0  0  0
    1.2410    4.8580  -23.4320 C   0  0  0  0  0  0
    3.0310    6.0580  -22.7370 C   0  0  0  0  0  0
    3.4680    3.9530  -23.4220 C   0  0  0  0  0  0
    1.5310    2.6430  -24.4130 C   0  0  0  0  0  0
   -0.6020    3.4430  -24.2990 C   0  0  0  0  0  0
   -0.0830    4.6600  -23.6880 C   0  0  0  0  0  0
   -2.0540    3.4440  -24.6570 C   0  0  0  0  0  0
    4.0870    1.4560  -23.1520 C   0  0  0  0  0  0
    5.0200    1.0950  -22.0070 C   0  0  2  0  0  0
    6.6050    2.6500  -22.5260 C   0  0  2  0  0  0
    4.9940    2.0850  -20.8310 C   0  0  0  0  0  0
   -2.3770    3.6150  -26.0840 C   0  0  0  0  0  0
   -1.6380    2.8180  -21.7170 C   0  0  0  0  0  0
   -0.6070    2.4710  -21.2120 C   0  0  0  0  0  0
   -0.9320    5.6970  -23.3350 F   0  0  0  0  0  0
   -3.8290    3.0800  -20.1900 F   0  0  0  0  0  0
    1.7100    6.0140  -22.8880 N   0  0  0  0  0  0
    3.9330    5.1020  -22.9640 N   0  0  0  0  0  0
    0.2250    2.5490  -24.7220 N   0  0  0  0  0  0
    4.3920    2.9120  -23.6070 N   0  0  0  0  0  0
    6.4280    1.1750  -22.4860 N   0  0  1  0  0  0
   -3.9010    3.8190  -27.8400 O   0  0  0  0  0  0
   -6.0808    3.6342  -21.1865 H   0  0  0  0  0  0
   -6.5571    3.9748  -23.5743 H   0  0  0  0  0  0
    5.5149    4.0514  -21.2729 H   0  0  0  0  0  0
    6.7753    3.0731  -20.3998 H   0  0  0  0  0  0
    6.2559    2.7978  -24.6491 H   0  0  0  0  0  0
    5.9933    4.3223  -23.7422 H   0  0  0  0  0  0
   -5.7508    4.0667  -25.9353 H   0  0  0  0  0  0
    2.1757    1.8206  -24.7012 H   0  0  0  0  0  0
    3.0436    1.3904  -22.8099 H   0  0  0  0  0  0
    4.2554    0.7673  -23.9930 H   0  0  0  0  0  0
    4.8011    0.0782  -21.6489 H   0  0  0  0  0  0
    7.6722    2.9133  -22.5674 H   0  0  0  0  0  0
    4.0076    2.5696  -20.7846 H   0  0  0  0  0  0
    5.2956    1.5645  -19.9101 H   0  0  0  0  0  0
   -1.6060    3.6070  -26.8460 H   0  0  0  0  0  0
    0.3012    2.1659  -20.7679 H   0  0  0  0  0  0
    7.0767    0.6738  -21.7828 H   0  0  0  0  0  0
   -3.0552    3.7408  -28.2654 H   0  0  0  0  0  0
    7.3350    7.9250  -21.2100 O   0  0  0  0  0  0
    4.3110    7.2580  -20.9450 N   0  3  0  0  0  0
    3.5810    7.3950  -22.2550 C   0  0  0  0  0  0
    5.0150    8.5050  -20.4820 C   0  0  0  0  0  0
    6.2790    8.7380  -21.2870 C   0  0  0  0  0  0
    7.8000    9.5020  -22.6690 C   0  0  0  0  0  0
    6.5000    9.7200  -22.1540 C   0  0  0  0  0  0
    8.2410    8.4070  -22.0620 C   0  0  0  0  0  0
    4.9763    6.5037  -21.0120 H   0  0  0  0  0  0
    3.6644    6.9552  -20.2335 H   0  0  0  0  0  0
    4.2649    7.8049  -23.0128 H   0  0  0  0  0  0
    2.7539    8.1111  -22.1400 H   0  0  0  0  0  0
    5.2729    8.4060  -19.4173 H   0  0  0  0  0  0
    4.3439    9.3691  -20.5960 H   0  0  0  0  0  0
    8.2143   10.1845  -23.4096 H   0  0  0  0  0  0
    5.7339   10.4741  -22.3280 H   0  0  0  0  0  0
    9.2334    8.0209  -22.2901 H   0  0  0  0  0  0
  1  2  2  0  0  0
  1  3  1  0  0  0
  1 34  1  0  0  0
  2  6  1  0  0  0
  2 35  1  0  0  0
  3  5  2  0  0  0
  3 27  1  0  0  0
  4  5  1  0  0  0
  4  6  2  0  0  0
  4 18  1  0  0  0
  5 24  1  0  0  0
  6 10  1  0  0  0
  7 10  2  0  0  0
  7 23  1  0  0  0
  7 33  1  0  0  0
  8 21  1  0  0  0
  8 22  1  0  0  0
  8 36  1  0  0  0
  8 37  1  0  0  0
  9 21  1  0  0  0
  9 31  1  0  0  0
  9 38  1  0  0  0
  9 39  1  0  0  0
 10 40  1  0  0  0
 11 12  1  0  0  0
 11 14  2  0  0  0
 11 15  1  0  0  0
 12 17  1  0  0  0
 12 28  2  0  0  0
 13 28  1  0  0  0
 13 29  2  0  0  0
 13 54  1  0  0  0
 14 29  1  0  0  0
 14 31  1  0  0  0
 15 30  2  0  0  0
 15 41  1  0  0  0
 16 17  2  0  0  0
 16 18  1  0  0  0
 16 30  1  0  0  0
 17 26  1  0  0  0
 18 23  2  0  0  0
 19 20  1  0  0  0
 19 31  1  0  0  0
 19 42  1  0  0  0
 19 43  1  0  0  0
 20 22  1  0  0  0
 20 32  1  0  0  0
 20 44  1  0  0  0
 21 32  1  0  0  0
 21 45  1  0  0  0
 22 46  1  0  0  0
 22 47  1  0  0  0
 23 48  1  0  0  0
 24 25  3  0  0  0
 25 49  1  0  0  0
 32 50  1  0  0  0
 33 51  1  0  0  0
 52 56  1  0  0  0
 52 59  1  0  0  0
 53 54  1  0  0  0
 53 55  1  0  0  0
 53 60  1  0  0  0
 53 61  1  0  0  0
 54 62  1  0  0  0
 54 63  1  0  0  0
 55 56  1  0  0  0
 55 64  1  0  0  0
 55 65  1  0  0  0
 56 58  2  0  0  0
 57 58  1  0  0  0
 57 59  2  0  0  0
 57 66  1  0  0  0
 58 67  1  0  0  0
 59 68  1  0  0  0
M  CHG  1  53   1
M  END
> <s_m_entry_id>
545

> <s_m_entry_name>
000000387.1

> <s_m_Source_Path>
/Users/zaksoul/Documents/3r_UNI/2nd_SEMESTER/BSC/FRAG_RECON/RESULTS/2

> <s_m_Source_File>
000000387.mol2

> <i_m_Source_File_Index>
1

$$$$
No_0_409
                    3D
 Schrodinger Suite 2022-4.
 68 74  0  0  1  0            999 V2000
   -5.3240    3.3410  -22.3850 C   0  0  0  0  0  0
   -5.5660    3.4910  -23.7300 C   0  0  0  0  0  0
   -4.0890    3.1150  -22.0140 C   0  0  0  0  0  0
   -3.1570    3.1970  -24.1640 C   0  0  0  0  0  0
   -3.0210    2.9930  -22.7350 C   0  0  0  0  0  0
   -4.4980    3.4270  -24.7180 C   0  0  0  0  0  0
   -3.7000    3.4020  -26.9010 C   0  0  0  0  0  0
    5.9330    2.9460  -21.4310 C   0  0  0  0  0  0
    5.8430    3.0190  -23.9860 C   0  0  0  0  0  0
   -4.7240    3.5160  -26.0610 C   0  0  0  0  0  0
    2.0520    3.5120  -24.0910 C   0  0  0  0  0  0
    1.2100    4.6160  -23.8370 C   0  0  0  0  0  0
    2.9780    5.8550  -23.1540 C   0  0  0  0  0  0
    3.4430    3.7310  -23.7560 C   0  0  0  0  0  0
    1.5340    2.3700  -24.7320 C   0  0  0  0  0  0
   -0.6060    3.1560  -24.6840 C   0  0  0  0  0  0
   -0.1080    4.3990  -24.1080 C   0  0  0  0  0  0
   -2.0520    3.1320  -25.0670 C   0  0  0  0  0  0
    4.0770    1.2510  -23.3860 C   0  0  0  0  0  0
    4.9930    0.9390  -22.2130 C   0  0  2  0  0  0
    6.5750    2.4870  -22.7590 C   0  0  2  0  0  0
    4.9380    1.9700  -21.0730 C   0  0  0  0  0  0
   -2.3510    3.2490  -26.5040 C   0  0  0  0  0  0
   -1.6830    2.6140  -22.1000 C   0  0  0  0  0  0
   -0.6580    2.2950  -21.5650 C   0  0  0  0  0  0
   -0.9710    5.4400  -23.8070 F   0  0  0  0  0  0
   -3.9020    2.9120  -20.6220 F   0  0  0  0  0  0
    1.6600    5.7950  -23.3270 N   0  0  0  0  0  0
    3.8910    4.9000  -23.3310 N   0  0  0  0  0  0
    0.2350    2.2540  -25.0600 N   0  0  0  0  0  0
    4.3790    2.6920  -23.8870 N   0  0  0  0  0  0
    6.4080    1.0130  -22.6700 N   0  0  1  0  0  0
   -3.8460    3.3780  -28.2940 O   0  0  0  0  0  0
   -6.1402    3.4123  -21.6752 H   0  0  0  0  0  0
   -6.5767    3.6626  -24.0823 H   0  0  0  0  0  0
    5.4506    3.9239  -21.5763 H   0  0  0  0  0  0
    6.7042    2.9874  -20.6477 H   0  0  0  0  0  0
    6.2621    2.5565  -24.8918 H   0  0  0  0  0  0
    5.9712    4.1099  -24.0445 H   0  0  0  0  0  0
   -5.7301    3.6765  -26.4312 H   0  0  0  0  0  0
    2.1905    1.5438  -24.9800 H   0  0  0  0  0  0
    3.0286    1.1884  -23.0591 H   0  0  0  0  0  0
    4.2657    0.5336  -24.1982 H   0  0  0  0  0  0
    4.7760   -0.0662  -21.8224 H   0  0  0  0  0  0
    7.6405    2.7584  -22.7923 H   0  0  0  0  0  0
    3.9472    2.4477  -21.0619 H   0  0  0  0  0  0
    5.2277    1.4846  -20.1294 H   0  0  0  0  0  0
   -1.5664    3.2199  -27.2514 H   0  0  0  0  0  0
    0.2449    2.0140  -21.0950 H   0  0  0  0  0  0
    7.0483    0.5437  -21.9378 H   0  0  0  0  0  0
   -2.9917    3.2910  -28.7004 H   0  0  0  0  0  0
    7.3450    8.0390  -22.4430 O   0  0  0  0  0  0
    4.5110    7.0820  -21.5950 N   0  3  0  0  0  0
    3.5090    7.2140  -22.7110 C   0  0  0  0  0  0
    5.1960    8.3670  -21.2080 C   0  0  0  0  0  0
    6.2350    8.7540  -22.2430 C   0  0  0  0  0  0
    7.3570    9.7200  -23.8590 C   0  0  0  0  0  0
    6.1850    9.7920  -23.0700 C   0  0  0  0  0  0
    8.0050    8.6440  -23.4320 C   0  0  0  0  0  0
    5.2062    6.3978  -21.8491 H   0  0  0  0  0  0
    4.0589    6.6879  -20.7848 H   0  0  0  0  0  0
    3.9791    7.7201  -23.5671 H   0  0  0  0  0  0
    2.6710    7.8440  -22.3780 H   0  0  0  0  0  0
    5.6831    8.2420  -20.2297 H   0  0  0  0  0  0
    4.4486    9.1695  -21.1220 H   0  0  0  0  0  0
    7.5461   10.4723  -24.6233 H   0  0  0  0  0  0
    5.3410   10.4790  -23.0300 H   0  0  0  0  0  0
    8.9529    8.3620  -23.8880 H   0  0  0  0  0  0
  1  2  2  0  0  0
  1  3  1  0  0  0
  1 34  1  0  0  0
  2  6  1  0  0  0
  2 35  1  0  0  0
  3  5  2  0  0  0
  3 27  1  0  0  0
  4  5  1  0  0  0
  4  6  2  0  0  0
  4 18  1  0  0  0
  5 24  1  0  0  0
  6 10  1  0  0  0
  7 10  2  0  0  0
  7 23  1  0  0  0
  7 33  1  0  0  0
  8 21  1  0  0  0
  8 22  1  0  0  0
  8 36  1  0  0  0
  8 37  1  0  0  0
  9 21  1  0  0  0
  9 31  1  0  0  0
  9 38  1  0  0  0
  9 39  1  0  0  0
 10 40  1  0  0  0
 11 12  1  0  0  0
 11 14  2  0  0  0
 11 15  1  0  0  0
 12 17  1  0  0  0
 12 28  2  0  0  0
 13 28  1  0  0  0
 13 29  2  0  0  0
 13 54  1  0  0  0
 14 29  1  0  0  0
 14 31  1  0  0  0
 15 30  2  0  0  0
 15 41  1  0  0  0
 16 17  2  0  0  0
 16 18  1  0  0  0
 16 30  1  0  0  0
 17 26  1  0  0  0
 18 23  2  0  0  0
 19 20  1  0  0  0
 19 31  1  0  0  0
 19 42  1  0  0  0
 19 43  1  0  0  0
 20 22  1  0  0  0
 20 32  1  0  0  0
 20 44  1  0  0  0
 21 32  1  0  0  0
 21 45  1  0  0  0
 22 46  1  0  0  0
 22 47  1  0  0  0
 23 48  1  0  0  0
 24 25  3  0  0  0
 25 49  1  0  0  0
 32 50  1  0  0  0
 33 51  1  0  0  0
 52 56  1  0  0  0
 52 59  1  0  0  0
 53 54  1  0  0  0
 53 55  1  0  0  0
 53 60  1  0  0  0
 53 61  1  0  0  0
 54 62  1  0  0  0
 54 63  1  0  0  0
 55 56  1  0  0  0
 55 64  1  0  0  0
 55 65  1  0  0  0
 56 58  2  0  0  0
 57 58  1  0  0  0
 57 59  2  0  0  0
 57 66  1  0  0  0
 58 67  1  0  0  0
 59 68  1  0  0  0
M  CHG  1  53   1
M  END
> <s_m_entry_id>
546

> <s_m_entry_name>
000000388.1

> <s_m_Source_Path>
/Users/zaksoul/Documents/3r_UNI/2nd_SEMESTER/BSC/FRAG_RECON/RESULTS/2

> <s_m_Source_File>
000000388.mol2

> <i_m_Source_File_Index>
1

$$$$
No_0_410
                    3D
 Schrodinger Suite 2022-4.
 68 74  0  0  1  0            999 V2000
   -5.1810    3.6090  -21.8530 C   0  0  0  0  0  0
   -5.4520    3.8050  -23.1860 C   0  0  0  0  0  0
   -3.9420    3.3510  -21.5190 C   0  0  0  0  0  0
   -3.0590    3.4860  -23.6870 C   0  0  0  0  0  0
   -2.8930    3.2340  -22.2690 C   0  0  0  0  0  0
   -4.4090    3.7540  -24.2010 C   0  0  0  0  0  0
   -3.6630    3.7850  -26.4030 C   0  0  0  0  0  0
    6.0870    3.0010  -21.1820 C   0  0  0  0  0  0
    5.9380    3.1560  -23.7310 C   0  0  0  0  0  0
   -4.6650    3.8890  -25.5350 C   0  0  0  0  0  0
    2.1540    3.7130  -23.7290 C   0  0  0  0  0  0
    1.3370    4.8230  -23.4210 C   0  0  0  0  0  0
    3.1410    6.0110  -22.7430 C   0  0  0  0  0  0
    3.5570    3.8990  -23.4210 C   0  0  0  0  0  0
    1.6030    2.6010  -24.3930 C   0  0  0  0  0  0
   -0.5220    3.4190  -24.2700 C   0  0  0  0  0  0
    0.0100    4.6350  -23.6670 C   0  0  0  0  0  0
   -1.9770    3.4300  -24.6180 C   0  0  0  0  0  0
    4.1570    1.3990  -23.1440 C   0  0  0  0  0  0
    5.0950    1.0350  -22.0030 C   0  0  2  0  0  0
    6.6890    2.5740  -22.5390 C   0  0  2  0  0  0
    5.0840    2.0310  -20.8310 C   0  0  0  0  0  0
   -2.3080    3.5970  -26.0440 C   0  0  0  0  0  0
   -1.5470    2.8150  -21.6780 C   0  0  0  0  0  0
   -0.5150    2.4620  -21.1780 C   0  0  0  0  0  0
   -0.8280    5.6800  -23.3140 F   0  0  0  0  0  0
   -3.7260    3.1020  -20.1390 F   0  0  0  0  0  0
    1.8200    5.9780  -22.8860 N   0  0  0  0  0  0
    4.0350    5.0470  -22.9720 N   0  0  0  0  0  0
    0.2950    2.5160  -24.6930 N   0  0  0  0  0  0
    4.4710    2.8500  -23.6070 N   0  0  0  0  0  0
    6.5000    1.1010  -22.4910 N   0  0  1  0  0  0
   -3.8410    3.8060  -27.7920 O   0  0  0  0  0  0
   -5.9796    3.6712  -21.1226 H   0  0  0  0  0  0
   -6.4675    4.0037  -23.5091 H   0  0  0  0  0  0
    5.6179    3.9906  -21.2849 H   0  0  0  0  0  0
    6.8763    3.0060  -20.4159 H   0  0  0  0  0  0
    6.3275    2.7150  -24.6604 H   0  0  0  0  0  0
    6.0833    4.2460  -23.7593 H   0  0  0  0  0  0
   -5.6765    4.0776  -25.8762 H   0  0  0  0  0  0
    2.2385    1.7718  -24.6821 H   0  0  0  0  0  0
    3.1157    1.3435  -22.7939 H   0  0  0  0  0  0
    4.3144    0.7047  -23.9826 H   0  0  0  0  0  0
    4.8700    0.0218  -21.6387 H   0  0  0  0  0  0
    7.7578    2.8293  -22.5885 H   0  0  0  0  0  0
    4.1018    2.5236  -20.7805 H   0  0  0  0  0  0
    5.3877    1.5123  -19.9097 H   0  0  0  0  0  0
   -1.5411    3.5789  -26.8099 H   0  0  0  0  0  0
    0.3934    2.1519  -20.7378 H   0  0  0  0  0  0
    7.1492    0.5983  -21.7894 H   0  0  0  0  0  0
   -2.9984    3.7179  -28.2217 H   0  0  0  0  0  0
    7.4420    8.4280  -22.8560 O   0  0  0  0  0  0
    4.9650    7.1650  -21.4660 N   0  3  0  0  0  0
    3.7060    7.3460  -22.2710 C   0  0  0  0  0  0
    5.6670    8.4450  -21.0950 C   0  0  0  0  0  0
    6.3880    9.0270  -22.2950 C   0  0  0  0  0  0
    7.0160   10.2570  -23.9980 C   0  0  0  0  0  0
    6.0810   10.1470  -22.9400 C   0  0  0  0  0  0
    7.7990    9.1920  -23.8890 C   0  0  0  0  0  0
    5.6020    6.5690  -21.9710 H   0  0  0  0  0  0
    4.7531    6.6461  -20.6282 H   0  0  0  0  0  0
    3.9179    7.9827  -23.1426 H   0  0  0  0  0  0
    2.9532    7.8669  -21.6611 H   0  0  0  0  0  0
    6.3929    8.2450  -20.2931 H   0  0  0  0  0  0
    4.9298    9.1712  -20.7219 H   0  0  0  0  0  0
    6.9690   11.1053  -24.6792 H   0  0  0  0  0  0
    5.2454   10.7585  -22.6027 H   0  0  0  0  0  0
    8.6107    9.0391  -24.5987 H   0  0  0  0  0  0
  1  2  2  0  0  0
  1  3  1  0  0  0
  1 34  1  0  0  0
  2  6  1  0  0  0
  2 35  1  0  0  0
  3  5  2  0  0  0
  3 27  1  0  0  0
  4  5  1  0  0  0
  4  6  2  0  0  0
  4 18  1  0  0  0
  5 24  1  0  0  0
  6 10  1  0  0  0
  7 10  2  0  0  0
  7 23  1  0  0  0
  7 33  1  0  0  0
  8 21  1  0  0  0
  8 22  1  0  0  0
  8 36  1  0  0  0
  8 37  1  0  0  0
  9 21  1  0  0  0
  9 31  1  0  0  0
  9 38  1  0  0  0
  9 39  1  0  0  0
 10 40  1  0  0  0
 11 12  1  0  0  0
 11 14  2  0  0  0
 11 15  1  0  0  0
 12 17  1  0  0  0
 12 28  2  0  0  0
 13 28  1  0  0  0
 13 29  2  0  0  0
 13 54  1  0  0  0
 14 29  1  0  0  0
 14 31  1  0  0  0
 15 30  2  0  0  0
 15 41  1  0  0  0
 16 17  2  0  0  0
 16 18  1  0  0  0
 16 30  1  0  0  0
 17 26  1  0  0  0
 18 23  2  0  0  0
 19 20  1  0  0  0
 19 31  1  0  0  0
 19 42  1  0  0  0
 19 43  1  0  0  0
 20 22  1  0  0  0
 20 32  1  0  0  0
 20 44  1  0  0  0
 21 32  1  0  0  0
 21 45  1  0  0  0
 22 46  1  0  0  0
 22 47  1  0  0  0
 23 48  1  0  0  0
 24 25  3  0  0  0
 25 49  1  0  0  0
 32 50  1  0  0  0
 33 51  1  0  0  0
 52 56  1  0  0  0
 52 59  1  0  0  0
 53 54  1  0  0  0
 53 55  1  0  0  0
 53 60  1  0  0  0
 53 61  1  0  0  0
 54 62  1  0  0  0
 54 63  1  0  0  0
 55 56  1  0  0  0
 55 64  1  0  0  0
 55 65  1  0  0  0
 56 58  2  0  0  0
 57 58  1  0  0  0
 57 59  2  0  0  0
 57 66  1  0  0  0
 58 67  1  0  0  0
 59 68  1  0  0  0
M  CHG  1  53   1
M  END
> <s_m_entry_id>
547

> <s_m_entry_name>
000000389.1

> <s_m_Source_Path>
/Users/zaksoul/Documents/3r_UNI/2nd_SEMESTER/BSC/FRAG_RECON/RESULTS/2

> <s_m_Source_File>
000000389.mol2

> <i_m_Source_File_Index>
1

$$$$
No_0_411
                    3D
 Schrodinger Suite 2022-4.
 68 74  0  0  1  0            999 V2000
   -5.3800    3.3830  -21.7370 C   0  0  0  0  0  0
   -5.6430    3.5890  -23.0700 C   0  0  0  0  0  0
   -4.1400    3.1400  -21.3950 C   0  0  0  0  0  0
   -3.2420    3.3110  -23.5540 C   0  0  0  0  0  0
   -3.0840    3.0460  -22.1370 C   0  0  0  0  0  0
   -4.5900    3.5650  -24.0770 C   0  0  0  0  0  0
   -3.8270    3.6310  -26.2710 C   0  0  0  0  0  0
    5.8890    2.9350  -20.9760 C   0  0  0  0  0  0
    5.7590    3.1160  -23.5230 C   0  0  0  0  0  0
   -4.8380    3.7110  -25.4110 C   0  0  0  0  0  0
    1.9680    3.6170  -23.5480 C   0  0  0  0  0  0
    1.1320    4.7100  -23.2350 C   0  0  0  0  0  0
    2.9120    5.9170  -22.5290 C   0  0  0  0  0  0
    3.3650    3.8200  -23.2260 C   0  0  0  0  0  0
    1.4390    2.5040  -24.2290 C   0  0  0  0  0  0
   -0.6990    3.2890  -24.1150 C   0  0  0  0  0  0
   -0.1900    4.5060  -23.4950 C   0  0  0  0  0  0
   -2.1510    3.2820  -24.4760 C   0  0  0  0  0  0
    4.0000    1.3260  -22.9710 C   0  0  0  0  0  0
    4.9340    0.9640  -21.8260 C   0  0  2  0  0  0
    6.5090    2.5320  -22.3310 C   0  0  2  0  0  0
    4.8980    1.9460  -20.6430 C   0  0  0  0  0  0
   -2.4720    3.4600  -25.9030 C   0  0  0  0  0  0
   -1.7370    2.6410  -21.5390 C   0  0  0  0  0  0
   -0.7040    2.2980  -21.0350 C   0  0  0  0  0  0
   -1.0470    5.5350  -23.1380 F   0  0  0  0  0  0
   -3.9330    2.8780  -20.0160 F   0  0  0  0  0  0
    1.5920    5.8670  -22.6840 N   0  0  0  0  0  0
    3.8220    4.9700  -22.7600 N   0  0  0  0  0  0
    0.1350    2.4030  -24.5420 N   0  0  0  0  0  0
    4.2970    2.7870  -23.4160 N   0  0  0  0  0  0
    6.3410    1.0560  -22.3010 N   0  0  1  0  0  0
   -3.9940    3.6660  -27.6610 O   0  0  0  0  0  0
   -6.1860    3.4242  -21.0133 H   0  0  0  0  0  0
   -6.6583    3.7766  -23.4001 H   0  0  0  0  0  0
    5.4066    3.9189  -21.0719 H   0  0  0  0  0  0
    6.6718    2.9431  -20.2033 H   0  0  0  0  0  0
    6.1625    2.6913  -24.4540 H   0  0  0  0  0  0
    5.8892    4.2082  -23.5381 H   0  0  0  0  0  0
   -5.8490    3.8887  -25.7594 H   0  0  0  0  0  0
    2.0890    1.6875  -24.5219 H   0  0  0  0  0  0
    2.9566    1.2513  -22.6309 H   0  0  0  0  0  0
    4.1745    0.6430  -23.8154 H   0  0  0  0  0  0
    4.7212   -0.0566  -21.4751 H   0  0  0  0  0  0
    7.5743    2.8034  -22.3693 H   0  0  0  0  0  0
    3.9082    2.4237  -20.5965 H   0  0  0  0  0  0
    5.2019    1.4210  -19.7253 H   0  0  0  0  0  0
   -1.6990    3.4620  -26.6629 H   0  0  0  0  0  0
    0.2048    1.9961  -20.5901 H   0  0  0  0  0  0
    6.9922    0.5556  -21.5996 H   0  0  0  0  0  0
   -3.1465    3.5948  -28.0843 H   0  0  0  0  0  0
    6.8570    8.7860  -23.2760 O   0  0  0  0  0  0
    4.8710    7.1370  -21.5450 N   0  3  0  0  0  0
    3.4530    7.2560  -22.0370 C   0  0  0  0  0  0
    5.5270    8.4450  -21.1880 C   0  0  0  0  0  0
    5.9090    9.2120  -22.4390 C   0  0  0  0  0  0
    6.0330   10.6570  -24.0830 C   0  0  0  0  0  0
    5.3720   10.3470  -22.8700 C   0  0  0  0  0  0
    6.9090    9.6770  -24.2670 C   0  0  0  0  0  0
    5.4267    6.6643  -22.2406 H   0  0  0  0  0  0
    4.8960    6.5219  -20.7468 H   0  0  0  0  0  0
    3.4100    7.9906  -22.8546 H   0  0  0  0  0  0
    2.8139    7.6330  -21.2249 H   0  0  0  0  0  0
    6.4282    8.2510  -20.5879 H   0  0  0  0  0  0
    4.8330    9.0490  -20.5850 H   0  0  0  0  0  0
    5.7638   11.5555  -24.6363 H   0  0  0  0  0  0
    4.5840   10.8300  -22.2940 H   0  0  0  0  0  0
    7.5508    9.6800  -25.1468 H   0  0  0  0  0  0
  1  2  2  0  0  0
  1  3  1  0  0  0
  1 34  1  0  0  0
  2  6  1  0  0  0
  2 35  1  0  0  0
  3  5  2  0  0  0
  3 27  1  0  0  0
  4  5  1  0  0  0
  4  6  2  0  0  0
  4 18  1  0  0  0
  5 24  1  0  0  0
  6 10  1  0  0  0
  7 10  2  0  0  0
  7 23  1  0  0  0
  7 33  1  0  0  0
  8 21  1  0  0  0
  8 22  1  0  0  0
  8 36  1  0  0  0
  8 37  1  0  0  0
  9 21  1  0  0  0
  9 31  1  0  0  0
  9 38  1  0  0  0
  9 39  1  0  0  0
 10 40  1  0  0  0
 11 12  1  0  0  0
 11 14  2  0  0  0
 11 15  1  0  0  0
 12 17  1  0  0  0
 12 28  2  0  0  0
 13 28  1  0  0  0
 13 29  2  0  0  0
 13 54  1  0  0  0
 14 29  1  0  0  0
 14 31  1  0  0  0
 15 30  2  0  0  0
 15 41  1  0  0  0
 16 17  2  0  0  0
 16 18  1  0  0  0
 16 30  1  0  0  0
 17 26  1  0  0  0
 18 23  2  0  0  0
 19 20  1  0  0  0
 19 31  1  0  0  0
 19 42  1  0  0  0
 19 43  1  0  0  0
 20 22  1  0  0  0
 20 32  1  0  0  0
 20 44  1  0  0  0
 21 32  1  0  0  0
 21 45  1  0  0  0
 22 46  1  0  0  0
 22 47  1  0  0  0
 23 48  1  0  0  0
 24 25  3  0  0  0
 25 49  1  0  0  0
 32 50  1  0  0  0
 33 51  1  0  0  0
 52 56  1  0  0  0
 52 59  1  0  0  0
 53 54  1  0  0  0
 53 55  1  0  0  0
 53 60  1  0  0  0
 53 61  1  0  0  0
 54 62  1  0  0  0
 54 63  1  0  0  0
 55 56  1  0  0  0
 55 64  1  0  0  0
 55 65  1  0  0  0
 56 58  2  0  0  0
 57 58  1  0  0  0
 57 59  2  0  0  0
 57 66  1  0  0  0
 58 67  1  0  0  0
 59 68  1  0  0  0
M  CHG  1  53   1
M  END
> <s_m_entry_id>
548

> <s_m_entry_name>
000000390.1

> <s_m_Source_Path>
/Users/zaksoul/Documents/3r_UNI/2nd_SEMESTER/BSC/FRAG_RECON/RESULTS/2

> <s_m_Source_File>
000000390.mol2

> <i_m_Source_File_Index>
1

$$$$
No_0_412
                    3D
 Schrodinger Suite 2022-4.
 67 73  0  0  1  0            999 V2000
   -4.9160    3.4360  -21.7700 C   0  0  0  0  0  0
   -5.2240    3.5890  -23.1010 C   0  0  0  0  0  0
   -3.6660    3.1980  -21.4620 C   0  0  0  0  0  0
   -2.8430    3.2750  -23.6570 C   0  0  0  0  0  0
   -2.6370    3.0670  -22.2360 C   0  0  0  0  0  0
   -4.2080    3.5170  -24.1420 C   0  0  0  0  0  0
   -3.5220    3.4870  -26.3620 C   0  0  0  0  0  0
    6.3710    2.9410  -21.3870 C   0  0  0  0  0  0
    6.1520    3.0190  -23.9340 C   0  0  0  0  0  0
   -4.5010    3.6090  -25.4720 C   0  0  0  0  0  0
    2.3660    3.5440  -23.8460 C   0  0  0  0  0  0
    1.5470    4.6550  -23.5490 C   0  0  0  0  0  0
    3.3580    5.8780  -22.9560 C   0  0  0  0  0  0
    3.7740    3.7510  -23.5820 C   0  0  0  0  0  0
    1.8060    2.4080  -24.4620 C   0  0  0  0  0  0
   -0.3220    3.2120  -24.3050 C   0  0  0  0  0  0
    0.2150    4.4500  -23.7540 C   0  0  0  0  0  0
   -1.7850    3.2000  -24.6140 C   0  0  0  0  0  0
    4.4040    1.2650  -23.2470 C   0  0  0  0  0  0
    5.3750    0.9430  -22.1210 C   0  0  2  0  0  0
    6.9410    2.4790  -22.7460 C   0  0  2  0  0  0
    5.3870    1.9730  -20.9800 C   0  0  0  0  0  0
   -2.1560    3.3220  -26.0350 C   0  0  0  0  0  0
   -1.2720    2.6770  -21.6700 C   0  0  0  0  0  0
   -0.2230    2.3480  -21.1880 C   0  0  0  0  0  0
   -0.6220    5.4980  -23.4090 F   0  0  0  0  0  0
   -3.4110    2.9920  -20.0810 F   0  0  0  0  0  0
    2.0330    5.8300  -23.0620 N   0  0  0  0  0  0
    4.2530    4.9150  -23.1800 N   0  0  0  0  0  0
    0.4920    2.3030  -24.7240 N   0  0  0  0  0  0
    4.6930    2.7040  -23.7610 N   0  0  0  0  0  0
    6.7660    1.0060  -22.6490 N   0  0  1  0  0  0
   -3.7380    3.4660  -27.7460 O   0  0  0  0  0  0
   -5.6950    3.5123  -21.0201 H   0  0  0  0  0  0
   -6.2496    3.7696  -23.4020 H   0  0  0  0  0  0
    5.8909    3.9234  -21.5070 H   0  0  0  0  0  0
    7.1806    2.9753  -20.6431 H   0  0  0  0  0  0
    6.5204    2.5527  -24.8596 H   0  0  0  0  0  0
    6.2873    4.1087  -23.9986 H   0  0  0  0  0  0
   -5.5231    3.7797  -25.7903 H   0  0  0  0  0  0
    2.4414    1.5759  -24.7430 H   0  0  0  0  0  0
    3.3729    1.2115  -22.8676 H   0  0  0  0  0  0
    4.5452    0.5468  -24.0681 H   0  0  0  0  0  0
    5.1690   -0.0608  -21.7211 H   0  0  0  0  0  0
    8.0057    2.7414  -22.8328 H   0  0  0  0  0  0
    4.4023    2.4593  -20.9174 H   0  0  0  0  0  0
    5.7198    1.4849  -20.0521 H   0  0  0  0  0  0
   -1.4102    3.2879  -26.8209 H   0  0  0  0  0  0
    0.6995    2.0578  -20.7638 H   0  0  0  0  0  0
    7.4386    0.5302  -21.9507 H   0  0  0  0  0  0
   -2.9061    3.3720  -28.1951 H   0  0  0  0  0  0
    3.6360    7.5240  -21.0910 N   0  0  1  0  0  0
    6.0660    9.9810  -21.6690 N   0  0  0  0  0  0
    7.4080    9.9300  -21.4780 N   0  0  0  0  0  0
    4.0560    8.8920  -20.6170 C   0  0  0  0  0  0
    3.9230    7.2320  -22.5390 C   0  0  0  0  0  0
    5.5490    9.1330  -20.7430 C   0  0  0  0  0  0
    6.5060    8.5720  -19.9960 C   0  0  0  0  0  0
    7.6920    9.1090  -20.5010 C   0  0  0  0  0  0
    4.1521    6.7688  -20.5168 H   0  0  0  0  0  0
    5.6730   10.5861  -22.4041 H   0  0  0  0  0  0
    3.7520    9.0240  -19.5681 H   0  0  0  0  0  0
    3.5118    9.6593  -21.1872 H   0  0  0  0  0  0
    5.0102    7.2420  -22.7060 H   0  0  0  0  0  0
    3.4829    8.0212  -23.1662 H   0  0  0  0  0  0
    6.2410    7.8719  -19.2119 H   0  0  0  0  0  0
    8.7240    8.9460  -20.2120 H   0  0  0  0  0  0
  1  2  2  0  0  0
  1  3  1  0  0  0
  1 34  1  0  0  0
  2  6  1  0  0  0
  2 35  1  0  0  0
  3  5  2  0  0  0
  3 27  1  0  0  0
  4  5  1  0  0  0
  4  6  2  0  0  0
  4 18  1  0  0  0
  5 24  1  0  0  0
  6 10  1  0  0  0
  7 10  2  0  0  0
  7 23  1  0  0  0
  7 33  1  0  0  0
  8 21  1  0  0  0
  8 22  1  0  0  0
  8 36  1  0  0  0
  8 37  1  0  0  0
  9 21  1  0  0  0
  9 31  1  0  0  0
  9 38  1  0  0  0
  9 39  1  0  0  0
 10 40  1  0  0  0
 11 12  1  0  0  0
 11 14  2  0  0  0
 11 15  1  0  0  0
 12 17  1  0  0  0
 12 28  2  0  0  0
 13 28  1  0  0  0
 13 29  2  0  0  0
 13 56  1  0  0  0
 14 29  1  0  0  0
 14 31  1  0  0  0
 15 30  2  0  0  0
 15 41  1  0  0  0
 16 17  2  0  0  0
 16 18  1  0  0  0
 16 30  1  0  0  0
 17 26  1  0  0  0
 18 23  2  0  0  0
 19 20  1  0  0  0
 19 31  1  0  0  0
 19 42  1  0  0  0
 19 43  1  0  0  0
 20 22  1  0  0  0
 20 32  1  0  0  0
 20 44  1  0  0  0
 21 32  1  0  0  0
 21 45  1  0  0  0
 22 46  1  0  0  0
 22 47  1  0  0  0
 23 48  1  0  0  0
 24 25  3  0  0  0
 25 49  1  0  0  0
 32 50  1  0  0  0
 33 51  1  0  0  0
 52 55  1  0  0  0
 52 56  1  0  0  0
 52 60  1  0  0  0
 53 54  1  0  0  0
 53 57  1  0  0  0
 53 61  1  0  0  0
 54 59  2  0  0  0
 55 57  1  0  0  0
 55 62  1  0  0  0
 55 63  1  0  0  0
 56 64  1  0  0  0
 56 65  1  0  0  0
 57 58  2  0  0  0
 58 59  1  0  0  0
 58 66  1  0  0  0
 59 67  1  0  0  0
M  END
> <s_m_entry_id>
549

> <s_m_entry_name>
000000391.1

> <s_m_Source_Path>
/Users/zaksoul/Documents/3r_UNI/2nd_SEMESTER/BSC/FRAG_RECON/RESULTS/2

> <s_m_Source_File>
000000391.mol2

> <i_m_Source_File_Index>
1

$$$$
No_0_413
                    3D
 Schrodinger Suite 2022-4.
 67 73  0  0  1  0            999 V2000
   -5.2450    3.5790  -22.1240 C   0  0  0  0  0  0
   -5.4850    3.7780  -23.4620 C   0  0  0  0  0  0
   -4.0120    3.3270  -21.7600 C   0  0  0  0  0  0
   -3.0790    3.4750  -23.9070 C   0  0  0  0  0  0
   -2.9450    3.2190  -22.4860 C   0  0  0  0  0  0
   -4.4170    3.7370  -24.4520 C   0  0  0  0  0  0
   -3.6190    3.7810  -26.6350 C   0  0  0  0  0  0
    6.0070    3.0350  -21.1840 C   0  0  0  0  0  0
    5.9190    3.1990  -23.7350 C   0  0  0  0  0  0
   -4.6420    3.8750  -25.7910 C   0  0  0  0  0  0
    2.1330    3.7340  -23.8220 C   0  0  0  0  0  0
    1.3020    4.8370  -23.5300 C   0  0  0  0  0  0
    3.0820    6.0330  -22.8040 C   0  0  0  0  0  0
    3.5260    3.9270  -23.4800 C   0  0  0  0  0  0
    1.6040    2.6210  -24.5040 C   0  0  0  0  0  0
   -0.5280    3.4260  -24.4280 C   0  0  0  0  0  0
   -0.0180    4.6420  -23.8080 C   0  0  0  0  0  0
   -1.9740    3.4300  -24.8110 C   0  0  0  0  0  0
    4.1350    1.4290  -23.1970 C   0  0  0  0  0  0
    5.0470    1.0660  -22.0350 C   0  0  2  0  0  0
    6.6450    2.6170  -22.5270 C   0  0  2  0  0  0
    5.0020    2.0580  -20.8600 C   0  0  0  0  0  0
   -2.2720    3.6000  -26.2440 C   0  0  0  0  0  0
   -1.6120    2.8050  -21.8640 C   0  0  0  0  0  0
   -0.5900    2.4570  -21.3410 C   0  0  0  0  0  0
   -0.8700    5.6820  -23.4720 F   0  0  0  0  0  0
   -3.8280    3.0730  -20.3770 F   0  0  0  0  0  0
    1.7640    5.9930  -22.9790 N   0  0  0  0  0  0
    3.9860    5.0750  -23.0150 N   0  0  0  0  0  0
    0.3040    2.5290  -24.8350 N   0  0  0  0  0  0
    4.4510    2.8840  -23.6480 N   0  0  0  0  0  0
    6.4630    1.1430  -22.4890 N   0  0  1  0  0  0
   -3.7640    3.8070  -28.0270 O   0  0  0  0  0  0
   -6.0610    3.6332  -21.4124 H   0  0  0  0  0  0
   -6.4933    3.9726  -23.8091 H   0  0  0  0  0  0
    5.5350    4.0224  -21.2949 H   0  0  0  0  0  0
    6.7782    3.0421  -20.3997 H   0  0  0  0  0  0
    6.3329    2.7639  -24.6566 H   0  0  0  0  0  0
    6.0583    4.2900  -23.7552 H   0  0  0  0  0  0
   -5.6462    4.0596  -26.1552 H   0  0  0  0  0  0
    2.2511    1.7963  -24.7799 H   0  0  0  0  0  0
    3.0857    1.3654  -22.8731 H   0  0  0  0  0  0
    4.3166    0.7390  -24.0342 H   0  0  0  0  0  0
    4.8197    0.0498  -21.6804 H   0  0  0  0  0  0
    7.7132    2.8785  -22.5502 H   0  0  0  0  0  0
    4.0158    2.5445  -20.8317 H   0  0  0  0  0  0
    5.2865    1.5374  -19.9337 H   0  0  0  0  0  0
   -1.4872    3.5900  -26.9917 H   0  0  0  0  0  0
    0.3093    2.1502  -20.8803 H   0  0  0  0  0  0
    7.0982    0.6404  -21.7747 H   0  0  0  0  0  0
   -2.9108    3.7258  -28.4368 H   0  0  0  0  0  0
    3.9340    7.3310  -20.8410 N   0  0  1  0  0  0
    5.6460   10.2730  -21.6730 N   0  0  0  0  0  0
    6.9450   10.4470  -22.0230 N   0  0  0  0  0  0
    4.3710    8.6430  -20.2400 C   0  0  0  0  0  0
    3.6270    7.3700  -22.3140 C   0  0  0  0  0  0
    5.6460    9.1860  -20.8590 C   0  0  0  0  0  0
    6.8770    8.6910  -20.6930 C   0  0  0  0  0  0
    7.6880    9.5300  -21.4600 C   0  0  0  0  0  0
    4.7152    6.5968  -20.7100 H   0  0  0  0  0  0
    4.9250   10.9150  -22.0320 H   0  0  0  0  0  0
    4.5141    8.5189  -19.1564 H   0  0  0  0  0  0
    3.5652    9.3829  -20.3550 H   0  0  0  0  0  0
    4.5418    7.6189  -22.8719 H   0  0  0  0  0  0
    2.8900    8.1620  -22.5130 H   0  0  0  0  0  0
    7.0320    7.8219  -20.0639 H   0  0  0  0  0  0
    8.7582    9.5180  -21.6319 H   0  0  0  0  0  0
  1  2  2  0  0  0
  1  3  1  0  0  0
  1 34  1  0  0  0
  2  6  1  0  0  0
  2 35  1  0  0  0
  3  5  2  0  0  0
  3 27  1  0  0  0
  4  5  1  0  0  0
  4  6  2  0  0  0
  4 18  1  0  0  0
  5 24  1  0  0  0
  6 10  1  0  0  0
  7 10  2  0  0  0
  7 23  1  0  0  0
  7 33  1  0  0  0
  8 21  1  0  0  0
  8 22  1  0  0  0
  8 36  1  0  0  0
  8 37  1  0  0  0
  9 21  1  0  0  0
  9 31  1  0  0  0
  9 38  1  0  0  0
  9 39  1  0  0  0
 10 40  1  0  0  0
 11 12  1  0  0  0
 11 14  2  0  0  0
 11 15  1  0  0  0
 12 17  1  0  0  0
 12 28  2  0  0  0
 13 28  1  0  0  0
 13 29  2  0  0  0
 13 56  1  0  0  0
 14 29  1  0  0  0
 14 31  1  0  0  0
 15 30  2  0  0  0
 15 41  1  0  0  0
 16 17  2  0  0  0
 16 18  1  0  0  0
 16 30  1  0  0  0
 17 26  1  0  0  0
 18 23  2  0  0  0
 19 20  1  0  0  0
 19 31  1  0  0  0
 19 42  1  0  0  0
 19 43  1  0  0  0
 20 22  1  0  0  0
 20 32  1  0  0  0
 20 44  1  0  0  0
 21 32  1  0  0  0
 21 45  1  0  0  0
 22 46  1  0  0  0
 22 47  1  0  0  0
 23 48  1  0  0  0
 24 25  3  0  0  0
 25 49  1  0  0  0
 32 50  1  0  0  0
 33 51  1  0  0  0
 52 55  1  0  0  0
 52 56  1  0  0  0
 52 60  1  0  0  0
 53 54  1  0  0  0
 53 57  1  0  0  0
 53 61  1  0  0  0
 54 59  2  0  0  0
 55 57  1  0  0  0
 55 62  1  0  0  0
 55 63  1  0  0  0
 56 64  1  0  0  0
 56 65  1  0  0  0
 57 58  2  0  0  0
 58 59  1  0  0  0
 58 66  1  0  0  0
 59 67  1  0  0  0
M  END
> <s_m_entry_id>
550

> <s_m_entry_name>
000000392.1

> <s_m_Source_Path>
/Users/zaksoul/Documents/3r_UNI/2nd_SEMESTER/BSC/FRAG_RECON/RESULTS/2

> <s_m_Source_File>
000000392.mol2

> <i_m_Source_File_Index>
1

$$$$
No_0_414
                    3D
 Schrodinger Suite 2022-4.
 67 73  0  0  1  0            999 V2000
   -5.1810    3.6090  -21.8530 C   0  0  0  0  0  0
   -5.4520    3.8050  -23.1860 C   0  0  0  0  0  0
   -3.9420    3.3510  -21.5190 C   0  0  0  0  0  0
   -3.0590    3.4860  -23.6870 C   0  0  0  0  0  0
   -2.8930    3.2340  -22.2690 C   0  0  0  0  0  0
   -4.4090    3.7540  -24.2010 C   0  0  0  0  0  0
   -3.6630    3.7850  -26.4030 C   0  0  0  0  0  0
    6.0870    3.0010  -21.1820 C   0  0  0  0  0  0
    5.9380    3.1560  -23.7310 C   0  0  0  0  0  0
   -4.6650    3.8890  -25.5350 C   0  0  0  0  0  0
    2.1540    3.7130  -23.7290 C   0  0  0  0  0  0
    1.3370    4.8230  -23.4210 C   0  0  0  0  0  0
    3.1410    6.0110  -22.7430 C   0  0  0  0  0  0
    3.5570    3.8990  -23.4210 C   0  0  0  0  0  0
    1.6030    2.6010  -24.3930 C   0  0  0  0  0  0
   -0.5220    3.4190  -24.2700 C   0  0  0  0  0  0
    0.0100    4.6350  -23.6670 C   0  0  0  0  0  0
   -1.9770    3.4300  -24.6180 C   0  0  0  0  0  0
    4.1570    1.3990  -23.1440 C   0  0  0  0  0  0
    5.0950    1.0350  -22.0030 C   0  0  2  0  0  0
    6.6890    2.5740  -22.5390 C   0  0  2  0  0  0
    5.0840    2.0310  -20.8310 C   0  0  0  0  0  0
   -2.3080    3.5970  -26.0440 C   0  0  0  0  0  0
   -1.5470    2.8150  -21.6780 C   0  0  0  0  0  0
   -0.5150    2.4620  -21.1780 C   0  0  0  0  0  0
   -0.8280    5.6800  -23.3140 F   0  0  0  0  0  0
   -3.7260    3.1020  -20.1390 F   0  0  0  0  0  0
    1.8200    5.9780  -22.8860 N   0  0  0  0  0  0
    4.0350    5.0470  -22.9720 N   0  0  0  0  0  0
    0.2950    2.5160  -24.6930 N   0  0  0  0  0  0
    4.4710    2.8500  -23.6070 N   0  0  0  0  0  0
    6.5000    1.1010  -22.4910 N   0  0  1  0  0  0
   -3.8410    3.8060  -27.7920 O   0  0  0  0  0  0
   -5.9796    3.6712  -21.1226 H   0  0  0  0  0  0
   -6.4675    4.0037  -23.5091 H   0  0  0  0  0  0
    5.6179    3.9906  -21.2849 H   0  0  0  0  0  0
    6.8763    3.0060  -20.4159 H   0  0  0  0  0  0
    6.3275    2.7150  -24.6604 H   0  0  0  0  0  0
    6.0833    4.2460  -23.7593 H   0  0  0  0  0  0
   -5.6765    4.0776  -25.8762 H   0  0  0  0  0  0
    2.2385    1.7718  -24.6821 H   0  0  0  0  0  0
    3.1157    1.3435  -22.7939 H   0  0  0  0  0  0
    4.3144    0.7047  -23.9826 H   0  0  0  0  0  0
    4.8700    0.0218  -21.6387 H   0  0  0  0  0  0
    7.7578    2.8293  -22.5885 H   0  0  0  0  0  0
    4.1018    2.5236  -20.7805 H   0  0  0  0  0  0
    5.3877    1.5123  -19.9097 H   0  0  0  0  0  0
   -1.5411    3.5789  -26.8099 H   0  0  0  0  0  0
    0.3934    2.1519  -20.7378 H   0  0  0  0  0  0
    7.1492    0.5983  -21.7894 H   0  0  0  0  0  0
   -2.9984    3.7179  -28.2217 H   0  0  0  0  0  0
    4.3140    7.2310  -20.8990 N   0  0  1  0  0  0
    5.6600   10.3300  -21.8300 N   0  0  0  0  0  0
    6.8470   10.6130  -22.4220 N   0  0  0  0  0  0
    4.7970    8.5270  -20.3000 C   0  0  0  0  0  0
    3.7060    7.3460  -22.2710 C   0  0  0  0  0  0
    5.8860    9.1940  -21.1200 C   0  0  0  0  0  0
    7.1490    8.7730  -21.2480 C   0  0  0  0  0  0
    7.7380    9.7130  -22.0960 C   0  0  0  0  0  0
    5.1428    6.5442  -20.9870 H   0  0  0  0  0  0
    4.8477   10.9442  -21.9841 H   0  0  0  0  0  0
    5.1689    8.3421  -19.2814 H   0  0  0  0  0  0
    3.9476    9.2173  -20.1900 H   0  0  0  0  0  0
    4.4709    7.6919  -22.9819 H   0  0  0  0  0  0
    2.9032    8.0978  -22.2540 H   0  0  0  0  0  0
    7.4760    7.8770  -20.7330 H   0  0  0  0  0  0
    8.7480    9.7850  -22.4830 H   0  0  0  0  0  0
  1  2  2  0  0  0
  1  3  1  0  0  0
  1 34  1  0  0  0
  2  6  1  0  0  0
  2 35  1  0  0  0
  3  5  2  0  0  0
  3 27  1  0  0  0
  4  5  1  0  0  0
  4  6  2  0  0  0
  4 18  1  0  0  0
  5 24  1  0  0  0
  6 10  1  0  0  0
  7 10  2  0  0  0
  7 23  1  0  0  0
  7 33  1  0  0  0
  8 21  1  0  0  0
  8 22  1  0  0  0
  8 36  1  0  0  0
  8 37  1  0  0  0
  9 21  1  0  0  0
  9 31  1  0  0  0
  9 38  1  0  0  0
  9 39  1  0  0  0
 10 40  1  0  0  0
 11 12  1  0  0  0
 11 14  2  0  0  0
 11 15  1  0  0  0
 12 17  1  0  0  0
 12 28  2  0  0  0
 13 28  1  0  0  0
 13 29  2  0  0  0
 13 56  1  0  0  0
 14 29  1  0  0  0
 14 31  1  0  0  0
 15 30  2  0  0  0
 15 41  1  0  0  0
 16 17  2  0  0  0
 16 18  1  0  0  0
 16 30  1  0  0  0
 17 26  1  0  0  0
 18 23  2  0  0  0
 19 20  1  0  0  0
 19 31  1  0  0  0
 19 42  1  0  0  0
 19 43  1  0  0  0
 20 22  1  0  0  0
 20 32  1  0  0  0
 20 44  1  0  0  0
 21 32  1  0  0  0
 21 45  1  0  0  0
 22 46  1  0  0  0
 22 47  1  0  0  0
 23 48  1  0  0  0
 24 25  3  0  0  0
 25 49  1  0  0  0
 32 50  1  0  0  0
 33 51  1  0  0  0
 52 55  1  0  0  0
 52 56  1  0  0  0
 52 60  1  0  0  0
 53 54  1  0  0  0
 53 57  1  0  0  0
 53 61  1  0  0  0
 54 59  2  0  0  0
 55 57  1  0  0  0
 55 62  1  0  0  0
 55 63  1  0  0  0
 56 64  1  0  0  0
 56 65  1  0  0  0
 57 58  2  0  0  0
 58 59  1  0  0  0
 58 66  1  0  0  0
 59 67  1  0  0  0
M  END
> <s_m_entry_id>
551

> <s_m_entry_name>
000000393.1

> <s_m_Source_Path>
/Users/zaksoul/Documents/3r_UNI/2nd_SEMESTER/BSC/FRAG_RECON/RESULTS/2

> <s_m_Source_File>
000000393.mol2

> <i_m_Source_File_Index>
1

$$$$
No_0_415
                    3D
 Schrodinger Suite 2022-4.
 67 73  0  0  1  0            999 V2000
   -5.3810    3.4740  -22.0080 C   0  0  0  0  0  0
   -5.6420    3.6540  -23.3460 C   0  0  0  0  0  0
   -4.1440    3.2260  -21.6600 C   0  0  0  0  0  0
   -3.2430    3.3430  -23.8220 C   0  0  0  0  0  0
   -3.0880    3.1070  -22.3990 C   0  0  0  0  0  0
   -4.5880    3.5980  -24.3510 C   0  0  0  0  0  0
   -3.8230    3.6090  -26.5460 C   0  0  0  0  0  0
    5.8830    2.9350  -21.2290 C   0  0  0  0  0  0
    5.7560    3.0620  -23.7800 C   0  0  0  0  0  0
   -4.8340    3.7170  -25.6880 C   0  0  0  0  0  0
    1.9700    3.5980  -23.8190 C   0  0  0  0  0  0
    1.1440    4.7060  -23.5300 C   0  0  0  0  0  0
    2.9360    5.9110  -22.8490 C   0  0  0  0  0  0
    3.3680    3.7950  -23.5000 C   0  0  0  0  0  0
    1.4300    2.4760  -24.4760 C   0  0  0  0  0  0
   -0.7000    3.2830  -24.3810 C   0  0  0  0  0  0
   -0.1800    4.5090  -23.7860 C   0  0  0  0  0  0
   -2.1510    3.2830  -24.7420 C   0  0  0  0  0  0
    3.9800    1.3010  -23.1910 C   0  0  0  0  0  0
    4.9090    0.9550  -22.0370 C   0  0  2  0  0  0
    6.5000    2.4970  -22.5750 C   0  0  2  0  0  0
    4.8830    1.9630  -20.8760 C   0  0  0  0  0  0
   -2.4700    3.4330  -26.1720 C   0  0  0  0  0  0
   -1.7450    2.7010  -21.7920 C   0  0  0  0  0  0
   -0.7160    2.3600  -21.2790 C   0  0  0  0  0  0
   -1.0260    5.5530  -23.4520 F   0  0  0  0  0  0
   -3.9390    2.9930  -20.2750 F   0  0  0  0  0  0
    1.6160    5.8700  -23.0030 N   0  0  0  0  0  0
    3.8360    4.9500  -23.0590 N   0  0  0  0  0  0
    0.1260    2.3810  -24.7870 N   0  0  0  0  0  0
    4.2900    2.7490  -23.6670 N   0  0  0  0  0  0
    6.3180    1.0230  -22.5140 N   0  0  1  0  0  0
   -3.9890    3.6150  -27.9360 O   0  0  0  0  0  0
   -6.1866    3.5392  -21.2857 H   0  0  0  0  0  0
   -6.6555    3.8438  -23.6805 H   0  0  0  0  0  0
    5.4097    3.9209  -21.3471 H   0  0  0  0  0  0
    6.6653    2.9522  -20.4558 H   0  0  0  0  0  0
    6.1565    2.6131  -24.7009 H   0  0  0  0  0  0
    5.8963    4.1523  -23.8184 H   0  0  0  0  0  0
   -5.8432    3.8968  -26.0405 H   0  0  0  0  0  0
    2.0730    1.6474  -24.7499 H   0  0  0  0  0  0
    2.9358    1.2435  -22.8500 H   0  0  0  0  0  0
    4.1485    0.5986  -24.0206 H   0  0  0  0  0  0
    4.6861   -0.0558  -21.6648 H   0  0  0  0  0  0
    7.5679    2.7574  -22.6184 H   0  0  0  0  0  0
    3.8974    2.4502  -20.8407 H   0  0  0  0  0  0
    5.1797    1.4553  -19.9464 H   0  0  0  0  0  0
   -1.6971    3.4119  -26.9318 H   0  0  0  0  0  0
    0.1901    2.0590  -20.8279 H   0  0  0  0  0  0
    6.9635    0.5314  -21.8012 H   0  0  0  0  0  0
   -3.1422    3.5270  -28.3574 H   0  0  0  0  0  0
    4.5040    7.0820  -21.2880 N   0  0  1  0  0  0
    5.1860   10.4120  -22.1370 N   0  0  0  0  0  0
    6.0950   10.9120  -23.0120 N   0  0  0  0  0  0
    5.0240    8.3620  -20.6860 C   0  0  0  0  0  0
    3.4890    7.2550  -22.3860 C   0  0  0  0  0  0
    5.7310    9.2500  -21.6940 C   0  0  0  0  0  0
    6.9250    9.0190  -22.2500 C   0  0  0  0  0  0
    7.1250   10.1110  -23.0960 C   0  0  0  0  0  0
    5.3253    6.5254  -21.7147 H   0  0  0  0  0  0
    4.3118   10.9251  -21.9540 H   0  0  0  0  0  0
    5.7124    8.1249  -19.8615 H   0  0  0  0  0  0
    4.1899    8.9171  -20.2319 H   0  0  0  0  0  0
    3.9553    7.7723  -23.2375 H   0  0  0  0  0  0
    2.6639    7.8860  -22.0240 H   0  0  0  0  0  0
    7.4808    8.1263  -21.9871 H   0  0  0  0  0  0
    7.9506   10.3579  -23.7537 H   0  0  0  0  0  0
  1  2  2  0  0  0
  1  3  1  0  0  0
  1 34  1  0  0  0
  2  6  1  0  0  0
  2 35  1  0  0  0
  3  5  2  0  0  0
  3 27  1  0  0  0
  4  5  1  0  0  0
  4  6  2  0  0  0
  4 18  1  0  0  0
  5 24  1  0  0  0
  6 10  1  0  0  0
  7 10  2  0  0  0
  7 23  1  0  0  0
  7 33  1  0  0  0
  8 21  1  0  0  0
  8 22  1  0  0  0
  8 36  1  0  0  0
  8 37  1  0  0  0
  9 21  1  0  0  0
  9 31  1  0  0  0
  9 38  1  0  0  0
  9 39  1  0  0  0
 10 40  1  0  0  0
 11 12  1  0  0  0
 11 14  2  0  0  0
 11 15  1  0  0  0
 12 17  1  0  0  0
 12 28  2  0  0  0
 13 28  1  0  0  0
 13 29  2  0  0  0
 13 56  1  0  0  0
 14 29  1  0  0  0
 14 31  1  0  0  0
 15 30  2  0  0  0
 15 41  1  0  0  0
 16 17  2  0  0  0
 16 18  1  0  0  0
 16 30  1  0  0  0
 17 26  1  0  0  0
 18 23  2  0  0  0
 19 20  1  0  0  0
 19 31  1  0  0  0
 19 42  1  0  0  0
 19 43  1  0  0  0
 20 22  1  0  0  0
 20 32  1  0  0  0
 20 44  1  0  0  0
 21 32  1  0  0  0
 21 45  1  0  0  0
 22 46  1  0  0  0
 22 47  1  0  0  0
 23 48  1  0  0  0
 24 25  3  0  0  0
 25 49  1  0  0  0
 32 50  1  0  0  0
 33 51  1  0  0  0
 52 55  1  0  0  0
 52 56  1  0  0  0
 52 60  1  0  0  0
 53 54  1  0  0  0
 53 57  1  0  0  0
 53 61  1  0  0  0
 54 59  2  0  0  0
 55 57  1  0  0  0
 55 62  1  0  0  0
 55 63  1  0  0  0
 56 64  1  0  0  0
 56 65  1  0  0  0
 57 58  2  0  0  0
 58 59  1  0  0  0
 58 66  1  0  0  0
 59 67  1  0  0  0
M  END
> <s_m_entry_id>
552

> <s_m_entry_name>
000000394.1

> <s_m_Source_Path>
/Users/zaksoul/Documents/3r_UNI/2nd_SEMESTER/BSC/FRAG_RECON/RESULTS/2

> <s_m_Source_File>
000000394.mol2

> <i_m_Source_File_Index>
1

$$$$
No_0_416
                    3D
 Schrodinger Suite 2022-4.
 67 73  0  0  1  0            999 V2000
   -5.4420    3.4000  -21.9770 C   0  0  0  0  0  0
   -5.7060    3.5970  -23.3120 C   0  0  0  0  0  0
   -4.2050    3.1440  -21.6360 C   0  0  0  0  0  0
   -3.3090    3.2830  -23.7990 C   0  0  0  0  0  0
   -3.1510    3.0300  -22.3800 C   0  0  0  0  0  0
   -4.6560    3.5500  -24.3210 C   0  0  0  0  0  0
   -3.8970    3.5850  -26.5180 C   0  0  0  0  0  0
    5.8220    2.8110  -21.2400 C   0  0  0  0  0  0
    5.6880    2.9690  -23.7880 C   0  0  0  0  0  0
   -4.9050    3.6860  -25.6560 C   0  0  0  0  0  0
    1.9040    3.5200  -23.8090 C   0  0  0  0  0  0
    1.0830    4.6270  -23.5040 C   0  0  0  0  0  0
    2.8810    5.8170  -22.8140 C   0  0  0  0  0  0
    3.3040    3.7080  -23.4920 C   0  0  0  0  0  0
    1.3580    2.4070  -24.4780 C   0  0  0  0  0  0
   -0.7690    3.2210  -24.3660 C   0  0  0  0  0  0
   -0.2420    4.4380  -23.7590 C   0  0  0  0  0  0
   -2.2210    3.2310  -24.7230 C   0  0  0  0  0  0
    3.9070    1.2080  -23.2150 C   0  0  0  0  0  0
    4.8390    0.8440  -22.0690 C   0  0  2  0  0  0
    6.4340    2.3870  -22.5930 C   0  0  2  0  0  0
    4.8190    1.8380  -20.8950 C   0  0  0  0  0  0
   -2.5440    3.3990  -26.1510 C   0  0  0  0  0  0
   -1.8080    2.6120  -21.7820 C   0  0  0  0  0  0
   -0.7790    2.2600  -21.2760 C   0  0  0  0  0  0
   -1.0840    5.4810  -23.4090 F   0  0  0  0  0  0
   -3.9970    2.8930  -20.2550 F   0  0  0  0  0  0
    1.5600    5.7820  -22.9650 N   0  0  0  0  0  0
    3.7770    4.8550  -23.0390 N   0  0  0  0  0  0
    0.0520    2.3210  -24.7860 N   0  0  0  0  0  0
    4.2220    2.6600  -23.6740 N   0  0  0  0  0  0
    6.2460    0.9130  -22.5480 N   0  0  1  0  0  0
   -4.0670    3.6080  -27.9080 O   0  0  0  0  0  0
   -6.2455    3.4593  -21.2518 H   0  0  0  0  0  0
   -6.7197    3.7947  -23.6412 H   0  0  0  0  0  0
    5.3526    3.8004  -21.3440 H   0  0  0  0  0  0
    6.6068    2.8160  -20.4693 H   0  0  0  0  0  0
    6.0843    2.5304  -24.7157 H   0  0  0  0  0  0
    5.8322    4.0592  -23.8142 H   0  0  0  0  0  0
   -5.9146    3.8737  -26.0032 H   0  0  0  0  0  0
    1.9975    1.5798  -24.7641 H   0  0  0  0  0  0
    2.8638    1.1495  -22.8710 H   0  0  0  0  0  0
    4.0704    0.5149  -24.0534 H   0  0  0  0  0  0
    4.6130   -0.1698  -21.7069 H   0  0  0  0  0  0
    7.5028    2.6434  -22.6364 H   0  0  0  0  0  0
    3.8359    2.3295  -20.8506 H   0  0  0  0  0  0
    5.1177    1.3183  -19.9727 H   0  0  0  0  0  0
   -1.7731    3.3839  -26.9129 H   0  0  0  0  0  0
    0.1273    1.9509  -20.8308 H   0  0  0  0  0  0
    6.8926    0.4107  -21.8437 H   0  0  0  0  0  0
   -3.2216    3.5219  -28.3327 H   0  0  0  0  0  0
    4.6940    6.9650  -21.5250 N   0  0  1  0  0  0
    4.9440   10.4090  -22.1160 N   0  0  0  0  0  0
    5.5880   11.0710  -23.1110 N   0  0  0  0  0  0
    5.2570    8.2220  -20.9120 C   0  0  0  0  0  0
    3.4410    7.1530  -22.3360 C   0  0  0  0  0  0
    5.6510    9.2630  -21.9440 C   0  0  0  0  0  0
    6.6930    9.1930  -22.7790 C   0  0  0  0  0  0
    6.6190   10.3770  -23.5170 C   0  0  0  0  0  0
    5.4262    6.5269  -22.1871 H   0  0  0  0  0  0
    4.1061   10.8219  -21.6821 H   0  0  0  0  0  0
    6.1332    7.9669  -20.2978 H   0  0  0  0  0  0
    4.5190    8.6540  -20.2200 H   0  0  0  0  0  0
    3.6599    7.7898  -23.2058 H   0  0  0  0  0  0
    2.6840    7.6700  -21.7280 H   0  0  0  0  0  0
    7.3510    8.3320  -22.7530 H   0  0  0  0  0  0
    7.2503   10.7582  -24.3114 H   0  0  0  0  0  0
  1  2  2  0  0  0
  1  3  1  0  0  0
  1 34  1  0  0  0
  2  6  1  0  0  0
  2 35  1  0  0  0
  3  5  2  0  0  0
  3 27  1  0  0  0
  4  5  1  0  0  0
  4  6  2  0  0  0
  4 18  1  0  0  0
  5 24  1  0  0  0
  6 10  1  0  0  0
  7 10  2  0  0  0
  7 23  1  0  0  0
  7 33  1  0  0  0
  8 21  1  0  0  0
  8 22  1  0  0  0
  8 36  1  0  0  0
  8 37  1  0  0  0
  9 21  1  0  0  0
  9 31  1  0  0  0
  9 38  1  0  0  0
  9 39  1  0  0  0
 10 40  1  0  0  0
 11 12  1  0  0  0
 11 14  2  0  0  0
 11 15  1  0  0  0
 12 17  1  0  0  0
 12 28  2  0  0  0
 13 28  1  0  0  0
 13 29  2  0  0  0
 13 56  1  0  0  0
 14 29  1  0  0  0
 14 31  1  0  0  0
 15 30  2  0  0  0
 15 41  1  0  0  0
 16 17  2  0  0  0
 16 18  1  0  0  0
 16 30  1  0  0  0
 17 26  1  0  0  0
 18 23  2  0  0  0
 19 20  1  0  0  0
 19 31  1  0  0  0
 19 42  1  0  0  0
 19 43  1  0  0  0
 20 22  1  0  0  0
 20 32  1  0  0  0
 20 44  1  0  0  0
 21 32  1  0  0  0
 21 45  1  0  0  0
 22 46  1  0  0  0
 22 47  1  0  0  0
 23 48  1  0  0  0
 24 25  3  0  0  0
 25 49  1  0  0  0
 32 50  1  0  0  0
 33 51  1  0  0  0
 52 55  1  0  0  0
 52 56  1  0  0  0
 52 60  1  0  0  0
 53 54  1  0  0  0
 53 57  1  0  0  0
 53 61  1  0  0  0
 54 59  2  0  0  0
 55 57  1  0  0  0
 55 62  1  0  0  0
 55 63  1  0  0  0
 56 64  1  0  0  0
 56 65  1  0  0  0
 57 58  2  0  0  0
 58 59  1  0  0  0
 58 66  1  0  0  0
 59 67  1  0  0  0
M  END
> <s_m_entry_id>
553

> <s_m_entry_name>
000000395.1

> <s_m_Source_Path>
/Users/zaksoul/Documents/3r_UNI/2nd_SEMESTER/BSC/FRAG_RECON/RESULTS/2

> <s_m_Source_File>
000000395.mol2

> <i_m_Source_File_Index>
1

$$$$
No_0_417
                    3D
 Schrodinger Suite 2022-4.
 67 73  0  0  1  0            999 V2000
   -5.4570    3.3200  -21.9990 C   0  0  0  0  0  0
   -5.7120    3.4950  -23.3380 C   0  0  0  0  0  0
   -4.2140    3.1140  -21.6410 C   0  0  0  0  0  0
   -3.3000    3.2680  -23.7950 C   0  0  0  0  0  0
   -3.1490    3.0340  -22.3710 C   0  0  0  0  0  0
   -4.6490    3.4780  -24.3340 C   0  0  0  0  0  0
   -3.8660    3.5220  -26.5220 C   0  0  0  0  0  0
    5.8130    3.1680  -21.1270 C   0  0  0  0  0  0
    5.7030    3.2980  -23.6780 C   0  0  0  0  0  0
   -4.8870    3.5920  -25.6730 C   0  0  0  0  0  0
    1.9010    3.7030  -23.7470 C   0  0  0  0  0  0
    1.0350    4.7810  -23.4630 C   0  0  0  0  0  0
    2.7780    6.0460  -22.7630 C   0  0  0  0  0  0
    3.2890    3.9480  -23.4160 C   0  0  0  0  0  0
    1.4060    2.5650  -24.4120 C   0  0  0  0  0  0
   -0.7520    3.2980  -24.3320 C   0  0  0  0  0  0
   -0.2790    4.5390  -23.7300 C   0  0  0  0  0  0
   -2.1990    3.2490  -24.7060 C   0  0  0  0  0  0
    3.9840    1.4750  -23.1080 C   0  0  0  0  0  0
    4.9150    1.1580  -21.9480 C   0  0  2  0  0  0
    6.4560    2.7560  -22.4690 C   0  0  2  0  0  0
    4.8440    2.1610  -20.7850 C   0  0  0  0  0  0
   -2.5120    3.3920  -26.1380 C   0  0  0  0  0  0
   -1.7980    2.6730  -21.7540 C   0  0  0  0  0  0
   -0.7620    2.3650  -21.2330 C   0  0  0  0  0  0
   -1.1640    5.5530  -23.4000 F   0  0  0  0  0  0
   -4.0130    2.8840  -20.2550 F   0  0  0  0  0  0
    1.4610    5.9590  -22.9290 N   0  0  0  0  0  0
    3.7130    5.1170  -22.9680 N   0  0  0  0  0  0
    0.1080    2.4250  -24.7340 N   0  0  0  0  0  0
    4.2480    2.9340  -23.5780 N   0  0  0  0  0  0
    6.3240    1.2760  -22.4120 N   0  0  1  0  0  0
   -4.0210    3.5260  -27.9140 O   0  0  0  0  0  0
   -6.2697    3.3551  -21.2826 H   0  0  0  0  0  0
   -6.7287    3.6506  -23.6803 H   0  0  0  0  0  0
    5.3067    4.1373  -21.2460 H   0  0  0  0  0  0
    6.5877    3.2104  -20.3472 H   0  0  0  0  0  0
    6.1257    2.8662  -24.5971 H   0  0  0  0  0  0
    5.8049    4.3927  -23.7133 H   0  0  0  0  0  0
   -5.8988    3.7385  -26.0333 H   0  0  0  0  0  0
    2.0789    1.7595  -24.6832 H   0  0  0  0  0  0
    2.9396    1.3801  -22.7760 H   0  0  0  0  0  0
    4.1828    0.7817  -23.9385 H   0  0  0  0  0  0
    4.7234    0.1393  -21.5799 H   0  0  0  0  0  0
    7.5147    3.0527  -22.5023 H   0  0  0  0  0  0
    3.8421    2.6140  -20.7557 H   0  0  0  0  0  0
    5.1506    1.6617  -19.8540 H   0  0  0  0  0  0
   -1.7316    3.3990  -26.8903 H   0  0  0  0  0  0
    0.1503    2.0949  -20.7749 H   0  0  0  0  0  0
    6.9805    0.8045  -21.6957 H   0  0  0  0  0  0
   -3.1681    3.4686  -28.3286 H   0  0  0  0  0  0
    4.6960    7.3240  -21.7870 N   0  0  1  0  0  0
    4.4310   10.8040  -22.0910 N   0  0  0  0  0  0
    4.7620   11.6080  -23.1330 N   0  0  0  0  0  0
    5.2410    8.5970  -21.1930 C   0  0  0  0  0  0
    3.2810    7.4060  -22.2920 C   0  0  0  0  0  0
    5.2790    9.7480  -22.1820 C   0  0  0  0  0  0
    6.1110    9.8680  -23.2220 C   0  0  0  0  0  0
    5.7460   11.0790  -23.8130 C   0  0  0  0  0  0
    5.3053    7.0288  -22.6284 H   0  0  0  0  0  0
    3.6704   11.0769  -21.4523 H   0  0  0  0  0  0
    6.2541    8.4150  -20.8050 H   0  0  0  0  0  0
    4.6325    8.8838  -20.3227 H   0  0  0  0  0  0
    3.2300    8.1233  -23.1244 H   0  0  0  0  0  0
    2.6272    7.7799  -21.4903 H   0  0  0  0  0  0
    6.8482    9.0978  -23.4180 H   0  0  0  0  0  0
    6.1398   11.5908  -24.6836 H   0  0  0  0  0  0
  1  2  2  0  0  0
  1  3  1  0  0  0
  1 34  1  0  0  0
  2  6  1  0  0  0
  2 35  1  0  0  0
  3  5  2  0  0  0
  3 27  1  0  0  0
  4  5  1  0  0  0
  4  6  2  0  0  0
  4 18  1  0  0  0
  5 24  1  0  0  0
  6 10  1  0  0  0
  7 10  2  0  0  0
  7 23  1  0  0  0
  7 33  1  0  0  0
  8 21  1  0  0  0
  8 22  1  0  0  0
  8 36  1  0  0  0
  8 37  1  0  0  0
  9 21  1  0  0  0
  9 31  1  0  0  0
  9 38  1  0  0  0
  9 39  1  0  0  0
 10 40  1  0  0  0
 11 12  1  0  0  0
 11 14  2  0  0  0
 11 15  1  0  0  0
 12 17  1  0  0  0
 12 28  2  0  0  0
 13 28  1  0  0  0
 13 29  2  0  0  0
 13 56  1  0  0  0
 14 29  1  0  0  0
 14 31  1  0  0  0
 15 30  2  0  0  0
 15 41  1  0  0  0
 16 17  2  0  0  0
 16 18  1  0  0  0
 16 30  1  0  0  0
 17 26  1  0  0  0
 18 23  2  0  0  0
 19 20  1  0  0  0
 19 31  1  0  0  0
 19 42  1  0  0  0
 19 43  1  0  0  0
 20 22  1  0  0  0
 20 32  1  0  0  0
 20 44  1  0  0  0
 21 32  1  0  0  0
 21 45  1  0  0  0
 22 46  1  0  0  0
 22 47  1  0  0  0
 23 48  1  0  0  0
 24 25  3  0  0  0
 25 49  1  0  0  0
 32 50  1  0  0  0
 33 51  1  0  0  0
 52 55  1  0  0  0
 52 56  1  0  0  0
 52 60  1  0  0  0
 53 54  1  0  0  0
 53 57  1  0  0  0
 53 61  1  0  0  0
 54 59  2  0  0  0
 55 57  1  0  0  0
 55 62  1  0  0  0
 55 63  1  0  0  0
 56 64  1  0  0  0
 56 65  1  0  0  0
 57 58  2  0  0  0
 58 59  1  0  0  0
 58 66  1  0  0  0
 59 67  1  0  0  0
M  END
> <s_m_entry_id>
554

> <s_m_entry_name>
000000396.1

> <s_m_Source_Path>
/Users/zaksoul/Documents/3r_UNI/2nd_SEMESTER/BSC/FRAG_RECON/RESULTS/2

> <s_m_Source_File>
000000396.mol2

> <i_m_Source_File_Index>
1

$$$$
No_0_418
                    3D
 Schrodinger Suite 2022-4.
 71 77  0  0  1  0            999 V2000
   -5.4480    3.5280  -22.1550 C   0  0  0  0  0  0
   -5.6770    3.6790  -23.5020 C   0  0  0  0  0  0
   -4.2190    3.2880  -21.7730 C   0  0  0  0  0  0
   -3.2670    3.3580  -23.9150 C   0  0  0  0  0  0
   -3.1460    3.1530  -22.4850 C   0  0  0  0  0  0
   -4.6000    3.6020  -24.4810 C   0  0  0  0  0  0
   -3.7840    3.5660  -26.6570 C   0  0  0  0  0  0
    5.7950    3.0070  -21.1030 C   0  0  0  0  0  0
    5.7280    3.0790  -23.6590 C   0  0  0  0  0  0
   -4.8150    3.6920  -25.8260 C   0  0  0  0  0  0
    1.9440    3.6140  -23.7970 C   0  0  0  0  0  0
    1.1120    4.7280  -23.5510 C   0  0  0  0  0  0
    2.8880    5.9470  -22.8550 C   0  0  0  0  0  0
    3.3340    3.8180  -23.4500 C   0  0  0  0  0  0
    1.4190    2.4770  -24.4420 C   0  0  0  0  0  0
   -0.7130    3.2870  -24.4130 C   0  0  0  0  0  0
   -0.2060    4.5250  -23.8340 C   0  0  0  0  0  0
   -2.1550    3.2790  -24.8080 C   0  0  0  0  0  0
    3.9380    1.3310  -23.0730 C   0  0  0  0  0  0
    4.8400    1.0090  -21.8910 C   0  0  2  0  0  0
    6.4430    2.5400  -22.4250 C   0  0  2  0  0  0
    4.7870    2.0420  -20.7530 C   0  0  0  0  0  0
   -2.4410    3.3980  -26.2490 C   0  0  0  0  0  0
   -1.8180    2.7610  -21.8380 C   0  0  0  0  0  0
   -0.8010    2.4300  -21.2940 C   0  0  0  0  0  0
   -1.0590    5.5760  -23.5420 F   0  0  0  0  0  0
   -4.0470    3.0850  -20.3790 F   0  0  0  0  0  0
    1.5710    5.9020  -23.0390 N   0  0  0  0  0  0
    3.7920    4.9820  -23.0230 N   0  0  0  0  0  0
    0.1220    2.3750  -24.7810 N   0  0  0  0  0  0
    4.2600    2.7680  -23.5720 N   0  0  0  0  0  0
    6.2590    1.0680  -22.3360 N   0  0  1  0  0  0
   -3.9180    3.5420  -28.0510 O   0  0  0  0  0  0
   -6.2703    3.6083  -21.4532 H   0  0  0  0  0  0
   -6.6824    3.8618  -23.8636 H   0  0  0  0  0  0
    5.3255    3.9903  -21.2534 H   0  0  0  0  0  0
    6.5597    3.0403  -20.3130 H   0  0  0  0  0  0
    6.1489    2.6096  -24.5604 H   0  0  0  0  0  0
    5.8693    4.1683  -23.7176 H   0  0  0  0  0  0
   -5.8158    3.8637  -26.2054 H   0  0  0  0  0  0
    2.0676    1.6426  -24.6830 H   0  0  0  0  0  0
    2.8861    1.2806  -22.7553 H   0  0  0  0  0  0
    4.1248    0.6102  -23.8827 H   0  0  0  0  0  0
    4.6079    0.0068  -21.5014 H   0  0  0  0  0  0
    7.5117    2.7994  -22.4492 H   0  0  0  0  0  0
    3.8017    2.5311  -20.7500 H   0  0  0  0  0  0
    5.0624    1.5557  -19.8056 H   0  0  0  0  0  0
   -1.6498    3.3598  -26.9890 H   0  0  0  0  0  0
    0.0940    2.1390  -20.8150 H   0  0  0  0  0  0
    6.8875    0.5912  -21.5984 H   0  0  0  0  0  0
   -3.0613    3.4441  -28.4497 H   0  0  0  0  0  0
    4.8360    7.1830  -21.8780 N   0  0  1  0  0  0
    4.8930    9.6270  -23.3700 N   0  0  0  0  0  0
    6.1910   11.5340  -24.0790 N   0  0  0  0  0  0
    5.4120    8.4360  -21.2700 C   0  0  0  0  0  0
    3.4310    7.3010  -22.4080 C   0  0  0  0  0  0
    5.6820    9.5310  -22.2900 C   0  0  0  0  0  0
    6.7190   10.3960  -22.0640 C   0  0  0  0  0  0
    4.3270   10.7720  -25.4280 C   0  0  0  0  0  0
    5.2030   10.6340  -24.2030 C   0  0  0  0  0  0
    6.9450   11.3860  -22.9800 C   0  0  0  0  0  0
    5.4490    6.8720  -22.7110 H   0  0  0  0  0  0
    6.3455    8.1899  -20.7427 H   0  0  0  0  0  0
    4.7265    8.8163  -20.4984 H   0  0  0  0  0  0
    3.4170    7.9990  -23.2580 H   0  0  0  0  0  0
    2.7778    7.7171  -21.6268 H   0  0  0  0  0  0
    7.3333   10.2860  -21.1776 H   0  0  0  0  0  0
    4.6720   11.6241  -26.0321 H   0  0  0  0  0  0
    4.3850    9.8512  -26.0269 H   0  0  0  0  0  0
    3.2852   10.9410  -25.1181 H   0  0  0  0  0  0
    7.7690   12.0650  -22.7930 H   0  0  0  0  0  0
  1  2  2  0  0  0
  1  3  1  0  0  0
  1 34  1  0  0  0
  2  6  1  0  0  0
  2 35  1  0  0  0
  3  5  2  0  0  0
  3 27  1  0  0  0
  4  5  1  0  0  0
  4  6  2  0  0  0
  4 18  1  0  0  0
  5 24  1  0  0  0
  6 10  1  0  0  0
  7 10  2  0  0  0
  7 23  1  0  0  0
  7 33  1  0  0  0
  8 21  1  0  0  0
  8 22  1  0  0  0
  8 36  1  0  0  0
  8 37  1  0  0  0
  9 21  1  0  0  0
  9 31  1  0  0  0
  9 38  1  0  0  0
  9 39  1  0  0  0
 10 40  1  0  0  0
 11 12  1  0  0  0
 11 14  2  0  0  0
 11 15  1  0  0  0
 12 17  1  0  0  0
 12 28  2  0  0  0
 13 28  1  0  0  0
 13 29  2  0  0  0
 13 56  1  0  0  0
 14 29  1  0  0  0
 14 31  1  0  0  0
 15 30  2  0  0  0
 15 41  1  0  0  0
 16 17  2  0  0  0
 16 18  1  0  0  0
 16 30  1  0  0  0
 17 26  1  0  0  0
 18 23  2  0  0  0
 19 20  1  0  0  0
 19 31  1  0  0  0
 19 42  1  0  0  0
 19 43  1  0  0  0
 20 22  1  0  0  0
 20 32  1  0  0  0
 20 44  1  0  0  0
 21 32  1  0  0  0
 21 45  1  0  0  0
 22 46  1  0  0  0
 22 47  1  0  0  0
 23 48  1  0  0  0
 24 25  3  0  0  0
 25 49  1  0  0  0
 32 50  1  0  0  0
 33 51  1  0  0  0
 52 55  1  0  0  0
 52 56  1  0  0  0
 52 62  1  0  0  0
 53 57  2  0  0  0
 53 60  1  0  0  0
 54 60  2  0  0  0
 54 61  1  0  0  0
 55 57  1  0  0  0
 55 63  1  0  0  0
 55 64  1  0  0  0
 56 65  1  0  0  0
 56 66  1  0  0  0
 57 58  1  0  0  0
 58 61  2  0  0  0
 58 67  1  0  0  0
 59 60  1  0  0  0
 59 68  1  0  0  0
 59 69  1  0  0  0
 59 70  1  0  0  0
 61 71  1  0  0  0
M  END
> <s_m_entry_id>
555

> <s_m_entry_name>
000000397.1

> <s_m_Source_Path>
/Users/zaksoul/Documents/3r_UNI/2nd_SEMESTER/BSC/FRAG_RECON/RESULTS/2

> <s_m_Source_File>
000000397.mol2

> <i_m_Source_File_Index>
1

$$$$
No_0_419
                    3D
 Schrodinger Suite 2022-4.
 69 75  0  0  1  0            999 V2000
   -5.1850    3.4670  -22.0720 C   0  0  0  0  0  0
   -5.4630    3.6250  -23.4090 C   0  0  0  0  0  0
   -3.9410    3.2430  -21.7340 C   0  0  0  0  0  0
   -3.0660    3.3420  -23.9080 C   0  0  0  0  0  0
   -2.8910    3.1290  -22.4840 C   0  0  0  0  0  0
   -4.4210    3.5700  -24.4250 C   0  0  0  0  0  0
   -3.6800    3.5620  -26.6280 C   0  0  0  0  0  0
    6.0940    3.1060  -21.4140 C   0  0  0  0  0  0
    5.9360    3.1950  -23.9650 C   0  0  0  0  0  0
   -4.6830    3.6670  -25.7610 C   0  0  0  0  0  0
    2.1430    3.6750  -23.9680 C   0  0  0  0  0  0
    1.3040    4.7750  -23.6850 C   0  0  0  0  0  0
    3.0840    6.0150  -23.0410 C   0  0  0  0  0  0
    3.5410    3.8970  -23.6680 C   0  0  0  0  0  0
    1.6120    2.5350  -24.6030 C   0  0  0  0  0  0
   -0.5290    3.3130  -24.4950 C   0  0  0  0  0  0
   -0.0200    4.5540  -23.9230 C   0  0  0  0  0  0
   -1.9840    3.2860  -24.8390 C   0  0  0  0  0  0
    4.1930    1.4170  -23.3310 C   0  0  0  0  0  0
    5.1410    1.1010  -22.1840 C   0  0  2  0  0  0
    6.7020    2.6580  -22.7610 C   0  0  2  0  0  0
    5.1120    2.1240  -21.0360 C   0  0  0  0  0  0
   -2.3210    3.4110  -26.2680 C   0  0  0  0  0  0
   -1.5360    2.7520  -21.8860 C   0  0  0  0  0  0
   -0.4960    2.4330  -21.3800 C   0  0  0  0  0  0
   -0.8780    5.5900  -23.5940 F   0  0  0  0  0  0
   -3.7170    3.0320  -20.3490 F   0  0  0  0  0  0
    1.7630    5.9520  -23.1800 N   0  0  0  0  0  0
    3.9960    5.0650  -23.2480 N   0  0  0  0  0  0
    0.3060    2.4170  -24.8980 N   0  0  0  0  0  0
    4.4770    2.8620  -23.8300 N   0  0  0  0  0  0
    6.5430    1.1830  -22.6770 N   0  0  1  0  0  0
   -3.8620    3.5460  -28.0170 O   0  0  0  0  0  0
   -5.9835    3.5302  -21.3417 H   0  0  0  0  0  0
   -6.4830    3.7947  -23.7343 H   0  0  0  0  0  0
    5.6045    4.0830  -21.5402 H   0  0  0  0  0  0
    6.8848    3.1464  -20.6505 H   0  0  0  0  0  0
    6.3327    2.7398  -24.8845 H   0  0  0  0  0  0
    6.0601    4.2866  -24.0205 H   0  0  0  0  0  0
   -5.6991    3.8266  -26.1034 H   0  0  0  0  0  0
    2.2646    1.7127  -24.8731 H   0  0  0  0  0  0
    3.1538    1.3484  -22.9769 H   0  0  0  0  0  0
    4.3626    0.7055  -24.1526 H   0  0  0  0  0  0
    4.9374    0.0929  -21.7939 H   0  0  0  0  0  0
    7.7653    2.9334  -22.8205 H   0  0  0  0  0  0
    4.1203    2.5982  -20.9956 H   0  0  0  0  0  0
    5.4280    1.6343  -20.1031 H   0  0  0  0  0  0
   -1.5561    3.3899  -27.0359 H   0  0  0  0  0  0
    0.4194    2.1519  -20.9348 H   0  0  0  0  0  0
    7.2039    0.7114  -21.9648 H   0  0  0  0  0  0
   -3.0183    3.4638  -28.4458 H   0  0  0  0  0  0
    3.6190    7.4900  -21.1010 N   0  0  1  0  0  0
    8.0500   10.0870  -20.9320 N   0  0  0  0  0  0
    3.9290    8.8540  -20.5410 C   0  0  0  0  0  0
    3.6230    7.3730  -22.6030 C   0  0  0  0  0  0
    5.3840    9.2730  -20.6870 C   0  0  0  0  0  0
    6.3960    8.5590  -20.1010 C   0  0  0  0  0  0
    5.7170   10.3960  -21.3970 C   0  0  0  0  0  0
    7.0350   10.7690  -21.4970 C   0  0  0  0  0  0
    7.6950    8.9860  -20.2410 C   0  0  0  0  0  0
    4.3509    6.7801  -20.7450 H   0  0  0  0  0  0
    3.6461    8.8840  -19.4784 H   0  0  0  0  0  0
    3.2839    9.6021  -21.0250 H   0  0  0  0  0  0
    4.6493    7.4990  -22.9781 H   0  0  0  0  0  0
    2.9995    8.1704  -23.0337 H   0  0  0  0  0  0
    6.1700    7.6651  -19.5310 H   0  0  0  0  0  0
    4.9426   10.9845  -21.8756 H   0  0  0  0  0  0
    7.2390   11.6662  -22.0701 H   0  0  0  0  0  0
    8.4534    8.3807  -19.7578 H   0  0  0  0  0  0
  1  2  2  0  0  0
  1  3  1  0  0  0
  1 34  1  0  0  0
  2  6  1  0  0  0
  2 35  1  0  0  0
  3  5  2  0  0  0
  3 27  1  0  0  0
  4  5  1  0  0  0
  4  6  2  0  0  0
  4 18  1  0  0  0
  5 24  1  0  0  0
  6 10  1  0  0  0
  7 10  2  0  0  0
  7 23  1  0  0  0
  7 33  1  0  0  0
  8 21  1  0  0  0
  8 22  1  0  0  0
  8 36  1  0  0  0
  8 37  1  0  0  0
  9 21  1  0  0  0
  9 31  1  0  0  0
  9 38  1  0  0  0
  9 39  1  0  0  0
 10 40  1  0  0  0
 11 12  1  0  0  0
 11 14  2  0  0  0
 11 15  1  0  0  0
 12 17  1  0  0  0
 12 28  2  0  0  0
 13 28  1  0  0  0
 13 29  2  0  0  0
 13 55  1  0  0  0
 14 29  1  0  0  0
 14 31  1  0  0  0
 15 30  2  0  0  0
 15 41  1  0  0  0
 16 17  2  0  0  0
 16 18  1  0  0  0
 16 30  1  0  0  0
 17 26  1  0  0  0
 18 23  2  0  0  0
 19 20  1  0  0  0
 19 31  1  0  0  0
 19 42  1  0  0  0
 19 43  1  0  0  0
 20 22  1  0  0  0
 20 32  1  0  0  0
 20 44  1  0  0  0
 21 32  1  0  0  0
 21 45  1  0  0  0
 22 46  1  0  0  0
 22 47  1  0  0  0
 23 48  1  0  0  0
 24 25  3  0  0  0
 25 49  1  0  0  0
 32 50  1  0  0  0
 33 51  1  0  0  0
 52 54  1  0  0  0
 52 55  1  0  0  0
 52 61  1  0  0  0
 53 59  2  0  0  0
 53 60  1  0  0  0
 54 56  1  0  0  0
 54 62  1  0  0  0
 54 63  1  0  0  0
 55 64  1  0  0  0
 55 65  1  0  0  0
 56 57  1  0  0  0
 56 58  2  0  0  0
 57 60  2  0  0  0
 57 66  1  0  0  0
 58 59  1  0  0  0
 58 67  1  0  0  0
 59 68  1  0  0  0
 60 69  1  0  0  0
M  END
> <s_m_entry_id>
556

> <s_m_entry_name>
000000398.1

> <s_m_Source_Path>
/Users/zaksoul/Documents/3r_UNI/2nd_SEMESTER/BSC/FRAG_RECON/RESULTS/2

> <s_m_Source_File>
000000398.mol2

> <i_m_Source_File_Index>
1

$$$$
No_0_420
                    3D
 Schrodinger Suite 2022-4.
 69 75  0  0  1  0            999 V2000
   -5.2930    3.4460  -21.9060 C   0  0  0  0  0  0
   -5.5640    3.6160  -23.2430 C   0  0  0  0  0  0
   -4.0500    3.2210  -21.5650 C   0  0  0  0  0  0
   -3.1640    3.3420  -23.7330 C   0  0  0  0  0  0
   -2.9960    3.1150  -22.3100 C   0  0  0  0  0  0
   -4.5160    3.5730  -24.2550 C   0  0  0  0  0  0
   -3.7650    3.5870  -26.4540 C   0  0  0  0  0  0
    5.9830    3.0950  -21.1950 C   0  0  0  0  0  0
    5.8390    3.2080  -23.7450 C   0  0  0  0  0  0
   -4.7720    3.6820  -25.5910 C   0  0  0  0  0  0
    2.0440    3.6830  -23.7630 C   0  0  0  0  0  0
    1.2020    4.7780  -23.4740 C   0  0  0  0  0  0
    2.9780    6.0150  -22.8090 C   0  0  0  0  0  0
    3.4410    3.9040  -23.4540 C   0  0  0  0  0  0
    1.5190    2.5480  -24.4120 C   0  0  0  0  0  0
   -0.6240    3.3220  -24.3070 C   0  0  0  0  0  0
   -0.1200    4.5580  -23.7210 C   0  0  0  0  0  0
   -2.0770    3.2960  -24.6590 C   0  0  0  0  0  0
    4.0950    1.4210  -23.1370 C   0  0  0  0  0  0
    5.0370    1.0950  -21.9880 C   0  0  2  0  0  0
    6.5990    2.6610  -22.5430 C   0  0  2  0  0  0
    5.0010    2.1080  -20.8320 C   0  0  0  0  0  0
   -2.4070    3.4350  -26.0880 C   0  0  0  0  0  0
   -1.6440    2.7340  -21.7090 C   0  0  0  0  0  0
   -0.6060    2.4110  -21.2010 C   0  0  0  0  0  0
   -0.9810    5.5900  -23.3860 F   0  0  0  0  0  0
   -3.8330    2.9960  -20.1810 F   0  0  0  0  0  0
    1.6580    5.9510  -22.9550 N   0  0  0  0  0  0
    3.8920    5.0680  -23.0210 N   0  0  0  0  0  0
    0.2140    2.4310  -24.7150 N   0  0  0  0  0  0
    4.3790    2.8720  -23.6210 N   0  0  0  0  0  0
    6.4410    1.1840  -22.4740 N   0  0  1  0  0  0
   -3.9390    3.5840  -27.8430 O   0  0  0  0  0  0
   -6.0952    3.5012  -21.1791 H   0  0  0  0  0  0
   -6.5825    3.7876  -23.5721 H   0  0  0  0  0  0
    5.4932    4.0727  -21.3142 H   0  0  0  0  0  0
    6.7700    3.1283  -20.4272 H   0  0  0  0  0  0
    6.2405    2.7621  -24.6670 H   0  0  0  0  0  0
    5.9612    4.3003  -23.7894 H   0  0  0  0  0  0
   -5.7863    3.8437  -25.9375 H   0  0  0  0  0  0
    2.1737    1.7287  -24.6861 H   0  0  0  0  0  0
    3.0538    1.3483  -22.7896 H   0  0  0  0  0  0
    4.2696    0.7176  -23.9645 H   0  0  0  0  0  0
    4.8331    0.0825  -21.6095 H   0  0  0  0  0  0
    7.6625    2.9375  -22.5935 H   0  0  0  0  0  0
    4.0083    2.5801  -20.7916 H   0  0  0  0  0  0
    5.3117    1.6097  -19.9019 H   0  0  0  0  0  0
   -1.6380    3.4219  -26.8519 H   0  0  0  0  0  0
    0.3077    2.1271  -20.7541 H   0  0  0  0  0  0
    7.0992    0.7063  -21.7634 H   0  0  0  0  0  0
   -3.0936    3.5078  -28.2696 H   0  0  0  0  0  0
    4.1150    7.2720  -20.9780 N   0  0  1  0  0  0
    7.9440   10.5330  -22.0280 N   0  0  0  0  0  0
    4.4910    8.5760  -20.3240 C   0  0  0  0  0  0
    3.5120    7.3700  -22.3550 C   0  0  0  0  0  0
    5.7080    9.2520  -20.9360 C   0  0  0  0  0  0
    6.9380    8.6450  -20.9410 C   0  0  0  0  0  0
    5.6080   10.5040  -21.4830 C   0  0  0  0  0  0
    6.7250   11.1050  -22.0100 C   0  0  0  0  0  0
    8.0150    9.3020  -21.4860 C   0  0  0  0  0  0
    4.9941    6.6529  -21.0800 H   0  0  0  0  0  0
    4.6689    8.4081  -19.2515 H   0  0  0  0  0  0
    3.6338    9.2642  -20.3630 H   0  0  0  0  0  0
    4.2761    7.7191  -23.0651 H   0  0  0  0  0  0
    2.6910    8.1020  -22.3440 H   0  0  0  0  0  0
    7.0539    7.6545  -20.5162 H   0  0  0  0  0  0
    4.6515   11.0138  -21.4990 H   0  0  0  0  0  0
    6.5861   12.0955  -22.4278 H   0  0  0  0  0  0
    8.9602    8.7719  -21.4630 H   0  0  0  0  0  0
  1  2  2  0  0  0
  1  3  1  0  0  0
  1 34  1  0  0  0
  2  6  1  0  0  0
  2 35  1  0  0  0
  3  5  2  0  0  0
  3 27  1  0  0  0
  4  5  1  0  0  0
  4  6  2  0  0  0
  4 18  1  0  0  0
  5 24  1  0  0  0
  6 10  1  0  0  0
  7 10  2  0  0  0
  7 23  1  0  0  0
  7 33  1  0  0  0
  8 21  1  0  0  0
  8 22  1  0  0  0
  8 36  1  0  0  0
  8 37  1  0  0  0
  9 21  1  0  0  0
  9 31  1  0  0  0
  9 38  1  0  0  0
  9 39  1  0  0  0
 10 40  1  0  0  0
 11 12  1  0  0  0
 11 14  2  0  0  0
 11 15  1  0  0  0
 12 17  1  0  0  0
 12 28  2  0  0  0
 13 28  1  0  0  0
 13 29  2  0  0  0
 13 55  1  0  0  0
 14 29  1  0  0  0
 14 31  1  0  0  0
 15 30  2  0  0  0
 15 41  1  0  0  0
 16 17  2  0  0  0
 16 18  1  0  0  0
 16 30  1  0  0  0
 17 26  1  0  0  0
 18 23  2  0  0  0
 19 20  1  0  0  0
 19 31  1  0  0  0
 19 42  1  0  0  0
 19 43  1  0  0  0
 20 22  1  0  0  0
 20 32  1  0  0  0
 20 44  1  0  0  0
 21 32  1  0  0  0
 21 45  1  0  0  0
 22 46  1  0  0  0
 22 47  1  0  0  0
 23 48  1  0  0  0
 24 25  3  0  0  0
 25 49  1  0  0  0
 32 50  1  0  0  0
 33 51  1  0  0  0
 52 54  1  0  0  0
 52 55  1  0  0  0
 52 61  1  0  0  0
 53 59  2  0  0  0
 53 60  1  0  0  0
 54 56  1  0  0  0
 54 62  1  0  0  0
 54 63  1  0  0  0
 55 64  1  0  0  0
 55 65  1  0  0  0
 56 57  1  0  0  0
 56 58  2  0  0  0
 57 60  2  0  0  0
 57 66  1  0  0  0
 58 59  1  0  0  0
 58 67  1  0  0  0
 59 68  1  0  0  0
 60 69  1  0  0  0
M  END
> <s_m_entry_id>
557

> <s_m_entry_name>
000000399.1

> <s_m_Source_Path>
/Users/zaksoul/Documents/3r_UNI/2nd_SEMESTER/BSC/FRAG_RECON/RESULTS/2

> <s_m_Source_File>
000000399.mol2

> <i_m_Source_File_Index>
1

$$$$
No_0_421
                    3D
 Schrodinger Suite 2022-4.
 69 75  0  0  1  0            999 V2000
   -5.3570    3.4460  -21.8520 C   0  0  0  0  0  0
   -5.6330    3.6300  -23.1860 C   0  0  0  0  0  0
   -4.1170    3.1910  -21.5200 C   0  0  0  0  0  0
   -3.2420    3.3070  -23.6920 C   0  0  0  0  0  0
   -3.0710    3.0680  -22.2720 C   0  0  0  0  0  0
   -4.5920    3.5710  -24.2040 C   0  0  0  0  0  0
   -3.8540    3.5840  -26.4080 C   0  0  0  0  0  0
    5.9130    2.8450  -21.2130 C   0  0  0  0  0  0
    5.7550    2.9790  -23.7620 C   0  0  0  0  0  0
   -4.8530    3.6950  -25.5380 C   0  0  0  0  0  0
    1.9720    3.5350  -23.7530 C   0  0  0  0  0  0
    1.1560    4.6470  -23.4510 C   0  0  0  0  0  0
    2.9620    5.8410  -22.7890 C   0  0  0  0  0  0
    3.3750    3.7240  -23.4510 C   0  0  0  0  0  0
    1.4180    2.4170  -24.4060 C   0  0  0  0  0  0
   -0.7060    3.2360  -24.2820 C   0  0  0  0  0  0
   -0.1720    4.4570  -23.6920 C   0  0  0  0  0  0
   -2.1620    3.2440  -24.6260 C   0  0  0  0  0  0
    3.9770    1.2260  -23.1550 C   0  0  0  0  0  0
    4.9180    0.8720  -22.0140 C   0  0  2  0  0  0
    6.5110    2.4070  -22.5680 C   0  0  2  0  0  0
    4.9120    1.8770  -20.8500 C   0  0  0  0  0  0
   -2.4980    3.4000  -26.0520 C   0  0  0  0  0  0
   -1.7230    2.6530  -21.6820 C   0  0  0  0  0  0
   -0.6890    2.3050  -21.1830 C   0  0  0  0  0  0
   -1.0090    5.5050  -23.3440 F   0  0  0  0  0  0
   -3.8970    2.9530  -20.1380 F   0  0  0  0  0  0
    1.6400    5.8070  -22.9270 N   0  0  0  0  0  0
    3.8540    4.8750  -23.0130 N   0  0  0  0  0  0
    0.1090    2.3300  -24.7010 N   0  0  0  0  0  0
    4.2890    2.6730  -23.6310 N   0  0  0  0  0  0
    6.3220    0.9340  -22.5070 N   0  0  1  0  0  0
   -4.0370    3.5940  -27.7970 O   0  0  0  0  0  0
   -6.1540    3.5132  -21.1203 H   0  0  0  0  0  0
   -6.6492    3.8266  -23.5080 H   0  0  0  0  0  0
    5.4438    3.8338  -21.3230 H   0  0  0  0  0  0
    6.7053    2.8561  -20.4500 H   0  0  0  0  0  0
    6.1416    2.5298  -24.6887 H   0  0  0  0  0  0
    5.9003    4.0687  -23.7993 H   0  0  0  0  0  0
   -5.8657    3.8807  -25.8772 H   0  0  0  0  0  0
    2.0534    1.5859  -24.6901 H   0  0  0  0  0  0
    2.9369    1.1735  -22.8009 H   0  0  0  0  0  0
    4.1314    0.5248  -23.9884 H   0  0  0  0  0  0
    4.6949   -0.1383  -21.6405 H   0  0  0  0  0  0
    7.5798    2.6613  -22.6235 H   0  0  0  0  0  0
    3.9301    2.3705  -20.8006 H   0  0  0  0  0  0
    5.2179    1.3661  -19.9251 H   0  0  0  0  0  0
   -1.7342    3.3759  -26.8208 H   0  0  0  0  0  0
    0.2208    1.9977  -20.7436 H   0  0  0  0  0  0
    6.9732    0.4368  -21.8034 H   0  0  0  0  0  0
   -3.1956    3.5029  -28.2286 H   0  0  0  0  0  0
    4.3260    7.0160  -21.0620 N   0  0  1  0  0  0
    7.8950   10.4480  -22.4370 N   0  0  0  0  0  0
    4.7660    8.2890  -20.3860 C   0  0  0  0  0  0
    3.5280    7.1800  -22.3300 C   0  0  0  0  0  0
    5.8670    9.0370  -21.1220 C   0  0  0  0  0  0
    7.0950    8.4680  -21.3420 C   0  0  0  0  0  0
    5.6630   10.3170  -21.5660 C   0  0  0  0  0  0
    6.6790   10.9820  -22.2080 C   0  0  0  0  0  0
    8.0680    9.1890  -21.9920 C   0  0  0  0  0  0
    5.1936    6.4313  -21.3299 H   0  0  0  0  0  0
    5.1009    8.0611  -19.3633 H   0  0  0  0  0  0
    3.8979    8.9521  -20.2570 H   0  0  0  0  0  0
    4.1732    7.5951  -23.1183 H   0  0  0  0  0  0
    2.7026    7.8855  -22.1541 H   0  0  0  0  0  0
    7.2931    7.4574  -21.0038 H   0  0  0  0  0  0
    4.7040   10.7980  -21.4110 H   0  0  0  0  0  0
    6.4601   11.9917  -22.5359 H   0  0  0  0  0  0
    9.0180    8.6880  -22.1390 H   0  0  0  0  0  0
  1  2  2  0  0  0
  1  3  1  0  0  0
  1 34  1  0  0  0
  2  6  1  0  0  0
  2 35  1  0  0  0
  3  5  2  0  0  0
  3 27  1  0  0  0
  4  5  1  0  0  0
  4  6  2  0  0  0
  4 18  1  0  0  0
  5 24  1  0  0  0
  6 10  1  0  0  0
  7 10  2  0  0  0
  7 23  1  0  0  0
  7 33  1  0  0  0
  8 21  1  0  0  0
  8 22  1  0  0  0
  8 36  1  0  0  0
  8 37  1  0  0  0
  9 21  1  0  0  0
  9 31  1  0  0  0
  9 38  1  0  0  0
  9 39  1  0  0  0
 10 40  1  0  0  0
 11 12  1  0  0  0
 11 14  2  0  0  0
 11 15  1  0  0  0
 12 17  1  0  0  0
 12 28  2  0  0  0
 13 28  1  0  0  0
 13 29  2  0  0  0
 13 55  1  0  0  0
 14 29  1  0  0  0
 14 31  1  0  0  0
 15 30  2  0  0  0
 15 41  1  0  0  0
 16 17  2  0  0  0
 16 18  1  0  0  0
 16 30  1  0  0  0
 17 26  1  0  0  0
 18 23  2  0  0  0
 19 20  1  0  0  0
 19 31  1  0  0  0
 19 42  1  0  0  0
 19 43  1  0  0  0
 20 22  1  0  0  0
 20 32  1  0  0  0
 20 44  1  0  0  0
 21 32  1  0  0  0
 21 45  1  0  0  0
 22 46  1  0  0  0
 22 47  1  0  0  0
 23 48  1  0  0  0
 24 25  3  0  0  0
 25 49  1  0  0  0
 32 50  1  0  0  0
 33 51  1  0  0  0
 52 54  1  0  0  0
 52 55  1  0  0  0
 52 61  1  0  0  0
 53 59  2  0  0  0
 53 60  1  0  0  0
 54 56  1  0  0  0
 54 62  1  0  0  0
 54 63  1  0  0  0
 55 64  1  0  0  0
 55 65  1  0  0  0
 56 57  1  0  0  0
 56 58  2  0  0  0
 57 60  2  0  0  0
 57 66  1  0  0  0
 58 59  1  0  0  0
 58 67  1  0  0  0
 59 68  1  0  0  0
 60 69  1  0  0  0
M  END
> <s_m_entry_id>
558

> <s_m_entry_name>
000000400.1

> <s_m_Source_Path>
/Users/zaksoul/Documents/3r_UNI/2nd_SEMESTER/BSC/FRAG_RECON/RESULTS/2

> <s_m_Source_File>
000000400.mol2

> <i_m_Source_File_Index>
1

$$$$
No_0_422
                    3D
 Schrodinger Suite 2022-4.
 69 75  0  0  1  0            999 V2000
   -5.2950    3.3850  -21.9220 C   0  0  0  0  0  0
   -5.5520    3.6090  -23.2540 C   0  0  0  0  0  0
   -4.0580    3.1300  -21.5790 C   0  0  0  0  0  0
   -3.1510    3.3190  -23.7330 C   0  0  0  0  0  0
   -3.0000    3.0370  -22.3190 C   0  0  0  0  0  0
   -4.4960    3.5880  -24.2570 C   0  0  0  0  0  0
   -3.7250    3.6730  -26.4480 C   0  0  0  0  0  0
    5.9680    2.8500  -21.1300 C   0  0  0  0  0  0
    5.8480    3.0600  -23.6750 C   0  0  0  0  0  0
   -4.7380    3.7500  -25.5910 C   0  0  0  0  0  0
    2.0610    3.5880  -23.7070 C   0  0  0  0  0  0
    1.2310    4.6840  -23.3850 C   0  0  0  0  0  0
    3.0180    5.8700  -22.6590 C   0  0  0  0  0  0
    3.4580    3.7780  -23.3780 C   0  0  0  0  0  0
    1.5260    2.4860  -24.4020 C   0  0  0  0  0  0
   -0.6070    3.2850  -24.2860 C   0  0  0  0  0  0
   -0.0910    4.4910  -23.6510 C   0  0  0  0  0  0
   -2.0570    3.2930  -24.6520 C   0  0  0  0  0  0
    4.0750    1.2760  -23.1490 C   0  0  0  0  0  0
    5.0020    0.8950  -22.0050 C   0  0  2  0  0  0
    6.5900    2.4580  -22.4880 C   0  0  2  0  0  0
    4.9700    1.8640  -20.8120 C   0  0  0  0  0  0
   -2.3730    3.4890  -26.0770 C   0  0  0  0  0  0
   -1.6580    2.6150  -21.7210 C   0  0  0  0  0  0
   -0.6290    2.2600  -21.2170 C   0  0  0  0  0  0
   -0.9420    5.5220  -23.2850 F   0  0  0  0  0  0
   -3.8570    2.8510  -20.2020 F   0  0  0  0  0  0
    1.6980    5.8300  -22.8180 N   0  0  0  0  0  0
    3.9210    4.9190  -22.8980 N   0  0  0  0  0  0
    0.2220    2.3980  -24.7200 N   0  0  0  0  0  0
    4.3830    2.7400  -23.5760 N   0  0  0  0  0  0
    6.4120    0.9820  -22.4750 N   0  0  1  0  0  0
   -3.8870    3.7250  -27.8380 O   0  0  0  0  0  0
   -6.1029    3.4241  -21.2004 H   0  0  0  0  0  0
   -6.5654    3.8067  -23.5841 H   0  0  0  0  0  0
    5.4926    3.8382  -21.2168 H   0  0  0  0  0  0
    6.7483    2.8440  -20.3547 H   0  0  0  0  0  0
    6.2515    2.6423  -24.6092 H   0  0  0  0  0  0
    5.9853    4.1514  -23.6780 H   0  0  0  0  0  0
   -5.7468    3.9397  -25.9393 H   0  0  0  0  0  0
    2.1714    1.6680  -24.7011 H   0  0  0  0  0  0
    3.0300    1.2044  -22.8131 H   0  0  0  0  0  0
    4.2476    0.6018  -24.0009 H   0  0  0  0  0  0
    4.7811   -0.1279  -21.6661 H   0  0  0  0  0  0
    7.6576    2.7214  -22.5193 H   0  0  0  0  0  0
    3.9835    2.3482  -20.7626 H   0  0  0  0  0  0
    5.2657    1.3271  -19.8986 H   0  0  0  0  0  0
   -1.5975    3.4940  -26.8344 H   0  0  0  0  0  0
    0.2764    1.9462  -20.7733 H   0  0  0  0  0  0
    7.0567    0.4688  -21.7769 H   0  0  0  0  0  0
   -3.0388    3.6527  -28.2596 H   0  0  0  0  0  0
    4.8160    6.9850  -21.3370 N   0  0  1  0  0  0
    7.1330   11.2130  -23.1150 N   0  0  0  0  0  0
    5.3440    8.1900  -20.6020 C   0  0  0  0  0  0
    3.5660    7.1990  -22.1510 C   0  0  0  0  0  0
    5.9700    9.2440  -21.5010 C   0  0  0  0  0  0
    7.0630    8.9640  -22.2790 C   0  0  0  0  0  0
    5.4630   10.5170  -21.5390 C   0  0  0  0  0  0
    6.0580   11.4600  -22.3410 C   0  0  0  0  0  0
    7.6090    9.9540  -23.0610 C   0  0  0  0  0  0
    5.5647    6.6281  -22.0287 H   0  0  0  0  0  0
    6.0816    7.8652  -19.8534 H   0  0  0  0  0  0
    4.5311    8.6450  -20.0171 H   0  0  0  0  0  0
    3.7930    7.8529  -23.0059 H   0  0  0  0  0  0
    2.8061    7.6959  -21.5301 H   0  0  0  0  0  0
    7.4910    7.9681  -22.2740 H   0  0  0  0  0  0
    4.5982   10.7740  -20.9381 H   0  0  0  0  0  0
    5.6149   12.4492  -22.3300 H   0  0  0  0  0  0
    8.4713    9.6739  -23.6552 H   0  0  0  0  0  0
  1  2  2  0  0  0
  1  3  1  0  0  0
  1 34  1  0  0  0
  2  6  1  0  0  0
  2 35  1  0  0  0
  3  5  2  0  0  0
  3 27  1  0  0  0
  4  5  1  0  0  0
  4  6  2  0  0  0
  4 18  1  0  0  0
  5 24  1  0  0  0
  6 10  1  0  0  0
  7 10  2  0  0  0
  7 23  1  0  0  0
  7 33  1  0  0  0
  8 21  1  0  0  0
  8 22  1  0  0  0
  8 36  1  0  0  0
  8 37  1  0  0  0
  9 21  1  0  0  0
  9 31  1  0  0  0
  9 38  1  0  0  0
  9 39  1  0  0  0
 10 40  1  0  0  0
 11 12  1  0  0  0
 11 14  2  0  0  0
 11 15  1  0  0  0
 12 17  1  0  0  0
 12 28  2  0  0  0
 13 28  1  0  0  0
 13 29  2  0  0  0
 13 55  1  0  0  0
 14 29  1  0  0  0
 14 31  1  0  0  0
 15 30  2  0  0  0
 15 41  1  0  0  0
 16 17  2  0  0  0
 16 18  1  0  0  0
 16 30  1  0  0  0
 17 26  1  0  0  0
 18 23  2  0  0  0
 19 20  1  0  0  0
 19 31  1  0  0  0
 19 42  1  0  0  0
 19 43  1  0  0  0
 20 22  1  0  0  0
 20 32  1  0  0  0
 20 44  1  0  0  0
 21 32  1  0  0  0
 21 45  1  0  0  0
 22 46  1  0  0  0
 22 47  1  0  0  0
 23 48  1  0  0  0
 24 25  3  0  0  0
 25 49  1  0  0  0
 32 50  1  0  0  0
 33 51  1  0  0  0
 52 54  1  0  0  0
 52 55  1  0  0  0
 52 61  1  0  0  0
 53 59  2  0  0  0
 53 60  1  0  0  0
 54 56  1  0  0  0
 54 62  1  0  0  0
 54 63  1  0  0  0
 55 64  1  0  0  0
 55 65  1  0  0  0
 56 57  1  0  0  0
 56 58  2  0  0  0
 57 60  2  0  0  0
 57 66  1  0  0  0
 58 59  1  0  0  0
 58 67  1  0  0  0
 59 68  1  0  0  0
 60 69  1  0  0  0
M  END
> <s_m_entry_id>
559

> <s_m_entry_name>
000000401.1

> <s_m_Source_Path>
/Users/zaksoul/Documents/3r_UNI/2nd_SEMESTER/BSC/FRAG_RECON/RESULTS/2

> <s_m_Source_File>
000000401.mol2

> <i_m_Source_File_Index>
1

$$$$
No_0_423
                    3D
 Schrodinger Suite 2022-4.
 69 75  0  0  1  0            999 V2000
   -5.3070    3.4570  -21.9480 C   0  0  0  0  0  0
   -5.5520    3.6240  -23.2900 C   0  0  0  0  0  0
   -4.0710    3.2350  -21.5810 C   0  0  0  0  0  0
   -3.1410    3.3550  -23.7300 C   0  0  0  0  0  0
   -3.0020    3.1310  -22.3040 C   0  0  0  0  0  0
   -4.4840    3.5820  -24.2800 C   0  0  0  0  0  0
   -3.6880    3.5940  -26.4640 C   0  0  0  0  0  0
    5.9530    3.1370  -21.0080 C   0  0  0  0  0  0
    5.8600    3.2460  -23.5610 C   0  0  0  0  0  0
   -4.7130    3.6880  -25.6210 C   0  0  0  0  0  0
    2.0650    3.7100  -23.6560 C   0  0  0  0  0  0
    1.2150    4.8040  -23.3860 C   0  0  0  0  0  0
    2.9730    6.0470  -22.6880 C   0  0  0  0  0  0
    3.4550    3.9350  -23.3190 C   0  0  0  0  0  0
    1.5560    2.5730  -24.3140 C   0  0  0  0  0  0
   -0.5900    3.3410  -24.2530 C   0  0  0  0  0  0
   -0.1020    4.5790  -23.6590 C   0  0  0  0  0  0
   -2.0360    3.3110  -24.6350 C   0  0  0  0  0  0
    4.1090    1.4550  -22.9850 C   0  0  0  0  0  0
    5.0280    1.1330  -21.8170 C   0  0  2  0  0  0
    6.5970    2.7020  -22.3430 C   0  0  2  0  0  0
    4.9660    2.1480  -20.6630 C   0  0  0  0  0  0
   -2.3380    3.4460  -26.0700 C   0  0  0  0  0  0
   -1.6610    2.7550  -21.6760 C   0  0  0  0  0  0
   -0.6330    2.4360  -21.1460 C   0  0  0  0  0  0
   -0.9720    5.6100  -23.3440 F   0  0  0  0  0  0
   -3.8810    3.0140  -20.1920 F   0  0  0  0  0  0
    1.6560    5.9790  -22.8600 N   0  0  0  0  0  0
    3.8940    5.1010  -22.8790 N   0  0  0  0  0  0
    0.2580    2.4510  -24.6420 N   0  0  0  0  0  0
    4.3990    2.9060  -23.4660 N   0  0  0  0  0  0
    6.4420    1.2260  -22.2740 N   0  0  1  0  0  0
   -3.8350    3.5880  -27.8560 O   0  0  0  0  0  0
   -6.1239    3.5112  -21.2375 H   0  0  0  0  0  0
   -6.5642    3.7927  -23.6394 H   0  0  0  0  0  0
    5.4634    4.1132  -21.1392 H   0  0  0  0  0  0
    6.7243    3.1733  -20.2246 H   0  0  0  0  0  0
    6.2818    2.7990  -24.4733 H   0  0  0  0  0  0
    5.9802    4.3385  -23.6054 H   0  0  0  0  0  0
   -5.7204    3.8467  -25.9886 H   0  0  0  0  0  0
    2.2184    1.7550  -24.5730 H   0  0  0  0  0  0
    3.0612    1.3793  -22.6589 H   0  0  0  0  0  0
    4.3018    0.7505  -23.8075 H   0  0  0  0  0  0
    4.8191    0.1207  -21.4406 H   0  0  0  0  0  0
    7.6602    2.9824  -22.3723 H   0  0  0  0  0  0
    3.9714    2.6175  -20.6438 H   0  0  0  0  0  0
    5.2598    1.6523  -19.7260 H   0  0  0  0  0  0
   -1.5537    3.4340  -26.8182 H   0  0  0  0  0  0
    0.2723    2.1552  -20.6804 H   0  0  0  0  0  0
    7.0864    0.7504  -21.5494 H   0  0  0  0  0  0
   -2.9805    3.5138  -28.2645 H   0  0  0  0  0  0
    4.9070    7.2870  -21.7140 N   0  0  1  0  0  0
    6.3750   11.8030  -23.6760 N   0  0  0  0  0  0
    5.4690    8.5080  -21.0340 C   0  0  0  0  0  0
    3.4940    7.4030  -22.2260 C   0  0  0  0  0  0
    5.7820    9.6590  -21.9780 C   0  0  0  0  0  0
    6.6990    9.5260  -22.9880 C   0  0  0  0  0  0
    5.1640   10.8720  -21.8260 C   0  0  0  0  0  0
    5.4780   11.9040  -22.6760 C   0  0  0  0  0  0
    6.9660   10.5990  -23.8050 C   0  0  0  0  0  0
    5.5152    7.0389  -22.5713 H   0  0  0  0  0  0
    6.3801    8.2320  -20.4829 H   0  0  0  0  0  0
    4.7658    8.8511  -20.2608 H   0  0  0  0  0  0
    3.4670    8.1118  -23.0668 H   0  0  0  0  0  0
    2.8463    7.7918  -21.4264 H   0  0  0  0  0  0
    7.2081    8.5808  -23.1380 H   0  0  0  0  0  0
    4.4320   11.0130  -21.0390 H   0  0  0  0  0  0
    4.9592   12.8407  -22.5071 H   0  0  0  0  0  0
    7.6989   10.4360  -24.5869 H   0  0  0  0  0  0
  1  2  2  0  0  0
  1  3  1  0  0  0
  1 34  1  0  0  0
  2  6  1  0  0  0
  2 35  1  0  0  0
  3  5  2  0  0  0
  3 27  1  0  0  0
  4  5  1  0  0  0
  4  6  2  0  0  0
  4 18  1  0  0  0
  5 24  1  0  0  0
  6 10  1  0  0  0
  7 10  2  0  0  0
  7 23  1  0  0  0
  7 33  1  0  0  0
  8 21  1  0  0  0
  8 22  1  0  0  0
  8 36  1  0  0  0
  8 37  1  0  0  0
  9 21  1  0  0  0
  9 31  1  0  0  0
  9 38  1  0  0  0
  9 39  1  0  0  0
 10 40  1  0  0  0
 11 12  1  0  0  0
 11 14  2  0  0  0
 11 15  1  0  0  0
 12 17  1  0  0  0
 12 28  2  0  0  0
 13 28  1  0  0  0
 13 29  2  0  0  0
 13 55  1  0  0  0
 14 29  1  0  0  0
 14 31  1  0  0  0
 15 30  2  0  0  0
 15 41  1  0  0  0
 16 17  2  0  0  0
 16 18  1  0  0  0
 16 30  1  0  0  0
 17 26  1  0  0  0
 18 23  2  0  0  0
 19 20  1  0  0  0
 19 31  1  0  0  0
 19 42  1  0  0  0
 19 43  1  0  0  0
 20 22  1  0  0  0
 20 32  1  0  0  0
 20 44  1  0  0  0
 21 32  1  0  0  0
 21 45  1  0  0  0
 22 46  1  0  0  0
 22 47  1  0  0  0
 23 48  1  0  0  0
 24 25  3  0  0  0
 25 49  1  0  0  0
 32 50  1  0  0  0
 33 51  1  0  0  0
 52 54  1  0  0  0
 52 55  1  0  0  0
 52 61  1  0  0  0
 53 59  2  0  0  0
 53 60  1  0  0  0
 54 56  1  0  0  0
 54 62  1  0  0  0
 54 63  1  0  0  0
 55 64  1  0  0  0
 55 65  1  0  0  0
 56 57  1  0  0  0
 56 58  2  0  0  0
 57 60  2  0  0  0
 57 66  1  0  0  0
 58 59  1  0  0  0
 58 67  1  0  0  0
 59 68  1  0  0  0
 60 69  1  0  0  0
M  END
> <s_m_entry_id>
560

> <s_m_entry_name>
000000402.1

> <s_m_Source_Path>
/Users/zaksoul/Documents/3r_UNI/2nd_SEMESTER/BSC/FRAG_RECON/RESULTS/2

> <s_m_Source_File>
000000402.mol2

> <i_m_Source_File_Index>
1

$$$$
No_0_424
                    3D
 Schrodinger Suite 2022-4.
 69 75  0  0  1  0            999 V2000
   -5.3760    3.7810  -22.0350 C   0  0  0  0  0  0
   -5.6150    3.9400  -23.3790 C   0  0  0  0  0  0
   -4.1510    3.5020  -21.6660 C   0  0  0  0  0  0
   -3.2220    3.5420  -23.8190 C   0  0  0  0  0  0
   -3.0910    3.3330  -22.3900 C   0  0  0  0  0  0
   -4.5520    3.8280  -24.3700 C   0  0  0  0  0  0
   -3.7610    3.7670  -26.5550 C   0  0  0  0  0  0
    5.8560    2.9010  -21.1060 C   0  0  0  0  0  0
    5.7630    2.9760  -23.6600 C   0  0  0  0  0  0
   -4.7780    3.9250  -25.7120 C   0  0  0  0  0  0
    1.9960    3.6320  -23.7570 C   0  0  0  0  0  0
    1.2030    4.7710  -23.5030 C   0  0  0  0  0  0
    3.0240    5.9330  -22.8250 C   0  0  0  0  0  0
    3.3960    3.7910  -23.4260 C   0  0  0  0  0  0
    1.4280    2.5130  -24.3970 C   0  0  0  0  0  0
   -0.6760    3.3890  -24.3450 C   0  0  0  0  0  0
   -0.1230    4.6100  -23.7710 C   0  0  0  0  0  0
   -2.1220    3.4270  -24.7240 C   0  0  0  0  0  0
    3.9240    1.2860  -23.0550 C   0  0  0  0  0  0
    4.8280    0.9360  -21.8830 C   0  0  2  0  0  0
    6.4740    2.4140  -22.4350 C   0  0  2  0  0  0
    4.8210    1.9690  -20.7440 C   0  0  0  0  0  0
   -2.4200    3.5560  -26.1610 C   0  0  0  0  0  0
   -1.7690    2.8980  -21.7570 C   0  0  0  0  0  0
   -0.7580    2.5350  -21.2240 C   0  0  0  0  0  0
   -0.9400    5.6880  -23.4690 F   0  0  0  0  0  0
   -3.9700    3.2920  -20.2740 F   0  0  0  0  0  0
    1.7050    5.9300  -22.9950 N   0  0  0  0  0  0
    3.8960    4.9400  -23.0040 N   0  0  0  0  0  0
    0.1250    2.4520  -24.7210 N   0  0  0  0  0  0
    4.2860    2.7120  -23.5580 N   0  0  0  0  0  0
    6.2440    0.9490  -22.3430 N   0  0  1  0  0  0
   -3.9110    3.7470  -27.9470 O   0  0  0  0  0  0
   -6.1874    3.8874  -21.3241 H   0  0  0  0  0  0
   -6.6177    4.1548  -23.7303 H   0  0  0  0  0  0
    5.4162    3.8987  -21.2513 H   0  0  0  0  0  0
    6.6292    2.9101  -20.3237 H   0  0  0  0  0  0
    6.1587    2.4945  -24.5664 H   0  0  0  0  0  0
    5.9377    4.0604  -23.7206 H   0  0  0  0  0  0
   -5.7767    4.1298  -26.0804 H   0  0  0  0  0  0
    2.0470    1.6583  -24.6448 H   0  0  0  0  0  0
    2.8745    1.2688  -22.7260 H   0  0  0  0  0  0
    4.0794    0.5606  -23.8672 H   0  0  0  0  0  0
    4.5687   -0.0588  -21.4916 H   0  0  0  0  0  0
    7.5501    2.6391  -22.4703 H   0  0  0  0  0  0
    3.8515    2.4885  -20.7309 H   0  0  0  0  0  0
    5.0906    1.4732  -19.7998 H   0  0  0  0  0  0
   -1.6384    3.4928  -26.9095 H   0  0  0  0  0  0
    0.1328    2.2161  -20.7551 H   0  0  0  0  0  0
    6.8655    0.4527  -21.6124 H   0  0  0  0  0  0
   -3.0623    3.6234  -28.3555 H   0  0  0  0  0  0
    5.0350   10.0150  -22.7820 F   0  0  0  0  0  0
    3.9290    7.2800  -20.9120 N   0  0  1  0  0  0
    8.4620    9.4870  -21.7930 N   0  0  0  0  0  0
    3.6150    7.2690  -22.3850 C   0  0  0  0  0  0
    5.8770    8.8980  -20.8840 C   0  0  0  0  0  0
    4.4770    8.5780  -20.3740 C   0  0  0  0  0  0
    6.9840    8.4960  -20.1830 C   0  0  0  0  0  0
    6.0770    9.5990  -22.0490 C   0  0  0  0  0  0
    7.3600    9.8710  -22.4650 C   0  0  0  0  0  0
    8.2380    8.8010  -20.6560 C   0  0  0  0  0  0
    3.0300    7.0740  -20.3500 H   0  0  0  0  0  0
    4.5335    7.4691  -22.9563 H   0  0  0  0  0  0
    2.9042    8.0767  -22.6139 H   0  0  0  0  0  0
    4.4880    8.5430  -19.2746 H   0  0  0  0  0  0
    3.7953    9.3996  -20.6389 H   0  0  0  0  0  0
    6.8680    7.9391  -19.2602 H   0  0  0  0  0  0
    7.4560   10.4268  -23.3907 H   0  0  0  0  0  0
    9.0732    8.4549  -20.0579 H   0  0  0  0  0  0
  1  2  2  0  0  0
  1  3  1  0  0  0
  1 34  1  0  0  0
  2  6  1  0  0  0
  2 35  1  0  0  0
  3  5  2  0  0  0
  3 27  1  0  0  0
  4  5  1  0  0  0
  4  6  2  0  0  0
  4 18  1  0  0  0
  5 24  1  0  0  0
  6 10  1  0  0  0
  7 10  2  0  0  0
  7 23  1  0  0  0
  7 33  1  0  0  0
  8 21  1  0  0  0
  8 22  1  0  0  0
  8 36  1  0  0  0
  8 37  1  0  0  0
  9 21  1  0  0  0
  9 31  1  0  0  0
  9 38  1  0  0  0
  9 39  1  0  0  0
 10 40  1  0  0  0
 11 12  1  0  0  0
 11 14  2  0  0  0
 11 15  1  0  0  0
 12 17  1  0  0  0
 12 28  2  0  0  0
 13 28  1  0  0  0
 13 29  2  0  0  0
 13 55  1  0  0  0
 14 29  1  0  0  0
 14 31  1  0  0  0
 15 30  2  0  0  0
 15 41  1  0  0  0
 16 17  2  0  0  0
 16 18  1  0  0  0
 16 30  1  0  0  0
 17 26  1  0  0  0
 18 23  2  0  0  0
 19 20  1  0  0  0
 19 31  1  0  0  0
 19 42  1  0  0  0
 19 43  1  0  0  0
 20 22  1  0  0  0
 20 32  1  0  0  0
 20 44  1  0  0  0
 21 32  1  0  0  0
 21 45  1  0  0  0
 22 46  1  0  0  0
 22 47  1  0  0  0
 23 48  1  0  0  0
 24 25  3  0  0  0
 25 49  1  0  0  0
 32 50  1  0  0  0
 33 51  1  0  0  0
 52 59  1  0  0  0
 53 55  1  0  0  0
 53 57  1  0  0  0
 53 62  1  0  0  0
 54 60  2  0  0  0
 54 61  1  0  0  0
 55 63  1  0  0  0
 55 64  1  0  0  0
 56 57  1  0  0  0
 56 58  1  0  0  0
 56 59  2  0  0  0
 57 65  1  0  0  0
 57 66  1  0  0  0
 58 61  2  0  0  0
 58 67  1  0  0  0
 59 60  1  0  0  0
 60 68  1  0  0  0
 61 69  1  0  0  0
M  END
> <s_m_entry_id>
561

> <s_m_entry_name>
000000403.1

> <s_m_Source_Path>
/Users/zaksoul/Documents/3r_UNI/2nd_SEMESTER/BSC/FRAG_RECON/RESULTS/2

> <s_m_Source_File>
000000403.mol2

> <i_m_Source_File_Index>
1

$$$$
No_0_425
                    3D
 Schrodinger Suite 2022-4.
 69 75  0  0  1  0            999 V2000
   -5.1810    3.6090  -21.8530 C   0  0  0  0  0  0
   -5.4520    3.8050  -23.1860 C   0  0  0  0  0  0
   -3.9420    3.3510  -21.5190 C   0  0  0  0  0  0
   -3.0590    3.4860  -23.6870 C   0  0  0  0  0  0
   -2.8930    3.2340  -22.2690 C   0  0  0  0  0  0
   -4.4090    3.7540  -24.2010 C   0  0  0  0  0  0
   -3.6630    3.7850  -26.4030 C   0  0  0  0  0  0
    6.0870    3.0010  -21.1820 C   0  0  0  0  0  0
    5.9380    3.1560  -23.7310 C   0  0  0  0  0  0
   -4.6650    3.8890  -25.5350 C   0  0  0  0  0  0
    2.1540    3.7130  -23.7290 C   0  0  0  0  0  0
    1.3370    4.8230  -23.4210 C   0  0  0  0  0  0
    3.1410    6.0110  -22.7430 C   0  0  0  0  0  0
    3.5570    3.8990  -23.4210 C   0  0  0  0  0  0
    1.6030    2.6010  -24.3930 C   0  0  0  0  0  0
   -0.5220    3.4190  -24.2700 C   0  0  0  0  0  0
    0.0100    4.6350  -23.6670 C   0  0  0  0  0  0
   -1.9770    3.4300  -24.6180 C   0  0  0  0  0  0
    4.1570    1.3990  -23.1440 C   0  0  0  0  0  0
    5.0950    1.0350  -22.0030 C   0  0  2  0  0  0
    6.6890    2.5740  -22.5390 C   0  0  2  0  0  0
    5.0840    2.0310  -20.8310 C   0  0  0  0  0  0
   -2.3080    3.5970  -26.0440 C   0  0  0  0  0  0
   -1.5470    2.8150  -21.6780 C   0  0  0  0  0  0
   -0.5150    2.4620  -21.1780 C   0  0  0  0  0  0
   -0.8280    5.6800  -23.3140 F   0  0  0  0  0  0
   -3.7260    3.1020  -20.1390 F   0  0  0  0  0  0
    1.8200    5.9780  -22.8860 N   0  0  0  0  0  0
    4.0350    5.0470  -22.9720 N   0  0  0  0  0  0
    0.2950    2.5160  -24.6930 N   0  0  0  0  0  0
    4.4710    2.8500  -23.6070 N   0  0  0  0  0  0
    6.5000    1.1010  -22.4910 N   0  0  1  0  0  0
   -3.8410    3.8060  -27.7920 O   0  0  0  0  0  0
   -5.9796    3.6712  -21.1226 H   0  0  0  0  0  0
   -6.4675    4.0037  -23.5091 H   0  0  0  0  0  0
    5.6179    3.9906  -21.2849 H   0  0  0  0  0  0
    6.8763    3.0060  -20.4159 H   0  0  0  0  0  0
    6.3275    2.7150  -24.6604 H   0  0  0  0  0  0
    6.0833    4.2460  -23.7593 H   0  0  0  0  0  0
   -5.6765    4.0776  -25.8762 H   0  0  0  0  0  0
    2.2385    1.7718  -24.6821 H   0  0  0  0  0  0
    3.1157    1.3435  -22.7939 H   0  0  0  0  0  0
    4.3144    0.7047  -23.9826 H   0  0  0  0  0  0
    4.8700    0.0218  -21.6387 H   0  0  0  0  0  0
    7.7578    2.8293  -22.5885 H   0  0  0  0  0  0
    4.1018    2.5236  -20.7805 H   0  0  0  0  0  0
    5.3877    1.5123  -19.9097 H   0  0  0  0  0  0
   -1.5411    3.5789  -26.8099 H   0  0  0  0  0  0
    0.3934    2.1519  -20.7378 H   0  0  0  0  0  0
    7.1492    0.5983  -21.7894 H   0  0  0  0  0  0
   -2.9984    3.7179  -28.2217 H   0  0  0  0  0  0
    4.7350   10.2700  -22.6010 F   0  0  0  0  0  0
    4.3800    7.2230  -20.9300 N   0  0  1  0  0  0
    8.3340   10.0440  -22.5480 N   0  0  0  0  0  0
    3.7060    7.3460  -22.2710 C   0  0  0  0  0  0
    6.1240    9.0480  -21.1390 C   0  0  0  0  0  0
    4.9320    8.5060  -20.3600 C   0  0  0  0  0  0
    7.4030    8.7020  -20.7890 C   0  0  0  0  0  0
    5.9610    9.8990  -22.2060 C   0  0  0  0  0  0
    7.0680   10.3690  -22.8740 C   0  0  0  0  0  0
    8.4650    9.2070  -21.5000 C   0  0  0  0  0  0
    3.6737    6.8468  -20.2047 H   0  0  0  0  0  0
    4.4289    7.7200  -23.0109 H   0  0  0  0  0  0
    2.8939    8.0851  -22.2060 H   0  0  0  0  0  0
    5.2240    8.3440  -19.3119 H   0  0  0  0  0  0
    4.1366    9.2654  -20.3340 H   0  0  0  0  0  0
    7.5740    8.0321  -19.9541 H   0  0  0  0  0  0
    6.8780   11.0371  -23.7062 H   0  0  0  0  0  0
    9.4512    8.8959  -21.1749 H   0  0  0  0  0  0
  1  2  2  0  0  0
  1  3  1  0  0  0
  1 34  1  0  0  0
  2  6  1  0  0  0
  2 35  1  0  0  0
  3  5  2  0  0  0
  3 27  1  0  0  0
  4  5  1  0  0  0
  4  6  2  0  0  0
  4 18  1  0  0  0
  5 24  1  0  0  0
  6 10  1  0  0  0
  7 10  2  0  0  0
  7 23  1  0  0  0
  7 33  1  0  0  0
  8 21  1  0  0  0
  8 22  1  0  0  0
  8 36  1  0  0  0
  8 37  1  0  0  0
  9 21  1  0  0  0
  9 31  1  0  0  0
  9 38  1  0  0  0
  9 39  1  0  0  0
 10 40  1  0  0  0
 11 12  1  0  0  0
 11 14  2  0  0  0
 11 15  1  0  0  0
 12 17  1  0  0  0
 12 28  2  0  0  0
 13 28  1  0  0  0
 13 29  2  0  0  0
 13 55  1  0  0  0
 14 29  1  0  0  0
 14 31  1  0  0  0
 15 30  2  0  0  0
 15 41  1  0  0  0
 16 17  2  0  0  0
 16 18  1  0  0  0
 16 30  1  0  0  0
 17 26  1  0  0  0
 18 23  2  0  0  0
 19 20  1  0  0  0
 19 31  1  0  0  0
 19 42  1  0  0  0
 19 43  1  0  0  0
 20 22  1  0  0  0
 20 32  1  0  0  0
 20 44  1  0  0  0
 21 32  1  0  0  0
 21 45  1  0  0  0
 22 46  1  0  0  0
 22 47  1  0  0  0
 23 48  1  0  0  0
 24 25  3  0  0  0
 25 49  1  0  0  0
 32 50  1  0  0  0
 33 51  1  0  0  0
 52 59  1  0  0  0
 53 55  1  0  0  0
 53 57  1  0  0  0
 53 62  1  0  0  0
 54 60  2  0  0  0
 54 61  1  0  0  0
 55 63  1  0  0  0
 55 64  1  0  0  0
 56 57  1  0  0  0
 56 58  1  0  0  0
 56 59  2  0  0  0
 57 65  1  0  0  0
 57 66  1  0  0  0
 58 61  2  0  0  0
 58 67  1  0  0  0
 59 60  1  0  0  0
 60 68  1  0  0  0
 61 69  1  0  0  0
M  END
> <s_m_entry_id>
562

> <s_m_entry_name>
000000404.1

> <s_m_Source_Path>
/Users/zaksoul/Documents/3r_UNI/2nd_SEMESTER/BSC/FRAG_RECON/RESULTS/2

> <s_m_Source_File>
000000404.mol2

> <i_m_Source_File_Index>
1

$$$$
No_0_426
                    3D
 Schrodinger Suite 2022-4.
 68 74  0  0  1  0            999 V2000
   -5.1740    3.6050  -21.8920 C   0  0  0  0  0  0
   -5.4460    3.7590  -23.2300 C   0  0  0  0  0  0
   -3.9370    3.3450  -21.5510 C   0  0  0  0  0  0
   -3.0580    3.3980  -23.7250 C   0  0  0  0  0  0
   -2.8910    3.1920  -22.2990 C   0  0  0  0  0  0
   -4.4050    3.6630  -24.2450 C   0  0  0  0  0  0
   -3.6640    3.6120  -26.4480 C   0  0  0  0  0  0
    6.0890    2.8990  -21.2240 C   0  0  0  0  0  0
    5.9350    2.9700  -23.7750 C   0  0  0  0  0  0
   -4.6640    3.7560  -25.5820 C   0  0  0  0  0  0
    2.1580    3.5680  -23.7850 C   0  0  0  0  0  0
    1.3540    4.6950  -23.5130 C   0  0  0  0  0  0
    3.1720    5.8860  -22.8780 C   0  0  0  0  0  0
    3.5630    3.7490  -23.4860 C   0  0  0  0  0  0
    1.5930    2.4400  -24.4100 C   0  0  0  0  0  0
   -0.5230    3.2840  -24.3100 C   0  0  0  0  0  0
    0.0240    4.5140  -23.7490 C   0  0  0  0  0  0
   -1.9780    3.2990  -24.6550 C   0  0  0  0  0  0
    4.1370    1.2530  -23.1260 C   0  0  0  0  0  0
    5.0740    0.9170  -21.9760 C   0  0  2  0  0  0
    6.6830    2.4210  -22.5660 C   0  0  2  0  0  0
    5.0770    1.9520  -20.8380 C   0  0  0  0  0  0
   -2.3110    3.4220  -26.0850 C   0  0  0  0  0  0
   -1.5480    2.7780  -21.6970 C   0  0  0  0  0  0
   -0.5190    2.4310  -21.1880 C   0  0  0  0  0  0
   -0.8020    5.5800  -23.4300 F   0  0  0  0  0  0
   -3.7200    3.1400  -20.1640 F   0  0  0  0  0  0
    1.8490    5.8630  -23.0170 N   0  0  0  0  0  0
    4.0540    4.9060  -23.0760 N   0  0  0  0  0  0
    0.2830    2.3590  -24.7050 N   0  0  0  0  0  0
    4.4660    2.6840  -23.6390 N   0  0  0  0  0  0
    6.4780    0.9520  -22.4680 N   0  0  1  0  0  0
   -3.8460    3.5890  -27.8360 O   0  0  0  0  0  0
   -5.9700    3.6994  -21.1623 H   0  0  0  0  0  0
   -6.4598    3.9577  -23.5582 H   0  0  0  0  0  0
    5.6300    3.8896  -21.3582 H   0  0  0  0  0  0
    6.8802    2.9212  -20.4601 H   0  0  0  0  0  0
    6.3175    2.4947  -24.6903 H   0  0  0  0  0  0
    6.0924    4.0567  -23.8406 H   0  0  0  0  0  0
   -5.6740    3.9448  -25.9274 H   0  0  0  0  0  0
    2.2193    1.5949  -24.6720 H   0  0  0  0  0  0
    3.0959    1.2197  -22.7726 H   0  0  0  0  0  0
    4.2853    0.5296  -23.9413 H   0  0  0  0  0  0
    4.8389   -0.0809  -21.5774 H   0  0  0  0  0  0
    7.7545    2.6621  -22.6265 H   0  0  0  0  0  0
    4.1002    2.4565  -20.8017 H   0  0  0  0  0  0
    5.3765    1.4610  -19.9003 H   0  0  0  0  0  0
   -1.5464    3.3708  -26.8517 H   0  0  0  0  0  0
    0.3872    2.1259  -20.7399 H   0  0  0  0  0  0
    7.1237    0.4656  -21.7518 H   0  0  0  0  0  0
   -3.0053    3.4782  -28.2643 H   0  0  0  0  0  0
    4.0970    7.2380  -20.9850 N   0  0  1  0  0  0
    6.6320    8.3930  -22.2130 N   0  0  0  0  0  0
    8.9570    8.2580  -21.5790 N   0  0  0  0  0  0
    4.8440    8.4580  -20.5150 C   0  0  0  0  0  0
    3.7520    7.2310  -22.4520 C   0  0  0  0  0  0
    6.3100    8.3940  -20.9100 C   0  0  0  0  0  0
    7.2570    8.3320  -19.9240 C   0  0  0  0  0  0
    8.5720    8.2650  -20.2940 C   0  0  0  0  0  0
    7.9490    8.3240  -22.4640 C   0  0  0  0  0  0
    4.6935    6.3563  -20.8029 H   0  0  0  0  0  0
    4.7630    8.5380  -19.4209 H   0  0  0  0  0  0
    4.3858    9.3584  -20.9502 H   0  0  0  0  0  0
    4.6559    7.4430  -23.0419 H   0  0  0  0  0  0
    3.0221    8.0269  -22.6610 H   0  0  0  0  0  0
    6.9568    8.3370  -18.8824 H   0  0  0  0  0  0
    9.3149    8.2160  -19.5061 H   0  0  0  0  0  0
    8.3058    8.3170  -23.4876 H   0  0  0  0  0  0
  1  2  2  0  0  0
  1  3  1  0  0  0
  1 34  1  0  0  0
  2  6  1  0  0  0
  2 35  1  0  0  0
  3  5  2  0  0  0
  3 27  1  0  0  0
  4  5  1  0  0  0
  4  6  2  0  0  0
  4 18  1  0  0  0
  5 24  1  0  0  0
  6 10  1  0  0  0
  7 10  2  0  0  0
  7 23  1  0  0  0
  7 33  1  0  0  0
  8 21  1  0  0  0
  8 22  1  0  0  0
  8 36  1  0  0  0
  8 37  1  0  0  0
  9 21  1  0  0  0
  9 31  1  0  0  0
  9 38  1  0  0  0
  9 39  1  0  0  0
 10 40  1  0  0  0
 11 12  1  0  0  0
 11 14  2  0  0  0
 11 15  1  0  0  0
 12 17  1  0  0  0
 12 28  2  0  0  0
 13 28  1  0  0  0
 13 29  2  0  0  0
 13 56  1  0  0  0
 14 29  1  0  0  0
 14 31  1  0  0  0
 15 30  2  0  0  0
 15 41  1  0  0  0
 16 17  2  0  0  0
 16 18  1  0  0  0
 16 30  1  0  0  0
 17 26  1  0  0  0
 18 23  2  0  0  0
 19 20  1  0  0  0
 19 31  1  0  0  0
 19 42  1  0  0  0
 19 43  1  0  0  0
 20 22  1  0  0  0
 20 32  1  0  0  0
 20 44  1  0  0  0
 21 32  1  0  0  0
 21 45  1  0  0  0
 22 46  1  0  0  0
 22 47  1  0  0  0
 23 48  1  0  0  0
 24 25  3  0  0  0
 25 49  1  0  0  0
 32 50  1  0  0  0
 33 51  1  0  0  0
 52 55  1  0  0  0
 52 56  1  0  0  0
 52 61  1  0  0  0
 53 57  2  0  0  0
 53 60  1  0  0  0
 54 59  1  0  0  0
 54 60  2  0  0  0
 55 57  1  0  0  0
 55 62  1  0  0  0
 55 63  1  0  0  0
 56 64  1  0  0  0
 56 65  1  0  0  0
 57 58  1  0  0  0
 58 59  2  0  0  0
 58 66  1  0  0  0
 59 67  1  0  0  0
 60 68  1  0  0  0
M  END
> <s_m_entry_id>
563

> <s_m_entry_name>
000000405.1

> <s_m_Source_Path>
/Users/zaksoul/Documents/3r_UNI/2nd_SEMESTER/BSC/FRAG_RECON/RESULTS/2

> <s_m_Source_File>
000000405.mol2

> <i_m_Source_File_Index>
1

$$$$
No_0_427
                    3D
 Schrodinger Suite 2022-4.
 68 74  0  0  1  0            999 V2000
   -5.1810    3.6090  -21.8530 C   0  0  0  0  0  0
   -5.4520    3.8050  -23.1860 C   0  0  0  0  0  0
   -3.9420    3.3510  -21.5190 C   0  0  0  0  0  0
   -3.0590    3.4860  -23.6870 C   0  0  0  0  0  0
   -2.8930    3.2340  -22.2690 C   0  0  0  0  0  0
   -4.4090    3.7540  -24.2010 C   0  0  0  0  0  0
   -3.6630    3.7850  -26.4030 C   0  0  0  0  0  0
    6.0870    3.0010  -21.1820 C   0  0  0  0  0  0
    5.9380    3.1560  -23.7310 C   0  0  0  0  0  0
   -4.6650    3.8890  -25.5350 C   0  0  0  0  0  0
    2.1540    3.7130  -23.7290 C   0  0  0  0  0  0
    1.3370    4.8230  -23.4210 C   0  0  0  0  0  0
    3.1410    6.0110  -22.7430 C   0  0  0  0  0  0
    3.5570    3.8990  -23.4210 C   0  0  0  0  0  0
    1.6030    2.6010  -24.3930 C   0  0  0  0  0  0
   -0.5220    3.4190  -24.2700 C   0  0  0  0  0  0
    0.0100    4.6350  -23.6670 C   0  0  0  0  0  0
   -1.9770    3.4300  -24.6180 C   0  0  0  0  0  0
    4.1570    1.3990  -23.1440 C   0  0  0  0  0  0
    5.0950    1.0350  -22.0030 C   0  0  2  0  0  0
    6.6890    2.5740  -22.5390 C   0  0  2  0  0  0
    5.0840    2.0310  -20.8310 C   0  0  0  0  0  0
   -2.3080    3.5970  -26.0440 C   0  0  0  0  0  0
   -1.5470    2.8150  -21.6780 C   0  0  0  0  0  0
   -0.5150    2.4620  -21.1780 C   0  0  0  0  0  0
   -0.8280    5.6800  -23.3140 F   0  0  0  0  0  0
   -3.7260    3.1020  -20.1390 F   0  0  0  0  0  0
    1.8200    5.9780  -22.8860 N   0  0  0  0  0  0
    4.0350    5.0470  -22.9720 N   0  0  0  0  0  0
    0.2950    2.5160  -24.6930 N   0  0  0  0  0  0
    4.4710    2.8500  -23.6070 N   0  0  0  0  0  0
    6.5000    1.1010  -22.4910 N   0  0  1  0  0  0
   -3.8410    3.8060  -27.7920 O   0  0  0  0  0  0
   -5.9796    3.6712  -21.1226 H   0  0  0  0  0  0
   -6.4675    4.0037  -23.5091 H   0  0  0  0  0  0
    5.6179    3.9906  -21.2849 H   0  0  0  0  0  0
    6.8763    3.0060  -20.4159 H   0  0  0  0  0  0
    6.3275    2.7150  -24.6604 H   0  0  0  0  0  0
    6.0833    4.2460  -23.7593 H   0  0  0  0  0  0
   -5.6765    4.0776  -25.8762 H   0  0  0  0  0  0
    2.2385    1.7718  -24.6821 H   0  0  0  0  0  0
    3.1157    1.3435  -22.7939 H   0  0  0  0  0  0
    4.3144    0.7047  -23.9826 H   0  0  0  0  0  0
    4.8700    0.0218  -21.6387 H   0  0  0  0  0  0
    7.7578    2.8293  -22.5885 H   0  0  0  0  0  0
    4.1018    2.5236  -20.7805 H   0  0  0  0  0  0
    5.3877    1.5123  -19.9097 H   0  0  0  0  0  0
   -1.5411    3.5789  -26.8099 H   0  0  0  0  0  0
    0.3934    2.1519  -20.7378 H   0  0  0  0  0  0
    7.1492    0.5983  -21.7894 H   0  0  0  0  0  0
   -2.9984    3.7179  -28.2217 H   0  0  0  0  0  0
    4.4420    7.1990  -20.9640 N   0  0  1  0  0  0
    6.4360    8.8080  -22.6070 N   0  0  0  0  0  0
    8.8490    8.8740  -22.6340 N   0  0  0  0  0  0
    5.1890    8.4260  -20.5140 C   0  0  0  0  0  0
    3.7060    7.3460  -22.2710 C   0  0  0  0  0  0
    6.4890    8.5950  -21.2840 C   0  0  0  0  0  0
    7.6740    8.5170  -20.6030 C   0  0  0  0  0  0
    8.8360    8.6610  -21.3100 C   0  0  0  0  0  0
    7.6330    8.9350  -23.2020 C   0  0  0  0  0  0
    5.1349    6.3802  -21.0900 H   0  0  0  0  0  0
    5.4080    8.3480  -19.4389 H   0  0  0  0  0  0
    4.5576    9.3145  -20.6621 H   0  0  0  0  0  0
    4.3911    7.7440  -23.0341 H   0  0  0  0  0  0
    2.8850    8.0680  -22.1500 H   0  0  0  0  0  0
    7.6730    8.3450  -19.5327 H   0  0  0  0  0  0
    9.7691    8.5970  -20.7620 H   0  0  0  0  0  0
    7.6920    9.1090  -24.2703 H   0  0  0  0  0  0
  1  2  2  0  0  0
  1  3  1  0  0  0
  1 34  1  0  0  0
  2  6  1  0  0  0
  2 35  1  0  0  0
  3  5  2  0  0  0
  3 27  1  0  0  0
  4  5  1  0  0  0
  4  6  2  0  0  0
  4 18  1  0  0  0
  5 24  1  0  0  0
  6 10  1  0  0  0
  7 10  2  0  0  0
  7 23  1  0  0  0
  7 33  1  0  0  0
  8 21  1  0  0  0
  8 22  1  0  0  0
  8 36  1  0  0  0
  8 37  1  0  0  0
  9 21  1  0  0  0
  9 31  1  0  0  0
  9 38  1  0  0  0
  9 39  1  0  0  0
 10 40  1  0  0  0
 11 12  1  0  0  0
 11 14  2  0  0  0
 11 15  1  0  0  0
 12 17  1  0  0  0
 12 28  2  0  0  0
 13 28  1  0  0  0
 13 29  2  0  0  0
 13 56  1  0  0  0
 14 29  1  0  0  0
 14 31  1  0  0  0
 15 30  2  0  0  0
 15 41  1  0  0  0
 16 17  2  0  0  0
 16 18  1  0  0  0
 16 30  1  0  0  0
 17 26  1  0  0  0
 18 23  2  0  0  0
 19 20  1  0  0  0
 19 31  1  0  0  0
 19 42  1  0  0  0
 19 43  1  0  0  0
 20 22  1  0  0  0
 20 32  1  0  0  0
 20 44  1  0  0  0
 21 32  1  0  0  0
 21 45  1  0  0  0
 22 46  1  0  0  0
 22 47  1  0  0  0
 23 48  1  0  0  0
 24 25  3  0  0  0
 25 49  1  0  0  0
 32 50  1  0  0  0
 33 51  1  0  0  0
 52 55  1  0  0  0
 52 56  1  0  0  0
 52 61  1  0  0  0
 53 57  2  0  0  0
 53 60  1  0  0  0
 54 59  1  0  0  0
 54 60  2  0  0  0
 55 57  1  0  0  0
 55 62  1  0  0  0
 55 63  1  0  0  0
 56 64  1  0  0  0
 56 65  1  0  0  0
 57 58  1  0  0  0
 58 59  2  0  0  0
 58 66  1  0  0  0
 59 67  1  0  0  0
 60 68  1  0  0  0
M  END
> <s_m_entry_id>
564

> <s_m_entry_name>
000000406.1

> <s_m_Source_Path>
/Users/zaksoul/Documents/3r_UNI/2nd_SEMESTER/BSC/FRAG_RECON/RESULTS/2

> <s_m_Source_File>
000000406.mol2

> <i_m_Source_File_Index>
1

$$$$
No_0_428
                    3D
 Schrodinger Suite 2022-4.
 68 74  0  0  1  0            999 V2000
   -5.2550    3.5210  -22.0820 C   0  0  0  0  0  0
   -5.4900    3.7250  -23.4210 C   0  0  0  0  0  0
   -4.0240    3.2730  -21.7140 C   0  0  0  0  0  0
   -3.0800    3.4320  -23.8550 C   0  0  0  0  0  0
   -2.9530    3.1710  -22.4340 C   0  0  0  0  0  0
   -4.4170    3.6910  -24.4060 C   0  0  0  0  0  0
   -3.6080    3.7450  -26.5850 C   0  0  0  0  0  0
    5.9940    3.0140  -21.0910 C   0  0  0  0  0  0
    5.9170    3.1870  -23.6410 C   0  0  0  0  0  0
   -4.6360    3.8330  -25.7460 C   0  0  0  0  0  0
    2.1300    3.7090  -23.7450 C   0  0  0  0  0  0
    1.2940    4.8080  -23.4520 C   0  0  0  0  0  0
    3.0660    6.0070  -22.7140 C   0  0  0  0  0  0
    3.5210    3.9050  -23.3950 C   0  0  0  0  0  0
    1.6080    2.5960  -24.4330 C   0  0  0  0  0  0
   -0.5270    3.3930  -24.3650 C   0  0  0  0  0  0
   -0.0240    4.6100  -23.7380 C   0  0  0  0  0  0
   -1.9710    3.3930  -24.7540 C   0  0  0  0  0  0
    4.1370    1.4080  -23.1190 C   0  0  0  0  0  0
    5.0450    1.0450  -21.9540 C   0  0  2  0  0  0
    6.6400    2.6030  -22.4320 C   0  0  2  0  0  0
    4.9910    2.0320  -20.7750 C   0  0  0  0  0  0
   -2.2620    3.5680  -26.1880 C   0  0  0  0  0  0
   -1.6210    2.7600  -21.8080 C   0  0  0  0  0  0
   -0.6000    2.4130  -21.2810 C   0  0  0  0  0  0
   -0.8820    5.6440  -23.4020 F   0  0  0  0  0  0
   -3.8450    3.0150  -20.3300 F   0  0  0  0  0  0
    1.7490    5.9630  -22.8950 N   0  0  0  0  0  0
    3.9750    5.0540  -22.9240 N   0  0  0  0  0  0
    0.3100    2.5010  -24.7710 N   0  0  0  0  0  0
    4.4510    2.8660  -23.5620 N   0  0  0  0  0  0
    6.4630    1.1280  -22.4010 N   0  0  1  0  0  0
   -3.7470    3.7760  -27.9780 O   0  0  0  0  0  0
   -6.0748    3.5702  -21.3745 H   0  0  0  0  0  0
   -6.4973    3.9168  -23.7725 H   0  0  0  0  0  0
    5.5187    4.0000  -21.2000 H   0  0  0  0  0  0
    6.7611    3.0201  -20.3027 H   0  0  0  0  0  0
    6.3367    2.7562  -24.5620 H   0  0  0  0  0  0
    6.0533    4.2784  -23.6572 H   0  0  0  0  0  0
   -5.6390    4.0157  -26.1145 H   0  0  0  0  0  0
    2.2602    1.7753  -24.7089 H   0  0  0  0  0  0
    3.0867    1.3404  -22.7992 H   0  0  0  0  0  0
    4.3247    0.7216  -23.9578 H   0  0  0  0  0  0
    4.8191    0.0273  -21.6030 H   0  0  0  0  0  0
    7.7073    2.8686  -22.4492 H   0  0  0  0  0  0
    4.0034    2.5157  -20.7498 H   0  0  0  0  0  0
    5.2726    1.5082  -19.8496 H   0  0  0  0  0  0
   -1.4737    3.5630  -26.9321 H   0  0  0  0  0  0
    0.2982    2.1079  -20.8169 H   0  0  0  0  0  0
    7.0960    0.6255  -21.6846 H   0  0  0  0  0  0
   -2.8914    3.6988  -28.3836 H   0  0  0  0  0  0
    4.6000    7.1540  -21.1010 N   0  0  1  0  0  0
    6.0800    9.1020  -22.9120 N   0  0  0  0  0  0
    8.4230    9.4150  -23.3990 N   0  0  0  0  0  0
    5.3210    8.4040  -20.6720 C   0  0  0  0  0  0
    3.6040    7.3450  -22.2160 C   0  0  0  0  0  0
    6.4180    8.7750  -21.6550 C   0  0  0  0  0  0
    7.7190    8.7560  -21.2300 C   0  0  0  0  0  0
    8.6970    9.0820  -22.1290 C   0  0  0  0  0  0
    7.1170    9.4040  -23.7100 C   0  0  0  0  0  0
    5.3177    6.4253  -21.4479 H   0  0  0  0  0  0
    5.7591    8.2500  -19.6748 H   0  0  0  0  0  0
    4.6020    9.2330  -20.5960 H   0  0  0  0  0  0
    4.0849    7.8789  -23.0489 H   0  0  0  0  0  0
    2.7687    7.9652  -21.8589 H   0  0  0  0  0  0
    7.9510    8.4870  -20.2059 H   0  0  0  0  0  0
    9.7241    9.0630  -21.7830 H   0  0  0  0  0  0
    6.9430    9.6799  -24.7438 H   0  0  0  0  0  0
  1  2  2  0  0  0
  1  3  1  0  0  0
  1 34  1  0  0  0
  2  6  1  0  0  0
  2 35  1  0  0  0
  3  5  2  0  0  0
  3 27  1  0  0  0
  4  5  1  0  0  0
  4  6  2  0  0  0
  4 18  1  0  0  0
  5 24  1  0  0  0
  6 10  1  0  0  0
  7 10  2  0  0  0
  7 23  1  0  0  0
  7 33  1  0  0  0
  8 21  1  0  0  0
  8 22  1  0  0  0
  8 36  1  0  0  0
  8 37  1  0  0  0
  9 21  1  0  0  0
  9 31  1  0  0  0
  9 38  1  0  0  0
  9 39  1  0  0  0
 10 40  1  0  0  0
 11 12  1  0  0  0
 11 14  2  0  0  0
 11 15  1  0  0  0
 12 17  1  0  0  0
 12 28  2  0  0  0
 13 28  1  0  0  0
 13 29  2  0  0  0
 13 56  1  0  0  0
 14 29  1  0  0  0
 14 31  1  0  0  0
 15 30  2  0  0  0
 15 41  1  0  0  0
 16 17  2  0  0  0
 16 18  1  0  0  0
 16 30  1  0  0  0
 17 26  1  0  0  0
 18 23  2  0  0  0
 19 20  1  0  0  0
 19 31  1  0  0  0
 19 42  1  0  0  0
 19 43  1  0  0  0
 20 22  1  0  0  0
 20 32  1  0  0  0
 20 44  1  0  0  0
 21 32  1  0  0  0
 21 45  1  0  0  0
 22 46  1  0  0  0
 22 47  1  0  0  0
 23 48  1  0  0  0
 24 25  3  0  0  0
 25 49  1  0  0  0
 32 50  1  0  0  0
 33 51  1  0  0  0
 52 55  1  0  0  0
 52 56  1  0  0  0
 52 61  1  0  0  0
 53 57  2  0  0  0
 53 60  1  0  0  0
 54 59  1  0  0  0
 54 60  2  0  0  0
 55 57  1  0  0  0
 55 62  1  0  0  0
 55 63  1  0  0  0
 56 64  1  0  0  0
 56 65  1  0  0  0
 57 58  1  0  0  0
 58 59  2  0  0  0
 58 66  1  0  0  0
 59 67  1  0  0  0
 60 68  1  0  0  0
M  END
> <s_m_entry_id>
565

> <s_m_entry_name>
000000407.1

> <s_m_Source_Path>
/Users/zaksoul/Documents/3r_UNI/2nd_SEMESTER/BSC/FRAG_RECON/RESULTS/2

> <s_m_Source_File>
000000407.mol2

> <i_m_Source_File_Index>
1

$$$$
No_0_429
                    3D
 Schrodinger Suite 2022-4.
 68 74  0  0  1  0            999 V2000
   -5.3630    3.7240  -21.9320 C   0  0  0  0  0  0
   -5.6130    3.9350  -23.2670 C   0  0  0  0  0  0
   -4.1320    3.4490  -21.5820 C   0  0  0  0  0  0
   -3.2180    3.5920  -23.7370 C   0  0  0  0  0  0
   -3.0740    3.3270  -22.3190 C   0  0  0  0  0  0
   -4.5560    3.8810  -24.2680 C   0  0  0  0  0  0
   -3.7790    3.9210  -26.4580 C   0  0  0  0  0  0
    5.8860    2.9810  -21.1080 C   0  0  0  0  0  0
    5.7750    3.1600  -23.6570 C   0  0  0  0  0  0
   -4.7920    4.0290  -25.6040 C   0  0  0  0  0  0
    1.9990    3.7610  -23.7040 C   0  0  0  0  0  0
    1.1900    4.8760  -23.3970 C   0  0  0  0  0  0
    2.9980    6.0380  -22.6840 C   0  0  0  0  0  0
    3.3980    3.9280  -23.3740 C   0  0  0  0  0  0
    1.4440    2.6600  -24.3850 C   0  0  0  0  0  0
   -0.6730    3.5010  -24.2840 C   0  0  0  0  0  0
   -0.1360    4.7060  -23.6640 C   0  0  0  0  0  0
   -2.1230    3.5320  -24.6530 C   0  0  0  0  0  0
    3.9660    1.4180  -23.1100 C   0  0  0  0  0  0
    4.8840    1.0340  -21.9600 C   0  0  2  0  0  0
    6.5030    2.5590  -22.4600 C   0  0  2  0  0  0
    4.8680    2.0190  -20.7790 C   0  0  0  0  0  0
   -2.4320    3.7160  -26.0820 C   0  0  0  0  0  0
   -1.7420    2.8870  -21.7130 C   0  0  0  0  0  0
   -0.7210    2.5180  -21.2020 C   0  0  0  0  0  0
   -0.9670    5.7580  -23.3130 F   0  0  0  0  0  0
   -3.9390    3.1860  -20.2020 F   0  0  0  0  0  0
    1.6780    6.0210  -22.8460 N   0  0  0  0  0  0
    3.8830    5.0660  -22.9080 N   0  0  0  0  0  0
    0.1390    2.5930  -24.7040 N   0  0  0  0  0  0
    4.3040    2.8690  -23.5570 N   0  0  0  0  0  0
    6.2960    1.0880  -22.4270 N   0  0  1  0  0  0
   -3.9380    3.9570  -27.8490 O   0  0  0  0  0  0
   -6.1710    3.7892  -21.2123 H   0  0  0  0  0  0
   -6.6217    4.1478  -23.6022 H   0  0  0  0  0  0
    5.4299    3.9769  -21.2089 H   0  0  0  0  0  0
    6.6648    2.9709  -20.3312 H   0  0  0  0  0  0
    6.1726    2.7220  -24.5844 H   0  0  0  0  0  0
    5.9335    4.2484  -23.6732 H   0  0  0  0  0  0
   -5.7964    4.2327  -25.9572 H   0  0  0  0  0  0
    2.0742    1.8260  -24.6720 H   0  0  0  0  0  0
    2.9190    1.3716  -22.7758 H   0  0  0  0  0  0
    4.1274    0.7291  -23.9522 H   0  0  0  0  0  0
    4.6419    0.0203  -21.6080 H   0  0  0  0  0  0
    7.5753    2.8021  -22.4923 H   0  0  0  0  0  0
    3.8913    2.5235  -20.7386 H   0  0  0  0  0  0
    5.1518    1.4888  -19.8579 H   0  0  0  0  0  0
   -1.6552    3.6949  -26.8377 H   0  0  0  0  0  0
    0.1772    2.1929  -20.7519 H   0  0  0  0  0  0
    6.9300    0.5716  -21.7214 H   0  0  0  0  0  0
   -3.0903    3.8630  -28.2674 H   0  0  0  0  0  0
    4.8160    7.1500  -21.3710 N   0  0  1  0  0  0
    5.7080    9.3560  -23.2700 N   0  0  0  0  0  0
    7.8430    9.8860  -24.2640 N   0  0  0  0  0  0
    5.5540    8.4080  -20.9980 C   0  0  0  0  0  0
    3.5710    7.3630  -22.1920 C   0  0  0  0  0  0
    6.3580    8.9450  -22.1700 C   0  0  0  0  0  0
    7.7230    8.9870  -22.0700 C   0  0  0  0  0  0
    8.4350    9.4630  -23.1370 C   0  0  0  0  0  0
    6.5030    9.8040  -24.2560 C   0  0  0  0  0  0
    5.4645    6.5105  -21.9515 H   0  0  0  0  0  0
    6.2298    8.2001  -20.1553 H   0  0  0  0  0  0
    4.8333    9.1707  -20.6681 H   0  0  0  0  0  0
    3.8062    8.0024  -23.0556 H   0  0  0  0  0  0
    2.8168    7.8851  -21.5849 H   0  0  0  0  0  0
    8.2104    8.6477  -21.1632 H   0  0  0  0  0  0
    9.5150    9.4920  -23.0480 H   0  0  0  0  0  0
    6.0679   10.1561  -25.1843 H   0  0  0  0  0  0
  1  2  2  0  0  0
  1  3  1  0  0  0
  1 34  1  0  0  0
  2  6  1  0  0  0
  2 35  1  0  0  0
  3  5  2  0  0  0
  3 27  1  0  0  0
  4  5  1  0  0  0
  4  6  2  0  0  0
  4 18  1  0  0  0
  5 24  1  0  0  0
  6 10  1  0  0  0
  7 10  2  0  0  0
  7 23  1  0  0  0
  7 33  1  0  0  0
  8 21  1  0  0  0
  8 22  1  0  0  0
  8 36  1  0  0  0
  8 37  1  0  0  0
  9 21  1  0  0  0
  9 31  1  0  0  0
  9 38  1  0  0  0
  9 39  1  0  0  0
 10 40  1  0  0  0
 11 12  1  0  0  0
 11 14  2  0  0  0
 11 15  1  0  0  0
 12 17  1  0  0  0
 12 28  2  0  0  0
 13 28  1  0  0  0
 13 29  2  0  0  0
 13 56  1  0  0  0
 14 29  1  0  0  0
 14 31  1  0  0  0
 15 30  2  0  0  0
 15 41  1  0  0  0
 16 17  2  0  0  0
 16 18  1  0  0  0
 16 30  1  0  0  0
 17 26  1  0  0  0
 18 23  2  0  0  0
 19 20  1  0  0  0
 19 31  1  0  0  0
 19 42  1  0  0  0
 19 43  1  0  0  0
 20 22  1  0  0  0
 20 32  1  0  0  0
 20 44  1  0  0  0
 21 32  1  0  0  0
 21 45  1  0  0  0
 22 46  1  0  0  0
 22 47  1  0  0  0
 23 48  1  0  0  0
 24 25  3  0  0  0
 25 49  1  0  0  0
 32 50  1  0  0  0
 33 51  1  0  0  0
 52 55  1  0  0  0
 52 56  1  0  0  0
 52 61  1  0  0  0
 53 57  2  0  0  0
 53 60  1  0  0  0
 54 59  1  0  0  0
 54 60  2  0  0  0
 55 57  1  0  0  0
 55 62  1  0  0  0
 55 63  1  0  0  0
 56 64  1  0  0  0
 56 65  1  0  0  0
 57 58  1  0  0  0
 58 59  2  0  0  0
 58 66  1  0  0  0
 59 67  1  0  0  0
 60 68  1  0  0  0
M  END
> <s_m_entry_id>
566

> <s_m_entry_name>
000000408.1

> <s_m_Source_Path>
/Users/zaksoul/Documents/3r_UNI/2nd_SEMESTER/BSC/FRAG_RECON/RESULTS/2

> <s_m_Source_File>
000000408.mol2

> <i_m_Source_File_Index>
1

$$$$
No_0_430
                    3D
 Schrodinger Suite 2022-4.
 70 76  0  0  1  0            999 V2000
   -5.0990    3.7030  -22.2180 C   0  0  0  0  0  0
   -5.3530    3.8510  -23.5610 C   0  0  0  0  0  0
   -3.8670    3.4440  -21.8590 C   0  0  0  0  0  0
   -2.9590    3.4870  -24.0210 C   0  0  0  0  0  0
   -2.8120    3.2870  -22.5920 C   0  0  0  0  0  0
   -4.2990    3.7510  -24.5600 C   0  0  0  0  0  0
   -3.5270    3.6900  -26.7520 C   0  0  0  0  0  0
    6.1520    2.9950  -21.3910 C   0  0  0  0  0  0
    6.0340    3.0560  -23.9450 C   0  0  0  0  0  0
   -4.5380    3.8380  -25.9010 C   0  0  0  0  0  0
    2.2580    3.6550  -24.0090 C   0  0  0  0  0  0
    1.4500    4.7840  -23.7530 C   0  0  0  0  0  0
    3.2600    5.9760  -23.0980 C   0  0  0  0  0  0
    3.6580    3.8370  -23.6920 C   0  0  0  0  0  0
    1.7010    2.5240  -24.6380 C   0  0  0  0  0  0
   -0.4160    3.3700  -24.5700 C   0  0  0  0  0  0
    0.1240    4.6020  -24.0070 C   0  0  0  0  0  0
   -1.8660    3.3850  -24.9360 C   0  0  0  0  0  0
    4.2270    1.3420  -23.3140 C   0  0  0  0  0  0
    5.1470    1.0110  -22.1490 C   0  0  2  0  0  0
    6.7650    2.5110  -22.7230 C   0  0  2  0  0  0
    5.1350    2.0500  -21.0160 C   0  0  0  0  0  0
   -2.1790    3.5020  -26.3710 C   0  0  0  0  0  0
   -1.4770    2.8750  -21.9700 C   0  0  0  0  0  0
   -0.4550    2.5300  -21.4450 C   0  0  0  0  0  0
   -0.7060    5.6690  -23.7030 F   0  0  0  0  0  0
   -3.6700    3.2440  -20.4680 F   0  0  0  0  0  0
    1.9390    5.9530  -23.2550 N   0  0  0  0  0  0
    4.1440    4.9950  -23.2800 N   0  0  0  0  0  0
    0.3950    2.4430  -24.9500 N   0  0  0  0  0  0
    4.5630    2.7710  -23.8280 N   0  0  0  0  0  0
    6.5580    1.0430  -22.6230 N   0  0  1  0  0  0
   -3.6900    3.6620  -28.1430 O   0  0  0  0  0  0
   -5.9048    3.8003  -21.4995 H   0  0  0  0  0  0
   -6.3625    4.0497  -23.9022 H   0  0  0  0  0  0
    5.6961    3.9855  -21.5362 H   0  0  0  0  0  0
    6.9331    3.0202  -20.6169 H   0  0  0  0  0  0
    6.4288    2.5764  -24.8528 H   0  0  0  0  0  0
    6.1924    4.1424  -24.0126 H   0  0  0  0  0  0
   -5.5431    4.0256  -26.2611 H   0  0  0  0  0  0
    2.3305    1.6777  -24.8880 H   0  0  0  0  0  0
    3.1810    1.3107  -22.9751 H   0  0  0  0  0  0
    4.3854    0.6148  -24.1240 H   0  0  0  0  0  0
    4.9057    0.0146  -21.7502 H   0  0  0  0  0  0
    7.8372    2.7521  -22.7704 H   0  0  0  0  0  0
    4.1583    2.5555  -20.9958 H   0  0  0  0  0  0
    5.4214    1.5630  -20.0722 H   0  0  0  0  0  0
   -1.4040    3.4468  -27.1269 H   0  0  0  0  0  0
    0.4444    2.2259  -20.9828 H   0  0  0  0  0  0
    7.1933    0.5595  -21.8957 H   0  0  0  0  0  0
   -2.8435    3.5481  -28.5588 H   0  0  0  0  0  0
    3.4990    7.6350  -21.2360 N   0  0  1  0  0  0
    6.2120   10.0420  -21.3250 N   0  0  0  0  0  0
    7.5150    9.7930  -21.0480 N   0  0  0  0  0  0
    3.9940    8.9670  -20.7320 C   0  0  0  0  0  0
    5.5120    9.0670  -20.6880 C   0  0  0  0  0  0
    3.8350    7.3220  -22.6700 C   0  0  0  0  0  0
    5.7420   11.1590  -22.1520 C   0  0  0  0  0  0
    6.3290    8.2370  -20.0300 C   0  0  0  0  0  0
    7.6100    8.7340  -20.2860 C   0  0  0  0  0  0
    3.9290    6.8421  -20.6420 H   0  0  0  0  0  0
    3.5861    9.1519  -19.7273 H   0  0  0  0  0  0
    3.5930    9.7700  -21.3680 H   0  0  0  0  0  0
    4.9278    7.3110  -22.7951 H   0  0  0  0  0  0
    3.4361    8.1148  -23.3199 H   0  0  0  0  0  0
    4.6443   11.1310  -22.2170 H   0  0  0  0  0  0
    6.0569   12.1097  -21.6971 H   0  0  0  0  0  0
    6.1712   11.0760  -23.1614 H   0  0  0  0  0  0
    5.9180    7.4069  -19.4669 H   0  0  0  0  0  0
    8.5834    8.3839  -19.9619 H   0  0  0  0  0  0
  1  2  2  0  0  0
  1  3  1  0  0  0
  1 34  1  0  0  0
  2  6  1  0  0  0
  2 35  1  0  0  0
  3  5  2  0  0  0
  3 27  1  0  0  0
  4  5  1  0  0  0
  4  6  2  0  0  0
  4 18  1  0  0  0
  5 24  1  0  0  0
  6 10  1  0  0  0
  7 10  2  0  0  0
  7 23  1  0  0  0
  7 33  1  0  0  0
  8 21  1  0  0  0
  8 22  1  0  0  0
  8 36  1  0  0  0
  8 37  1  0  0  0
  9 21  1  0  0  0
  9 31  1  0  0  0
  9 38  1  0  0  0
  9 39  1  0  0  0
 10 40  1  0  0  0
 11 12  1  0  0  0
 11 14  2  0  0  0
 11 15  1  0  0  0
 12 17  1  0  0  0
 12 28  2  0  0  0
 13 28  1  0  0  0
 13 29  2  0  0  0
 13 57  1  0  0  0
 14 29  1  0  0  0
 14 31  1  0  0  0
 15 30  2  0  0  0
 15 41  1  0  0  0
 16 17  2  0  0  0
 16 18  1  0  0  0
 16 30  1  0  0  0
 17 26  1  0  0  0
 18 23  2  0  0  0
 19 20  1  0  0  0
 19 31  1  0  0  0
 19 42  1  0  0  0
 19 43  1  0  0  0
 20 22  1  0  0  0
 20 32  1  0  0  0
 20 44  1  0  0  0
 21 32  1  0  0  0
 21 45  1  0  0  0
 22 46  1  0  0  0
 22 47  1  0  0  0
 23 48  1  0  0  0
 24 25  3  0  0  0
 25 49  1  0  0  0
 32 50  1  0  0  0
 33 51  1  0  0  0
 52 55  1  0  0  0
 52 57  1  0  0  0
 52 61  1  0  0  0
 53 54  1  0  0  0
 53 56  1  0  0  0
 53 58  1  0  0  0
 54 60  2  0  0  0
 55 56  1  0  0  0
 55 62  1  0  0  0
 55 63  1  0  0  0
 56 59  2  0  0  0
 57 64  1  0  0  0
 57 65  1  0  0  0
 58 66  1  0  0  0
 58 67  1  0  0  0
 58 68  1  0  0  0
 59 60  1  0  0  0
 59 69  1  0  0  0
 60 70  1  0  0  0
M  END
> <s_m_entry_id>
567

> <s_m_entry_name>
000000409.1

> <s_m_Source_Path>
/Users/zaksoul/Documents/3r_UNI/2nd_SEMESTER/BSC/FRAG_RECON/RESULTS/2

> <s_m_Source_File>
000000409.mol2

> <i_m_Source_File_Index>
1

$$$$
No_0_431
                    3D
 Schrodinger Suite 2022-4.
 70 76  0  0  1  0            999 V2000
   -5.1710    3.6410  -21.8680 C   0  0  0  0  0  0
   -5.4400    3.8230  -23.2040 C   0  0  0  0  0  0
   -3.9330    3.3850  -21.5290 C   0  0  0  0  0  0
   -3.0470    3.4970  -23.6970 C   0  0  0  0  0  0
   -2.8830    3.2600  -22.2760 C   0  0  0  0  0  0
   -4.3950    3.7610  -24.2160 C   0  0  0  0  0  0
   -3.6450    3.7680  -26.4160 C   0  0  0  0  0  0
    6.0950    3.0310  -21.1720 C   0  0  0  0  0  0
    5.9500    3.1600  -23.7220 C   0  0  0  0  0  0
   -4.6490    3.8820  -25.5520 C   0  0  0  0  0  0
    2.1670    3.7200  -23.7330 C   0  0  0  0  0  0
    1.3510    4.8330  -23.4370 C   0  0  0  0  0  0
    3.1550    6.0260  -22.7690 C   0  0  0  0  0  0
    3.5690    3.9080  -23.4240 C   0  0  0  0  0  0
    1.6160    2.6010  -24.3860 C   0  0  0  0  0  0
   -0.5090    3.4220  -24.2750 C   0  0  0  0  0  0
    0.0240    4.6440  -23.6840 C   0  0  0  0  0  0
   -1.9630    3.4310  -24.6250 C   0  0  0  0  0  0
    4.1670    1.4100  -23.1200 C   0  0  0  0  0  0
    5.1030    1.0570  -21.9740 C   0  0  2  0  0  0
    6.6990    2.5900  -22.5230 C   0  0  2  0  0  0
    5.0910    2.0650  -20.8120 C   0  0  0  0  0  0
   -2.2910    3.5840  -26.0530 C   0  0  0  0  0  0
   -1.5390    2.8450  -21.6780 C   0  0  0  0  0  0
   -0.5080    2.4970  -21.1730 C   0  0  0  0  0  0
   -0.8140    5.6930  -23.3430 F   0  0  0  0  0  0
   -3.7200    3.1500  -20.1460 F   0  0  0  0  0  0
    1.8330    5.9930  -22.9130 N   0  0  0  0  0  0
    4.0470    5.0600  -22.9860 N   0  0  0  0  0  0
    0.3080    2.5140  -24.6880 N   0  0  0  0  0  0
    4.4830    2.8560  -23.5980 N   0  0  0  0  0  0
    6.5090    1.1170  -22.4600 N   0  0  1  0  0  0
   -3.8220    3.7760  -27.8060 O   0  0  0  0  0  0
   -5.9707    3.7102  -21.1395 H   0  0  0  0  0  0
   -6.4548    4.0197  -23.5302 H   0  0  0  0  0  0
    5.6268    4.0198  -21.2860 H   0  0  0  0  0  0
    6.8833    3.0431  -20.4049 H   0  0  0  0  0  0
    6.3405    2.7090  -24.6462 H   0  0  0  0  0  0
    6.0964    4.2495  -23.7614 H   0  0  0  0  0  0
   -5.6598    4.0687  -25.8963 H   0  0  0  0  0  0
    2.2517    1.7685  -24.6652 H   0  0  0  0  0  0
    3.1249    1.3585  -22.7716 H   0  0  0  0  0  0
    4.3254    0.7070  -23.9511 H   0  0  0  0  0  0
    4.8760    0.0479  -21.5996 H   0  0  0  0  0  0
    7.7683    2.8432  -22.5734 H   0  0  0  0  0  0
    4.1093    2.5594  -20.7686 H   0  0  0  0  0  0
    5.3926    1.5556  -19.8849 H   0  0  0  0  0  0
   -1.5232    3.5569  -26.8178 H   0  0  0  0  0  0
    0.3997    2.1901  -20.7291 H   0  0  0  0  0  0
    7.1565    0.6204  -21.7525 H   0  0  0  0  0  0
   -2.9786    3.6831  -28.2332 H   0  0  0  0  0  0
    3.7210    7.4800  -20.8080 N   0  0  1  0  0  0
    6.1540   10.1420  -21.2020 N   0  0  0  0  0  0
    7.5000    9.9950  -21.2700 N   0  0  0  0  0  0
    4.2280    8.7900  -20.2590 C   0  0  0  0  0  0
    5.7000    9.0360  -20.5560 C   0  0  0  0  0  0
    3.7200    7.3660  -22.3090 C   0  0  0  0  0  0
    5.4200   11.2920  -21.7400 C   0  0  0  0  0  0
    6.7090    8.2230  -20.2220 C   0  0  0  0  0  0
    7.8510    8.8720  -20.7000 C   0  0  0  0  0  0
    4.3368    6.6722  -20.4411 H   0  0  0  0  0  0
    4.0649    8.8180  -19.1715 H   0  0  0  0  0  0
    3.6290    9.6150  -20.6720 H   0  0  0  0  0  0
    4.7475    7.4791  -22.6852 H   0  0  0  0  0  0
    3.1204    8.1825  -22.7377 H   0  0  0  0  0  0
    4.3441   11.1610  -21.5520 H   0  0  0  0  0  0
    5.7678   12.2125  -21.2483 H   0  0  0  0  0  0
    5.5960   11.3670  -22.8232 H   0  0  0  0  0  0
    6.5069    7.2976  -19.6948 H   0  0  0  0  0  0
    8.8964    8.5879  -20.6610 H   0  0  0  0  0  0
  1  2  2  0  0  0
  1  3  1  0  0  0
  1 34  1  0  0  0
  2  6  1  0  0  0
  2 35  1  0  0  0
  3  5  2  0  0  0
  3 27  1  0  0  0
  4  5  1  0  0  0
  4  6  2  0  0  0
  4 18  1  0  0  0
  5 24  1  0  0  0
  6 10  1  0  0  0
  7 10  2  0  0  0
  7 23  1  0  0  0
  7 33  1  0  0  0
  8 21  1  0  0  0
  8 22  1  0  0  0
  8 36  1  0  0  0
  8 37  1  0  0  0
  9 21  1  0  0  0
  9 31  1  0  0  0
  9 38  1  0  0  0
  9 39  1  0  0  0
 10 40  1  0  0  0
 11 12  1  0  0  0
 11 14  2  0  0  0
 11 15  1  0  0  0
 12 17  1  0  0  0
 12 28  2  0  0  0
 13 28  1  0  0  0
 13 29  2  0  0  0
 13 57  1  0  0  0
 14 29  1  0  0  0
 14 31  1  0  0  0
 15 30  2  0  0  0
 15 41  1  0  0  0
 16 17  2  0  0  0
 16 18  1  0  0  0
 16 30  1  0  0  0
 17 26  1  0  0  0
 18 23  2  0  0  0
 19 20  1  0  0  0
 19 31  1  0  0  0
 19 42  1  0  0  0
 19 43  1  0  0  0
 20 22  1  0  0  0
 20 32  1  0  0  0
 20 44  1  0  0  0
 21 32  1  0  0  0
 21 45  1  0  0  0
 22 46  1  0  0  0
 22 47  1  0  0  0
 23 48  1  0  0  0
 24 25  3  0  0  0
 25 49  1  0  0  0
 32 50  1  0  0  0
 33 51  1  0  0  0
 52 55  1  0  0  0
 52 57  1  0  0  0
 52 61  1  0  0  0
 53 54  1  0  0  0
 53 56  1  0  0  0
 53 58  1  0  0  0
 54 60  2  0  0  0
 55 56  1  0  0  0
 55 62  1  0  0  0
 55 63  1  0  0  0
 56 59  2  0  0  0
 57 64  1  0  0  0
 57 65  1  0  0  0
 58 66  1  0  0  0
 58 67  1  0  0  0
 58 68  1  0  0  0
 59 60  1  0  0  0
 59 69  1  0  0  0
 60 70  1  0  0  0
M  END
> <s_m_entry_id>
568

> <s_m_entry_name>
000000410.1

> <s_m_Source_Path>
/Users/zaksoul/Documents/3r_UNI/2nd_SEMESTER/BSC/FRAG_RECON/RESULTS/2

> <s_m_Source_File>
000000410.mol2

> <i_m_Source_File_Index>
1

$$$$
No_0_432
                    3D
 Schrodinger Suite 2022-4.
 70 76  0  0  1  0            999 V2000
   -5.2250    3.6750  -21.9460 C   0  0  0  0  0  0
   -5.4850    3.8740  -23.2810 C   0  0  0  0  0  0
   -3.9890    3.4130  -21.6030 C   0  0  0  0  0  0
   -3.0890    3.5500  -23.7640 C   0  0  0  0  0  0
   -2.9350    3.2950  -22.3450 C   0  0  0  0  0  0
   -4.4340    3.8230  -24.2880 C   0  0  0  0  0  0
   -3.6710    3.8560  -26.4830 C   0  0  0  0  0  0
    6.0360    3.0400  -21.1890 C   0  0  0  0  0  0
    5.9070    3.2000  -23.7380 C   0  0  0  0  0  0
   -4.6800    3.9610  -25.6240 C   0  0  0  0  0  0
    2.1250    3.7660  -23.7650 C   0  0  0  0  0  0
    1.3080    4.8770  -23.4610 C   0  0  0  0  0  0
    3.1100    6.0590  -22.7660 C   0  0  0  0  0  0
    3.5250    3.9480  -23.4450 C   0  0  0  0  0  0
    1.5760    2.6560  -24.4350 C   0  0  0  0  0  0
   -0.5480    3.4790  -24.3270 C   0  0  0  0  0  0
   -0.0170    4.6920  -23.7170 C   0  0  0  0  0  0
   -1.9990    3.4940  -24.6860 C   0  0  0  0  0  0
    4.1180    1.4460  -23.1680 C   0  0  0  0  0  0
    5.0460    1.0770  -22.0210 C   0  0  2  0  0  0
    6.6480    2.6140  -22.5410 C   0  0  2  0  0  0
    5.0290    2.0710  -20.8470 C   0  0  0  0  0  0
   -2.3190    3.6650  -26.1140 C   0  0  0  0  0  0
   -1.5940    2.8720  -21.7440 C   0  0  0  0  0  0
   -0.5670    2.5150  -21.2370 C   0  0  0  0  0  0
   -0.8560    5.7390  -23.3690 F   0  0  0  0  0  0
   -3.7840    3.1600  -20.2210 F   0  0  0  0  0  0
    1.7890    6.0300  -22.9190 N   0  0  0  0  0  0
    4.0020    5.0940  -22.9900 N   0  0  0  0  0  0
    0.2700    2.5750  -24.7460 N   0  0  0  0  0  0
    4.4390    2.8970  -23.6260 N   0  0  0  0  0  0
    6.4550    1.1410  -22.4980 N   0  0  1  0  0  0
   -3.8380    3.8810  -27.8740 O   0  0  0  0  0  0
   -6.0294    3.7363  -21.2219 H   0  0  0  0  0  0
   -6.4976    4.0757  -23.6112 H   0  0  0  0  0  0
    5.5706    4.0313  -21.2930 H   0  0  0  0  0  0
    6.8193    3.0410  -20.4168 H   0  0  0  0  0  0
    6.3026    2.7600  -24.6653 H   0  0  0  0  0  0
    6.0553    4.2897  -23.7622 H   0  0  0  0  0  0
   -5.6884    4.1528  -25.9725 H   0  0  0  0  0  0
    2.2122    1.8262  -24.7210 H   0  0  0  0  0  0
    3.0736    1.3915  -22.8269 H   0  0  0  0  0  0
    4.2803    0.7533  -24.0069 H   0  0  0  0  0  0
    4.8158    0.0635  -21.6606 H   0  0  0  0  0  0
    7.7176    2.8673  -22.5824 H   0  0  0  0  0  0
    4.0473    2.5654  -20.8036 H   0  0  0  0  0  0
    5.3237    1.5492  -19.9246 H   0  0  0  0  0  0
   -1.5471    3.6469  -26.8749 H   0  0  0  0  0  0
    0.3374    2.2019  -20.7908 H   0  0  0  0  0  0
    7.0975    0.6353  -21.7924 H   0  0  0  0  0  0
   -2.9920    3.7918  -28.2970 H   0  0  0  0  0  0
    4.0050    7.3560  -20.8190 N   0  0  1  0  0  0
    6.1060   10.2530  -21.4170 N   0  0  0  0  0  0
    7.4090   10.2360  -21.7910 N   0  0  0  0  0  0
    4.5350    8.6450  -20.2440 C   0  0  0  0  0  0
    5.8840    9.0520  -20.8210 C   0  0  0  0  0  0
    3.6740    7.3920  -22.2870 C   0  0  0  0  0  0
    5.1950   11.3800  -21.6450 C   0  0  0  0  0  0
    6.9930    8.3050  -20.8110 C   0  0  0  0  0  0
    7.9530    9.0980  -21.4450 C   0  0  0  0  0  0
    4.7399    6.5751  -20.6910 H   0  0  0  0  0  0
    4.6190    8.5510  -19.1512 H   0  0  0  0  0  0
    3.8059    9.4501  -20.4180 H   0  0  0  0  0  0
    4.5807    7.6339  -22.8608 H   0  0  0  0  0  0
    2.9405    8.1895  -22.4769 H   0  0  0  0  0  0
    4.2002   11.1341  -21.2451 H   0  0  0  0  0  0
    5.5829   12.2748  -21.1361 H   0  0  0  0  0  0
    5.1180   11.5771  -22.7245 H   0  0  0  0  0  0
    6.9770    7.3175  -20.3642 H   0  0  0  0  0  0
    8.9966    8.9069  -21.6671 H   0  0  0  0  0  0
  1  2  2  0  0  0
  1  3  1  0  0  0
  1 34  1  0  0  0
  2  6  1  0  0  0
  2 35  1  0  0  0
  3  5  2  0  0  0
  3 27  1  0  0  0
  4  5  1  0  0  0
  4  6  2  0  0  0
  4 18  1  0  0  0
  5 24  1  0  0  0
  6 10  1  0  0  0
  7 10  2  0  0  0
  7 23  1  0  0  0
  7 33  1  0  0  0
  8 21  1  0  0  0
  8 22  1  0  0  0
  8 36  1  0  0  0
  8 37  1  0  0  0
  9 21  1  0  0  0
  9 31  1  0  0  0
  9 38  1  0  0  0
  9 39  1  0  0  0
 10 40  1  0  0  0
 11 12  1  0  0  0
 11 14  2  0  0  0
 11 15  1  0  0  0
 12 17  1  0  0  0
 12 28  2  0  0  0
 13 28  1  0  0  0
 13 29  2  0  0  0
 13 57  1  0  0  0
 14 29  1  0  0  0
 14 31  1  0  0  0
 15 30  2  0  0  0
 15 41  1  0  0  0
 16 17  2  0  0  0
 16 18  1  0  0  0
 16 30  1  0  0  0
 17 26  1  0  0  0
 18 23  2  0  0  0
 19 20  1  0  0  0
 19 31  1  0  0  0
 19 42  1  0  0  0
 19 43  1  0  0  0
 20 22  1  0  0  0
 20 32  1  0  0  0
 20 44  1  0  0  0
 21 32  1  0  0  0
 21 45  1  0  0  0
 22 46  1  0  0  0
 22 47  1  0  0  0
 23 48  1  0  0  0
 24 25  3  0  0  0
 25 49  1  0  0  0
 32 50  1  0  0  0
 33 51  1  0  0  0
 52 55  1  0  0  0
 52 57  1  0  0  0
 52 61  1  0  0  0
 53 54  1  0  0  0
 53 56  1  0  0  0
 53 58  1  0  0  0
 54 60  2  0  0  0
 55 56  1  0  0  0
 55 62  1  0  0  0
 55 63  1  0  0  0
 56 59  2  0  0  0
 57 64  1  0  0  0
 57 65  1  0  0  0
 58 66  1  0  0  0
 58 67  1  0  0  0
 58 68  1  0  0  0
 59 60  1  0  0  0
 59 69  1  0  0  0
 60 70  1  0  0  0
M  END
> <s_m_entry_id>
569

> <s_m_entry_name>
000000411.1

> <s_m_Source_Path>
/Users/zaksoul/Documents/3r_UNI/2nd_SEMESTER/BSC/FRAG_RECON/RESULTS/2

> <s_m_Source_File>
000000411.mol2

> <i_m_Source_File_Index>
1

$$$$
No_0_433
                    3D
 Schrodinger Suite 2022-4.
 70 76  0  0  1  0            999 V2000
   -5.1810    3.6090  -21.8530 C   0  0  0  0  0  0
   -5.4520    3.8050  -23.1860 C   0  0  0  0  0  0
   -3.9420    3.3510  -21.5190 C   0  0  0  0  0  0
   -3.0590    3.4860  -23.6870 C   0  0  0  0  0  0
   -2.8930    3.2340  -22.2690 C   0  0  0  0  0  0
   -4.4090    3.7540  -24.2010 C   0  0  0  0  0  0
   -3.6630    3.7850  -26.4030 C   0  0  0  0  0  0
    6.0870    3.0010  -21.1820 C   0  0  0  0  0  0
    5.9380    3.1560  -23.7310 C   0  0  0  0  0  0
   -4.6650    3.8890  -25.5350 C   0  0  0  0  0  0
    2.1540    3.7130  -23.7290 C   0  0  0  0  0  0
    1.3370    4.8230  -23.4210 C   0  0  0  0  0  0
    3.1410    6.0110  -22.7430 C   0  0  0  0  0  0
    3.5570    3.8990  -23.4210 C   0  0  0  0  0  0
    1.6030    2.6010  -24.3930 C   0  0  0  0  0  0
   -0.5220    3.4190  -24.2700 C   0  0  0  0  0  0
    0.0100    4.6350  -23.6670 C   0  0  0  0  0  0
   -1.9770    3.4300  -24.6180 C   0  0  0  0  0  0
    4.1570    1.3990  -23.1440 C   0  0  0  0  0  0
    5.0950    1.0350  -22.0030 C   0  0  2  0  0  0
    6.6890    2.5740  -22.5390 C   0  0  2  0  0  0
    5.0840    2.0310  -20.8310 C   0  0  0  0  0  0
   -2.3080    3.5970  -26.0440 C   0  0  0  0  0  0
   -1.5470    2.8150  -21.6780 C   0  0  0  0  0  0
   -0.5150    2.4620  -21.1780 C   0  0  0  0  0  0
   -0.8280    5.6800  -23.3140 F   0  0  0  0  0  0
   -3.7260    3.1020  -20.1390 F   0  0  0  0  0  0
    1.8200    5.9780  -22.8860 N   0  0  0  0  0  0
    4.0350    5.0470  -22.9720 N   0  0  0  0  0  0
    0.2950    2.5160  -24.6930 N   0  0  0  0  0  0
    4.4710    2.8500  -23.6070 N   0  0  0  0  0  0
    6.5000    1.1010  -22.4910 N   0  0  1  0  0  0
   -3.8410    3.8060  -27.7920 O   0  0  0  0  0  0
   -5.9796    3.6712  -21.1226 H   0  0  0  0  0  0
   -6.4675    4.0037  -23.5091 H   0  0  0  0  0  0
    5.6179    3.9906  -21.2849 H   0  0  0  0  0  0
    6.8763    3.0060  -20.4159 H   0  0  0  0  0  0
    6.3275    2.7150  -24.6604 H   0  0  0  0  0  0
    6.0833    4.2460  -23.7593 H   0  0  0  0  0  0
   -5.6765    4.0776  -25.8762 H   0  0  0  0  0  0
    2.2385    1.7718  -24.6821 H   0  0  0  0  0  0
    3.1157    1.3435  -22.7939 H   0  0  0  0  0  0
    4.3144    0.7047  -23.9826 H   0  0  0  0  0  0
    4.8700    0.0218  -21.6387 H   0  0  0  0  0  0
    7.7578    2.8293  -22.5885 H   0  0  0  0  0  0
    4.1018    2.5236  -20.7805 H   0  0  0  0  0  0
    5.3877    1.5123  -19.9097 H   0  0  0  0  0  0
   -1.5411    3.5789  -26.8099 H   0  0  0  0  0  0
    0.3934    2.1519  -20.7378 H   0  0  0  0  0  0
    7.1492    0.5983  -21.7894 H   0  0  0  0  0  0
   -2.9984    3.7179  -28.2217 H   0  0  0  0  0  0
    4.4420    7.2040  -20.9660 N   0  0  1  0  0  0
    6.0410   10.3680  -21.7420 N   0  0  0  0  0  0
    7.1800   10.5370  -22.4560 N   0  0  0  0  0  0
    5.0050    8.4830  -20.3990 C   0  0  0  0  0  0
    6.0960    9.0960  -21.2650 C   0  0  0  0  0  0
    3.7060    7.3460  -22.2710 C   0  0  0  0  0  0
    5.0130   11.3990  -21.5690 C   0  0  0  0  0  0
    7.2200    8.4840  -21.6510 C   0  0  0  0  0  0
    7.8920    9.4400  -22.4180 C   0  0  0  0  0  0
    5.2452    6.5038  -21.1420 H   0  0  0  0  0  0
    5.4028    8.2921  -19.3914 H   0  0  0  0  0  0
    4.1921    9.2119  -20.2650 H   0  0  0  0  0  0
    4.3898    7.7449  -23.0348 H   0  0  0  0  0  0
    2.8858    8.0692  -22.1520 H   0  0  0  0  0  0
    4.1960   11.0030  -20.9480 H   0  0  0  0  0  0
    5.4538   12.2787  -21.0772 H   0  0  0  0  0  0
    4.6162   11.6909  -22.5525 H   0  0  0  0  0  0
    7.4129    7.4618  -21.3462 H   0  0  0  0  0  0
    8.8424    9.3920  -22.9372 H   0  0  0  0  0  0
  1  2  2  0  0  0
  1  3  1  0  0  0
  1 34  1  0  0  0
  2  6  1  0  0  0
  2 35  1  0  0  0
  3  5  2  0  0  0
  3 27  1  0  0  0
  4  5  1  0  0  0
  4  6  2  0  0  0
  4 18  1  0  0  0
  5 24  1  0  0  0
  6 10  1  0  0  0
  7 10  2  0  0  0
  7 23  1  0  0  0
  7 33  1  0  0  0
  8 21  1  0  0  0
  8 22  1  0  0  0
  8 36  1  0  0  0
  8 37  1  0  0  0
  9 21  1  0  0  0
  9 31  1  0  0  0
  9 38  1  0  0  0
  9 39  1  0  0  0
 10 40  1  0  0  0
 11 12  1  0  0  0
 11 14  2  0  0  0
 11 15  1  0  0  0
 12 17  1  0  0  0
 12 28  2  0  0  0
 13 28  1  0  0  0
 13 29  2  0  0  0
 13 57  1  0  0  0
 14 29  1  0  0  0
 14 31  1  0  0  0
 15 30  2  0  0  0
 15 41  1  0  0  0
 16 17  2  0  0  0
 16 18  1  0  0  0
 16 30  1  0  0  0
 17 26  1  0  0  0
 18 23  2  0  0  0
 19 20  1  0  0  0
 19 31  1  0  0  0
 19 42  1  0  0  0
 19 43  1  0  0  0
 20 22  1  0  0  0
 20 32  1  0  0  0
 20 44  1  0  0  0
 21 32  1  0  0  0
 21 45  1  0  0  0
 22 46  1  0  0  0
 22 47  1  0  0  0
 23 48  1  0  0  0
 24 25  3  0  0  0
 25 49  1  0  0  0
 32 50  1  0  0  0
 33 51  1  0  0  0
 52 55  1  0  0  0
 52 57  1  0  0  0
 52 61  1  0  0  0
 53 54  1  0  0  0
 53 56  1  0  0  0
 53 58  1  0  0  0
 54 60  2  0  0  0
 55 56  1  0  0  0
 55 62  1  0  0  0
 55 63  1  0  0  0
 56 59  2  0  0  0
 57 64  1  0  0  0
 57 65  1  0  0  0
 58 66  1  0  0  0
 58 67  1  0  0  0
 58 68  1  0  0  0
 59 60  1  0  0  0
 59 69  1  0  0  0
 60 70  1  0  0  0
M  END
> <s_m_entry_id>
570

> <s_m_entry_name>
000000412.1

> <s_m_Source_Path>
/Users/zaksoul/Documents/3r_UNI/2nd_SEMESTER/BSC/FRAG_RECON/RESULTS/2

> <s_m_Source_File>
000000412.mol2

> <i_m_Source_File_Index>
1

$$$$
No_0_434
                    3D
 Schrodinger Suite 2022-4.
 71 77  0  0  1  0            999 V2000
   -5.1550    3.6070  -22.0410 C   0  0  0  0  0  0
   -5.4280    3.8000  -23.3750 C   0  0  0  0  0  0
   -3.9160    3.3530  -21.7070 C   0  0  0  0  0  0
   -3.0350    3.4840  -23.8760 C   0  0  0  0  0  0
   -2.8670    3.2360  -22.4570 C   0  0  0  0  0  0
   -4.3840    3.7490  -24.3900 C   0  0  0  0  0  0
   -3.6400    3.7760  -26.5920 C   0  0  0  0  0  0
    6.1140    3.0220  -21.3740 C   0  0  0  0  0  0
    5.9630    3.1720  -23.9230 C   0  0  0  0  0  0
   -4.6420    3.8800  -25.7240 C   0  0  0  0  0  0
    2.1790    3.7220  -23.9210 C   0  0  0  0  0  0
    1.3600    4.8300  -23.6150 C   0  0  0  0  0  0
    3.1620    6.0230  -22.9400 C   0  0  0  0  0  0
    3.5810    3.9110  -23.6140 C   0  0  0  0  0  0
    1.6290    2.6070  -24.5820 C   0  0  0  0  0  0
   -0.4980    3.4210  -24.4600 C   0  0  0  0  0  0
    0.0330    4.6390  -23.8600 C   0  0  0  0  0  0
   -1.9520    3.4290  -24.8070 C   0  0  0  0  0  0
    4.1860    1.4120  -23.3310 C   0  0  0  0  0  0
    5.1250    1.0530  -22.1900 C   0  0  2  0  0  0
    6.7160    2.5940  -22.7300 C   0  0  2  0  0  0
    5.1130    2.0510  -21.0200 C   0  0  0  0  0  0
   -2.2840    3.5920  -26.2330 C   0  0  0  0  0  0
   -1.5200    2.8200  -21.8660 C   0  0  0  0  0  0
   -0.4880    2.4710  -21.3660 C   0  0  0  0  0  0
   -0.8070    5.6840  -23.5080 F   0  0  0  0  0  0
   -3.6990    3.1060  -20.3260 F   0  0  0  0  0  0
    1.8400    5.9870  -23.0820 N   0  0  0  0  0  0
    4.0570    5.0600  -23.1670 N   0  0  0  0  0  0
    0.3210    2.5190  -24.8820 N   0  0  0  0  0  0
    4.4970    2.8630  -23.7980 N   0  0  0  0  0  0
    6.5300    1.1200  -22.6790 N   0  0  1  0  0  0
   -3.8190    3.7950  -27.9810 O   0  0  0  0  0  0
   -5.9536    3.6692  -21.3106 H   0  0  0  0  0  0
   -6.4441    3.9968  -23.6973 H   0  0  0  0  0  0
    5.6430    4.0105  -21.4789 H   0  0  0  0  0  0
    6.9038    3.0301  -20.6084 H   0  0  0  0  0  0
    6.3527    2.7298  -24.8518 H   0  0  0  0  0  0
    6.1063    4.2622  -23.9533 H   0  0  0  0  0  0
   -5.6538    4.0667  -26.0653 H   0  0  0  0  0  0
    2.2660    1.7785  -24.8699 H   0  0  0  0  0  0
    3.1448    1.3554  -22.9806 H   0  0  0  0  0  0
    4.3444    0.7167  -24.1686 H   0  0  0  0  0  0
    4.9020    0.0400  -21.8238 H   0  0  0  0  0  0
    7.7845    2.8503  -22.7815 H   0  0  0  0  0  0
    4.1297    2.5416  -20.9705 H   0  0  0  0  0  0
    5.4177    1.5344  -20.0979 H   0  0  0  0  0  0
   -1.5181    3.5749  -26.9999 H   0  0  0  0  0  0
    0.4214    2.1632  -20.9263 H   0  0  0  0  0  0
    7.1808    0.6201  -21.9768 H   0  0  0  0  0  0
   -2.9763    3.7079  -28.4108 H   0  0  0  0  0  0
    4.3960    7.2260  -21.1290 N   0  3  0  0  0  0
    7.1120    8.4910  -22.0780 N   0  0  0  0  0  0
    8.7120    8.6400  -20.6000 N   0  0  0  0  0  0
    5.0230    8.4900  -20.5940 C   0  0  0  0  0  0
    7.5170    8.6280  -19.9630 C   0  0  0  0  0  0
    3.7240    7.3610  -22.4710 C   0  0  0  0  0  0
   10.0380    8.7360  -19.9820 C   0  0  0  0  0  0
    8.4200    8.5520  -21.9170 C   0  0  0  0  0  0
    6.5200    8.5380  -20.8430 C   0  0  0  0  0  0
    3.7325    6.8727  -20.4575 H   0  0  0  0  0  0
    5.0963    6.5027  -21.1780 H   0  0  0  0  0  0
    4.8291    8.5649  -19.5138 H   0  0  0  0  0  0
    4.5453    9.3625  -21.0637 H   0  0  0  0  0  0
    7.4780    8.6880  -18.8814 H   0  0  0  0  0  0
    4.4510    7.7310  -23.2090 H   0  0  0  0  0  0
    2.9088    8.0962  -22.4000 H   0  0  0  0  0  0
   10.8097    8.7210  -20.7657 H   0  0  0  0  0  0
   10.1120    9.6758  -19.4151 H   0  0  0  0  0  0
   10.1890    7.8848  -19.3018 H   0  0  0  0  0  0
    9.0747    8.5260  -22.7806 H   0  0  0  0  0  0
  1  2  2  0  0  0
  1  3  1  0  0  0
  1 34  1  0  0  0
  2  6  1  0  0  0
  2 35  1  0  0  0
  3  5  2  0  0  0
  3 27  1  0  0  0
  4  5  1  0  0  0
  4  6  2  0  0  0
  4 18  1  0  0  0
  5 24  1  0  0  0
  6 10  1  0  0  0
  7 10  2  0  0  0
  7 23  1  0  0  0
  7 33  1  0  0  0
  8 21  1  0  0  0
  8 22  1  0  0  0
  8 36  1  0  0  0
  8 37  1  0  0  0
  9 21  1  0  0  0
  9 31  1  0  0  0
  9 38  1  0  0  0
  9 39  1  0  0  0
 10 40  1  0  0  0
 11 12  1  0  0  0
 11 14  2  0  0  0
 11 15  1  0  0  0
 12 17  1  0  0  0
 12 28  2  0  0  0
 13 28  1  0  0  0
 13 29  2  0  0  0
 13 57  1  0  0  0
 14 29  1  0  0  0
 14 31  1  0  0  0
 15 30  2  0  0  0
 15 41  1  0  0  0
 16 17  2  0  0  0
 16 18  1  0  0  0
 16 30  1  0  0  0
 17 26  1  0  0  0
 18 23  2  0  0  0
 19 20  1  0  0  0
 19 31  1  0  0  0
 19 42  1  0  0  0
 19 43  1  0  0  0
 20 22  1  0  0  0
 20 32  1  0  0  0
 20 44  1  0  0  0
 21 32  1  0  0  0
 21 45  1  0  0  0
 22 46  1  0  0  0
 22 47  1  0  0  0
 23 48  1  0  0  0
 24 25  3  0  0  0
 25 49  1  0  0  0
 32 50  1  0  0  0
 33 51  1  0  0  0
 52 55  1  0  0  0
 52 57  1  0  0  0
 52 61  1  0  0  0
 52 62  1  0  0  0
 53 59  2  0  0  0
 53 60  1  0  0  0
 54 56  1  0  0  0
 54 58  1  0  0  0
 54 59  1  0  0  0
 55 60  1  0  0  0
 55 63  1  0  0  0
 55 64  1  0  0  0
 56 60  2  0  0  0
 56 65  1  0  0  0
 57 66  1  0  0  0
 57 67  1  0  0  0
 58 68  1  0  0  0
 58 69  1  0  0  0
 58 70  1  0  0  0
 59 71  1  0  0  0
M  CHG  1  52   1
M  END
> <s_m_entry_id>
571

> <s_m_entry_name>
000000413.1

> <s_m_Source_Path>
/Users/zaksoul/Documents/3r_UNI/2nd_SEMESTER/BSC/FRAG_RECON/RESULTS/2

> <s_m_Source_File>
000000413.mol2

> <i_m_Source_File_Index>
1

$$$$
No_0_435
                    3D
 Schrodinger Suite 2022-4.
 71 77  0  0  1  0            999 V2000
   -4.8970    3.5780  -22.0960 C   0  0  0  0  0  0
   -5.1680    3.7740  -23.4300 C   0  0  0  0  0  0
   -3.6590    3.3200  -21.7610 C   0  0  0  0  0  0
   -2.7750    3.4530  -23.9290 C   0  0  0  0  0  0
   -2.6100    3.2020  -22.5110 C   0  0  0  0  0  0
   -4.1230    3.7220  -24.4440 C   0  0  0  0  0  0
   -3.3760    3.7510  -26.6450 C   0  0  0  0  0  0
    6.3700    2.9640  -21.4180 C   0  0  0  0  0  0
    6.2220    3.1180  -23.9670 C   0  0  0  0  0  0
   -4.3790    3.8560  -25.7780 C   0  0  0  0  0  0
    2.4390    3.6770  -23.9680 C   0  0  0  0  0  0
    1.6230    4.7870  -23.6610 C   0  0  0  0  0  0
    3.4270    5.9740  -22.9820 C   0  0  0  0  0  0
    3.8410    3.8630  -23.6590 C   0  0  0  0  0  0
    1.8870    2.5650  -24.6320 C   0  0  0  0  0  0
   -0.2370    3.3840  -24.5100 C   0  0  0  0  0  0
    0.2960    4.6000  -23.9080 C   0  0  0  0  0  0
   -1.6910    3.3960  -24.8590 C   0  0  0  0  0  0
    4.4400    1.3620  -23.3800 C   0  0  0  0  0  0
    5.3770    0.9980  -22.2390 C   0  0  2  0  0  0
    6.9730    2.5360  -22.7740 C   0  0  2  0  0  0
    5.3660    1.9940  -21.0670 C   0  0  0  0  0  0
   -2.0220    3.5630  -26.2850 C   0  0  0  0  0  0
   -1.2640    2.7820  -21.9190 C   0  0  0  0  0  0
   -0.2330    2.4280  -21.4180 C   0  0  0  0  0  0
   -0.5420    5.6460  -23.5550 F   0  0  0  0  0  0
   -3.4440    3.0700  -20.3810 F   0  0  0  0  0  0
    2.1050    5.9420  -23.1260 N   0  0  0  0  0  0
    4.3200    5.0100  -23.2100 N   0  0  0  0  0  0
    0.5790    2.4810  -24.9330 N   0  0  0  0  0  0
    4.7560    2.8130  -23.8440 N   0  0  0  0  0  0
    6.7820    1.0630  -22.7260 N   0  0  1  0  0  0
   -3.5540    3.7730  -28.0340 O   0  0  0  0  0  0
   -5.6961    3.6402  -21.3662 H   0  0  0  0  0  0
   -6.1832    3.9738  -23.7533 H   0  0  0  0  0  0
    5.9018    3.9539  -21.5219 H   0  0  0  0  0  0
    7.1593    2.9680  -20.6519 H   0  0  0  0  0  0
    6.6117    2.6758  -24.8958 H   0  0  0  0  0  0
    6.3683    4.2079  -23.9953 H   0  0  0  0  0  0
   -5.3899    4.0457  -26.1203 H   0  0  0  0  0  0
    2.5222    1.7351  -24.9200 H   0  0  0  0  0  0
    3.3984    1.3065  -23.0308 H   0  0  0  0  0  0
    4.5973    0.6671  -24.2181 H   0  0  0  0  0  0
    5.1510   -0.0150  -21.8748 H   0  0  0  0  0  0
    8.0420    2.7904  -22.8235 H   0  0  0  0  0  0
    4.3843    2.4879  -21.0175 H   0  0  0  0  0  0
    5.6688    1.4752  -20.1455 H   0  0  0  0  0  0
   -1.2551    3.5449  -27.0509 H   0  0  0  0  0  0
    0.6754    2.1179  -20.9778 H   0  0  0  0  0  0
    7.4309    0.5595  -22.0247 H   0  0  0  0  0  0
   -2.7112    3.6840  -28.4633 H   0  0  0  0  0  0
    4.8480    7.1340  -21.2820 N   0  3  0  0  0  0
    7.3520    8.5840  -22.5070 N   0  0  0  0  0  0
    9.1330    8.7290  -21.2510 N   0  0  0  0  0  0
    5.4880    8.3950  -20.7570 C   0  0  0  0  0  0
    8.0370    8.6210  -20.4610 C   0  0  0  0  0  0
    3.9930    7.3100  -22.5100 C   0  0  0  0  0  0
   10.5260    8.8560  -20.8130 C   0  0  0  0  0  0
    8.6660    8.7000  -22.5200 C   0  0  0  0  0  0
    6.9340    8.5320  -21.2030 C   0  0  0  0  0  0
    4.2979    6.7109  -20.5509 H   0  0  0  0  0  0
    5.5641    6.4499  -21.4700 H   0  0  0  0  0  0
    5.4420    8.3990  -19.6580 H   0  0  0  0  0  0
    4.9150    9.2679  -21.1030 H   0  0  0  0  0  0
    8.1451    8.6180  -19.3824 H   0  0  0  0  0  0
    4.5953    7.7573  -23.3145 H   0  0  0  0  0  0
    3.1650    7.9980  -22.2840 H   0  0  0  0  0  0
   11.1833    8.9230  -21.6924 H   0  0  0  0  0  0
   10.6370    9.7640  -20.2020 H   0  0  0  0  0  0
   10.8039    7.9762  -20.2141 H   0  0  0  0  0  0
    9.1960    8.7560  -23.4640 H   0  0  0  0  0  0
  1  2  2  0  0  0
  1  3  1  0  0  0
  1 34  1  0  0  0
  2  6  1  0  0  0
  2 35  1  0  0  0
  3  5  2  0  0  0
  3 27  1  0  0  0
  4  5  1  0  0  0
  4  6  2  0  0  0
  4 18  1  0  0  0
  5 24  1  0  0  0
  6 10  1  0  0  0
  7 10  2  0  0  0
  7 23  1  0  0  0
  7 33  1  0  0  0
  8 21  1  0  0  0
  8 22  1  0  0  0
  8 36  1  0  0  0
  8 37  1  0  0  0
  9 21  1  0  0  0
  9 31  1  0  0  0
  9 38  1  0  0  0
  9 39  1  0  0  0
 10 40  1  0  0  0
 11 12  1  0  0  0
 11 14  2  0  0  0
 11 15  1  0  0  0
 12 17  1  0  0  0
 12 28  2  0  0  0
 13 28  1  0  0  0
 13 29  2  0  0  0
 13 57  1  0  0  0
 14 29  1  0  0  0
 14 31  1  0  0  0
 15 30  2  0  0  0
 15 41  1  0  0  0
 16 17  2  0  0  0
 16 18  1  0  0  0
 16 30  1  0  0  0
 17 26  1  0  0  0
 18 23  2  0  0  0
 19 20  1  0  0  0
 19 31  1  0  0  0
 19 42  1  0  0  0
 19 43  1  0  0  0
 20 22  1  0  0  0
 20 32  1  0  0  0
 20 44  1  0  0  0
 21 32  1  0  0  0
 21 45  1  0  0  0
 22 46  1  0  0  0
 22 47  1  0  0  0
 23 48  1  0  0  0
 24 25  3  0  0  0
 25 49  1  0  0  0
 32 50  1  0  0  0
 33 51  1  0  0  0
 52 55  1  0  0  0
 52 57  1  0  0  0
 52 61  1  0  0  0
 52 62  1  0  0  0
 53 59  2  0  0  0
 53 60  1  0  0  0
 54 56  1  0  0  0
 54 58  1  0  0  0
 54 59  1  0  0  0
 55 60  1  0  0  0
 55 63  1  0  0  0
 55 64  1  0  0  0
 56 60  2  0  0  0
 56 65  1  0  0  0
 57 66  1  0  0  0
 57 67  1  0  0  0
 58 68  1  0  0  0
 58 69  1  0  0  0
 58 70  1  0  0  0
 59 71  1  0  0  0
M  CHG  1  52   1
M  END
> <s_m_entry_id>
572

> <s_m_entry_name>
000000414.1

> <s_m_Source_Path>
/Users/zaksoul/Documents/3r_UNI/2nd_SEMESTER/BSC/FRAG_RECON/RESULTS/2

> <s_m_Source_File>
000000414.mol2

> <i_m_Source_File_Index>
1

$$$$
No_0_436
                    3D
 Schrodinger Suite 2022-4.
 71 77  0  0  1  0            999 V2000
   -5.4490    3.4210  -21.9030 C   0  0  0  0  0  0
   -5.7190    3.6160  -23.2370 C   0  0  0  0  0  0
   -4.2100    3.1620  -21.5670 C   0  0  0  0  0  0
   -3.3260    3.2940  -23.7360 C   0  0  0  0  0  0
   -3.1610    3.0430  -22.3170 C   0  0  0  0  0  0
   -4.6750    3.5630  -24.2510 C   0  0  0  0  0  0
   -3.9270    3.5920  -26.4520 C   0  0  0  0  0  0
    5.8180    2.8040  -21.2230 C   0  0  0  0  0  0
    5.6710    2.9570  -23.7710 C   0  0  0  0  0  0
   -4.9300    3.6970  -25.5850 C   0  0  0  0  0  0
    1.8880    3.5180  -23.7730 C   0  0  0  0  0  0
    1.0720    4.6280  -23.4670 C   0  0  0  0  0  0
    2.8760    5.8150  -22.7880 C   0  0  0  0  0  0
    3.2900    3.7030  -23.4640 C   0  0  0  0  0  0
    1.3360    2.4050  -24.4370 C   0  0  0  0  0  0
   -0.7890    3.2250  -24.3160 C   0  0  0  0  0  0
   -0.2560    4.4410  -23.7140 C   0  0  0  0  0  0
   -2.2430    3.2370  -24.6650 C   0  0  0  0  0  0
    3.8880    1.2020  -23.1840 C   0  0  0  0  0  0
    4.8250    0.8380  -22.0420 C   0  0  2  0  0  0
    6.4210    2.3760  -22.5780 C   0  0  2  0  0  0
    4.8140    1.8350  -20.8710 C   0  0  0  0  0  0
   -2.5730    3.4030  -26.0910 C   0  0  0  0  0  0
   -1.8160    2.6230  -21.7240 C   0  0  0  0  0  0
   -0.7850    2.2700  -21.2240 C   0  0  0  0  0  0
   -1.0930    5.4870  -23.3620 F   0  0  0  0  0  0
   -3.9960    2.9130  -20.1870 F   0  0  0  0  0  0
    1.5540    5.7830  -22.9320 N   0  0  0  0  0  0
    3.7690    4.8500  -23.0150 N   0  0  0  0  0  0
    0.0280    2.3210  -24.7380 N   0  0  0  0  0  0
    4.2040    2.6520  -23.6490 N   0  0  0  0  0  0
    6.2300    0.9030  -22.5300 N   0  0  1  0  0  0
   -4.1050    3.6130  -27.8410 O   0  0  0  0  0  0
   -6.2481    3.4832  -21.1732 H   0  0  0  0  0  0
   -6.7343    3.8149  -23.5604 H   0  0  0  0  0  0
    5.3498    3.7939  -21.3269 H   0  0  0  0  0  0
    6.6063    2.8090  -20.4559 H   0  0  0  0  0  0
    6.0607    2.5148  -24.6998 H   0  0  0  0  0  0
    5.8173    4.0468  -23.8003 H   0  0  0  0  0  0
   -5.9409    3.8867  -25.9273 H   0  0  0  0  0  0
    1.9712    1.5751  -24.7250 H   0  0  0  0  0  0
    2.8460    1.1475  -22.8357 H   0  0  0  0  0  0
    4.0453    0.5071  -24.0221 H   0  0  0  0  0  0
    4.5988   -0.1749  -21.6774 H   0  0  0  0  0  0
    7.4903    2.6294  -22.6275 H   0  0  0  0  0  0
    3.8321    2.3285  -20.8226 H   0  0  0  0  0  0
    5.1159    1.3161  -19.9493 H   0  0  0  0  0  0
   -1.8056    3.3839  -26.8564 H   0  0  0  0  0  0
    0.1228    1.9591  -20.7831 H   0  0  0  0  0  0
    6.8785    0.3998  -21.8281 H   0  0  0  0  0  0
   -3.2618    3.5239  -28.2695 H   0  0  0  0  0  0
    4.4650    6.9530  -21.2280 N   0  3  0  0  0  0
    6.7090    8.5960  -22.6910 N   0  0  0  0  0  0
    8.6380    8.7650  -21.6810 N   0  0  0  0  0  0
    5.1160    8.2150  -20.7200 C   0  0  0  0  0  0
    7.6680    8.5580  -20.7580 C   0  0  0  0  0  0
    3.4420    7.1500  -22.3160 C   0  0  0  0  0  0
   10.0720    8.9410  -21.4290 C   0  0  0  0  0  0
    8.0030    8.7810  -22.8750 C   0  0  0  0  0  0
    6.4780    8.4510  -21.3480 C   0  0  0  0  0  0
    4.0408    6.4618  -20.4567 H   0  0  0  0  0  0
    5.1776    6.3184  -21.5528 H   0  0  0  0  0  0
    5.2220    8.1570  -19.6267 H   0  0  0  0  0  0
    4.4620    9.0740  -20.9310 H   0  0  0  0  0  0
    7.9240    8.5020  -19.7061 H   0  0  0  0  0  0
    3.9059    7.6719  -23.1659 H   0  0  0  0  0  0
    2.6234    7.7807  -21.9392 H   0  0  0  0  0  0
   10.5974    9.0901  -22.3838 H   0  0  0  0  0  0
   10.2260    9.8192  -20.7848 H   0  0  0  0  0  0
   10.4691    8.0459  -20.9279 H   0  0  0  0  0  0
    8.3940    8.9160  -23.8770 H   0  0  0  0  0  0
  1  2  2  0  0  0
  1  3  1  0  0  0
  1 34  1  0  0  0
  2  6  1  0  0  0
  2 35  1  0  0  0
  3  5  2  0  0  0
  3 27  1  0  0  0
  4  5  1  0  0  0
  4  6  2  0  0  0
  4 18  1  0  0  0
  5 24  1  0  0  0
  6 10  1  0  0  0
  7 10  2  0  0  0
  7 23  1  0  0  0
  7 33  1  0  0  0
  8 21  1  0  0  0
  8 22  1  0  0  0
  8 36  1  0  0  0
  8 37  1  0  0  0
  9 21  1  0  0  0
  9 31  1  0  0  0
  9 38  1  0  0  0
  9 39  1  0  0  0
 10 40  1  0  0  0
 11 12  1  0  0  0
 11 14  2  0  0  0
 11 15  1  0  0  0
 12 17  1  0  0  0
 12 28  2  0  0  0
 13 28  1  0  0  0
 13 29  2  0  0  0
 13 57  1  0  0  0
 14 29  1  0  0  0
 14 31  1  0  0  0
 15 30  2  0  0  0
 15 41  1  0  0  0
 16 17  2  0  0  0
 16 18  1  0  0  0
 16 30  1  0  0  0
 17 26  1  0  0  0
 18 23  2  0  0  0
 19 20  1  0  0  0
 19 31  1  0  0  0
 19 42  1  0  0  0
 19 43  1  0  0  0
 20 22  1  0  0  0
 20 32  1  0  0  0
 20 44  1  0  0  0
 21 32  1  0  0  0
 21 45  1  0  0  0
 22 46  1  0  0  0
 22 47  1  0  0  0
 23 48  1  0  0  0
 24 25  3  0  0  0
 25 49  1  0  0  0
 32 50  1  0  0  0
 33 51  1  0  0  0
 52 55  1  0  0  0
 52 57  1  0  0  0
 52 61  1  0  0  0
 52 62  1  0  0  0
 53 59  2  0  0  0
 53 60  1  0  0  0
 54 56  1  0  0  0
 54 58  1  0  0  0
 54 59  1  0  0  0
 55 60  1  0  0  0
 55 63  1  0  0  0
 55 64  1  0  0  0
 56 60  2  0  0  0
 56 65  1  0  0  0
 57 66  1  0  0  0
 57 67  1  0  0  0
 58 68  1  0  0  0
 58 69  1  0  0  0
 58 70  1  0  0  0
 59 71  1  0  0  0
M  CHG  1  52   1
M  END
> <s_m_entry_id>
573

> <s_m_entry_name>
000000415.1

> <s_m_Source_Path>
/Users/zaksoul/Documents/3r_UNI/2nd_SEMESTER/BSC/FRAG_RECON/RESULTS/2

> <s_m_Source_File>
000000415.mol2

> <i_m_Source_File_Index>
1

$$$$
No_0_437
                    3D
 Schrodinger Suite 2022-4.
 67 73  0  0  1  0            999 V2000
   -5.1810    3.6090  -21.8530 C   0  0  0  0  0  0
   -5.4520    3.8050  -23.1860 C   0  0  0  0  0  0
   -3.9420    3.3510  -21.5190 C   0  0  0  0  0  0
   -3.0590    3.4860  -23.6870 C   0  0  0  0  0  0
   -2.8930    3.2340  -22.2690 C   0  0  0  0  0  0
   -4.4090    3.7540  -24.2010 C   0  0  0  0  0  0
   -3.6630    3.7850  -26.4030 C   0  0  0  0  0  0
    6.0870    3.0010  -21.1820 C   0  0  0  0  0  0
    5.9380    3.1560  -23.7310 C   0  0  0  0  0  0
   -4.6650    3.8890  -25.5350 C   0  0  0  0  0  0
    2.1540    3.7130  -23.7290 C   0  0  0  0  0  0
    1.3370    4.8230  -23.4210 C   0  0  0  0  0  0
    3.1410    6.0110  -22.7430 C   0  0  0  0  0  0
    3.5570    3.8990  -23.4210 C   0  0  0  0  0  0
    1.6030    2.6010  -24.3930 C   0  0  0  0  0  0
   -0.5220    3.4190  -24.2700 C   0  0  0  0  0  0
    0.0100    4.6350  -23.6670 C   0  0  0  0  0  0
   -1.9770    3.4300  -24.6180 C   0  0  0  0  0  0
    4.1570    1.3990  -23.1440 C   0  0  0  0  0  0
    5.0950    1.0350  -22.0030 C   0  0  2  0  0  0
    6.6890    2.5740  -22.5390 C   0  0  2  0  0  0
    5.0840    2.0310  -20.8310 C   0  0  0  0  0  0
   -2.3080    3.5970  -26.0440 C   0  0  0  0  0  0
   -1.5470    2.8150  -21.6780 C   0  0  0  0  0  0
   -0.5150    2.4620  -21.1780 C   0  0  0  0  0  0
   -0.8280    5.6800  -23.3140 F   0  0  0  0  0  0
   -3.7260    3.1020  -20.1390 F   0  0  0  0  0  0
    1.8200    5.9780  -22.8860 N   0  0  0  0  0  0
    4.0350    5.0470  -22.9720 N   0  0  0  0  0  0
    0.2950    2.5160  -24.6930 N   0  0  0  0  0  0
    4.4710    2.8500  -23.6070 N   0  0  0  0  0  0
    6.5000    1.1010  -22.4910 N   0  0  1  0  0  0
   -3.8410    3.8060  -27.7920 O   0  0  0  0  0  0
   -5.9796    3.6712  -21.1226 H   0  0  0  0  0  0
   -6.4675    4.0037  -23.5091 H   0  0  0  0  0  0
    5.6179    3.9906  -21.2849 H   0  0  0  0  0  0
    6.8763    3.0060  -20.4159 H   0  0  0  0  0  0
    6.3275    2.7150  -24.6604 H   0  0  0  0  0  0
    6.0833    4.2460  -23.7593 H   0  0  0  0  0  0
   -5.6765    4.0776  -25.8762 H   0  0  0  0  0  0
    2.2385    1.7718  -24.6821 H   0  0  0  0  0  0
    3.1157    1.3435  -22.7939 H   0  0  0  0  0  0
    4.3144    0.7047  -23.9826 H   0  0  0  0  0  0
    4.8700    0.0218  -21.6387 H   0  0  0  0  0  0
    7.7578    2.8293  -22.5885 H   0  0  0  0  0  0
    4.1018    2.5236  -20.7805 H   0  0  0  0  0  0
    5.3877    1.5123  -19.9097 H   0  0  0  0  0  0
   -1.5411    3.5789  -26.8099 H   0  0  0  0  0  0
    0.3934    2.1519  -20.7378 H   0  0  0  0  0  0
    7.1492    0.5983  -21.7894 H   0  0  0  0  0  0
   -2.9984    3.7179  -28.2217 H   0  0  0  0  0  0
    4.0480    7.3100  -20.8050 N   0  0  1  0  0  0
    8.3130    8.6990  -20.7480 N   0  0  0  0  0  0
    7.8860    9.6070  -21.6520 N   0  0  0  0  0  0
    4.6200    8.5880  -20.2450 C   0  0  0  0  0  0
    3.7060    7.3460  -22.2710 C   0  0  0  0  0  0
    7.1750    8.2500  -20.1610 C   0  0  0  0  0  0
    6.5830    9.6950  -21.6110 C   0  0  0  0  0  0
    6.0660    8.8220  -20.6470 C   0  0  0  0  0  0
    4.7610    6.5090  -20.6770 H   0  0  0  0  0  0
    9.3197    8.5051  -20.6490 H   0  0  0  0  0  0
    4.5430    8.5720  -19.1478 H   0  0  0  0  0  0
    4.0064    9.4385  -20.5768 H   0  0  0  0  0  0
    4.6084    7.5878  -22.8516 H   0  0  0  0  0  0
    2.9688    8.1412  -22.4560 H   0  0  0  0  0  0
    7.2280    7.5001  -19.3801 H   0  0  0  0  0  0
    6.0638   10.3793  -22.2723 H   0  0  0  0  0  0
  1  2  2  0  0  0
  1  3  1  0  0  0
  1 34  1  0  0  0
  2  6  1  0  0  0
  2 35  1  0  0  0
  3  5  2  0  0  0
  3 27  1  0  0  0
  4  5  1  0  0  0
  4  6  2  0  0  0
  4 18  1  0  0  0
  5 24  1  0  0  0
  6 10  1  0  0  0
  7 10  2  0  0  0
  7 23  1  0  0  0
  7 33  1  0  0  0
  8 21  1  0  0  0
  8 22  1  0  0  0
  8 36  1  0  0  0
  8 37  1  0  0  0
  9 21  1  0  0  0
  9 31  1  0  0  0
  9 38  1  0  0  0
  9 39  1  0  0  0
 10 40  1  0  0  0
 11 12  1  0  0  0
 11 14  2  0  0  0
 11 15  1  0  0  0
 12 17  1  0  0  0
 12 28  2  0  0  0
 13 28  1  0  0  0
 13 29  2  0  0  0
 13 56  1  0  0  0
 14 29  1  0  0  0
 14 31  1  0  0  0
 15 30  2  0  0  0
 15 41  1  0  0  0
 16 17  2  0  0  0
 16 18  1  0  0  0
 16 30  1  0  0  0
 17 26  1  0  0  0
 18 23  2  0  0  0
 19 20  1  0  0  0
 19 31  1  0  0  0
 19 42  1  0  0  0
 19 43  1  0  0  0
 20 22  1  0  0  0
 20 32  1  0  0  0
 20 44  1  0  0  0
 21 32  1  0  0  0
 21 45  1  0  0  0
 22 46  1  0  0  0
 22 47  1  0  0  0
 23 48  1  0  0  0
 24 25  3  0  0  0
 25 49  1  0  0  0
 32 50  1  0  0  0
 33 51  1  0  0  0
 52 55  1  0  0  0
 52 56  1  0  0  0
 52 60  1  0  0  0
 53 54  1  0  0  0
 53 57  1  0  0  0
 53 61  1  0  0  0
 54 58  2  0  0  0
 55 59  1  0  0  0
 55 62  1  0  0  0
 55 63  1  0  0  0
 56 64  1  0  0  0
 56 65  1  0  0  0
 57 59  2  0  0  0
 57 66  1  0  0  0
 58 59  1  0  0  0
 58 67  1  0  0  0
M  END
> <s_m_entry_id>
574

> <s_m_entry_name>
000000416.1

> <s_m_Source_Path>
/Users/zaksoul/Documents/3r_UNI/2nd_SEMESTER/BSC/FRAG_RECON/RESULTS/2

> <s_m_Source_File>
000000416.mol2

> <i_m_Source_File_Index>
1

$$$$
No_0_438
                    3D
 Schrodinger Suite 2022-4.
 67 73  0  0  1  0            999 V2000
   -5.0380    3.7690  -21.8550 C   0  0  0  0  0  0
   -5.3150    3.9190  -23.1940 C   0  0  0  0  0  0
   -3.7990    3.5130  -21.5180 C   0  0  0  0  0  0
   -2.9270    3.5610  -23.6950 C   0  0  0  0  0  0
   -2.7560    3.3590  -22.2690 C   0  0  0  0  0  0
   -4.2770    3.8220  -24.2110 C   0  0  0  0  0  0
   -3.5430    3.7670  -26.4160 C   0  0  0  0  0  0
    6.2280    3.0880  -21.2200 C   0  0  0  0  0  0
    6.0660    3.1520  -23.7710 C   0  0  0  0  0  0
   -4.5390    3.9110  -25.5480 C   0  0  0  0  0  0
    2.2880    3.7420  -23.7710 C   0  0  0  0  0  0
    1.4820    4.8680  -23.4990 C   0  0  0  0  0  0
    3.3000    6.0640  -22.8740 C   0  0  0  0  0  0
    3.6930    3.9270  -23.4770 C   0  0  0  0  0  0
    1.7230    2.6110  -24.3920 C   0  0  0  0  0  0
   -0.3940    3.4510  -24.2870 C   0  0  0  0  0  0
    0.1520    4.6840  -23.7320 C   0  0  0  0  0  0
   -1.8500    3.4620  -24.6280 C   0  0  0  0  0  0
    4.2740    1.4320  -23.1120 C   0  0  0  0  0  0
    5.2150    1.1020  -21.9640 C   0  0  2  0  0  0
    6.8190    2.6070  -22.5630 C   0  0  2  0  0  0
    5.2190    2.1400  -20.8280 C   0  0  0  0  0  0
   -2.1870    3.5810  -26.0570 C   0  0  0  0  0  0
   -1.4100    2.9500  -21.6700 C   0  0  0  0  0  0
   -0.3790    2.6070  -21.1630 C   0  0  0  0  0  0
   -0.6750    5.7480  -23.4120 F   0  0  0  0  0  0
   -3.5780    3.3110  -20.1310 F   0  0  0  0  0  0
    1.9770    6.0380  -23.0090 N   0  0  0  0  0  0
    4.1830    5.0850  -23.0720 N   0  0  0  0  0  0
    0.4130    2.5260  -24.6820 N   0  0  0  0  0  0
    4.5980    2.8630  -23.6290 N   0  0  0  0  0  0
    6.6180    1.1380  -22.4610 N   0  0  1  0  0  0
   -3.7290    3.7400  -27.8040 O   0  0  0  0  0  0
   -5.8321    3.8634  -21.1232 H   0  0  0  0  0  0
   -6.3306    4.1149  -23.5185 H   0  0  0  0  0  0
    5.7667    4.0773  -21.3563 H   0  0  0  0  0  0
    7.0216    3.1132  -20.4587 H   0  0  0  0  0  0
    6.4473    2.6749  -24.6859 H   0  0  0  0  0  0
    6.2214    4.2388  -23.8396 H   0  0  0  0  0  0
   -5.5508    4.0957  -25.8903 H   0  0  0  0  0  0
    2.3501    1.7662  -24.6529 H   0  0  0  0  0  0
    3.2339    1.3987  -22.7555 H   0  0  0  0  0  0
    4.4204    0.7063  -23.9256 H   0  0  0  0  0  0
    4.9829    0.1050  -21.5614 H   0  0  0  0  0  0
    7.8896    2.8512  -22.6276 H   0  0  0  0  0  0
    4.2412    2.6425  -20.7907 H   0  0  0  0  0  0
    5.5228    1.6515  -19.8904 H   0  0  0  0  0  0
   -1.4254    3.5288  -26.8266 H   0  0  0  0  0  0
    0.5290    2.3040  -20.7170 H   0  0  0  0  0  0
    7.2662    0.6556  -21.7444 H   0  0  0  0  0  0
   -2.8893    3.6292  -28.2342 H   0  0  0  0  0  0
    4.4930    7.3400  -21.0800 N   0  0  1  0  0  0
    8.6190    8.9640  -21.7560 N   0  0  0  0  0  0
    7.9850    9.8800  -22.5200 N   0  0  0  0  0  0
    5.0970    8.6260  -20.5770 C   0  0  0  0  0  0
    3.8780    7.4110  -22.4530 C   0  0  0  0  0  0
    7.6360    8.4300  -20.9890 C   0  0  0  0  0  0
    6.7110    9.8920  -22.2320 C   0  0  0  0  0  0
    6.4280    8.9560  -21.2310 C   0  0  0  0  0  0
    5.2555    6.5765  -21.1250 H   0  0  0  0  0  0
    9.6343    8.8231  -21.8569 H   0  0  0  0  0  0
    5.2310    8.5650  -19.4869 H   0  0  0  0  0  0
    4.3921    9.4529  -20.7480 H   0  0  0  0  0  0
    4.6417    7.7249  -23.1798 H   0  0  0  0  0  0
    3.0819    8.1701  -22.4590 H   0  0  0  0  0  0
    7.8711    7.6557  -20.2677 H   0  0  0  0  0  0
    6.0444   10.5706  -22.7517 H   0  0  0  0  0  0
  1  2  2  0  0  0
  1  3  1  0  0  0
  1 34  1  0  0  0
  2  6  1  0  0  0
  2 35  1  0  0  0
  3  5  2  0  0  0
  3 27  1  0  0  0
  4  5  1  0  0  0
  4  6  2  0  0  0
  4 18  1  0  0  0
  5 24  1  0  0  0
  6 10  1  0  0  0
  7 10  2  0  0  0
  7 23  1  0  0  0
  7 33  1  0  0  0
  8 21  1  0  0  0
  8 22  1  0  0  0
  8 36  1  0  0  0
  8 37  1  0  0  0
  9 21  1  0  0  0
  9 31  1  0  0  0
  9 38  1  0  0  0
  9 39  1  0  0  0
 10 40  1  0  0  0
 11 12  1  0  0  0
 11 14  2  0  0  0
 11 15  1  0  0  0
 12 17  1  0  0  0
 12 28  2  0  0  0
 13 28  1  0  0  0
 13 29  2  0  0  0
 13 56  1  0  0  0
 14 29  1  0  0  0
 14 31  1  0  0  0
 15 30  2  0  0  0
 15 41  1  0  0  0
 16 17  2  0  0  0
 16 18  1  0  0  0
 16 30  1  0  0  0
 17 26  1  0  0  0
 18 23  2  0  0  0
 19 20  1  0  0  0
 19 31  1  0  0  0
 19 42  1  0  0  0
 19 43  1  0  0  0
 20 22  1  0  0  0
 20 32  1  0  0  0
 20 44  1  0  0  0
 21 32  1  0  0  0
 21 45  1  0  0  0
 22 46  1  0  0  0
 22 47  1  0  0  0
 23 48  1  0  0  0
 24 25  3  0  0  0
 25 49  1  0  0  0
 32 50  1  0  0  0
 33 51  1  0  0  0
 52 55  1  0  0  0
 52 56  1  0  0  0
 52 60  1  0  0  0
 53 54  1  0  0  0
 53 57  1  0  0  0
 53 61  1  0  0  0
 54 58  2  0  0  0
 55 59  1  0  0  0
 55 62  1  0  0  0
 55 63  1  0  0  0
 56 64  1  0  0  0
 56 65  1  0  0  0
 57 59  2  0  0  0
 57 66  1  0  0  0
 58 59  1  0  0  0
 58 67  1  0  0  0
M  END
> <s_m_entry_id>
575

> <s_m_entry_name>
000000417.1

> <s_m_Source_Path>
/Users/zaksoul/Documents/3r_UNI/2nd_SEMESTER/BSC/FRAG_RECON/RESULTS/2

> <s_m_Source_File>
000000417.mol2

> <i_m_Source_File_Index>
1

$$$$
No_0_439
                    3D
 Schrodinger Suite 2022-4.
 67 73  0  0  1  0            999 V2000
   -5.3660    3.5160  -22.0170 C   0  0  0  0  0  0
   -5.6170    3.6680  -23.3600 C   0  0  0  0  0  0
   -4.1320    3.2690  -21.6560 C   0  0  0  0  0  0
   -3.2170    3.3330  -23.8140 C   0  0  0  0  0  0
   -3.0730    3.1270  -22.3860 C   0  0  0  0  0  0
   -4.5580    3.5850  -24.3570 C   0  0  0  0  0  0
   -3.7790    3.5430  -26.5460 C   0  0  0  0  0  0
    5.8900    2.9280  -21.1570 C   0  0  0  0  0  0
    5.7790    3.0000  -23.7110 C   0  0  0  0  0  0
   -4.7950    3.6760  -25.6980 C   0  0  0  0  0  0
    1.9970    3.5580  -23.7850 C   0  0  0  0  0  0
    1.1760    4.6760  -23.5250 C   0  0  0  0  0  0
    2.9710    5.8850  -22.8590 C   0  0  0  0  0  0
    3.3940    3.7530  -23.4620 C   0  0  0  0  0  0
    1.4540    2.4240  -24.4210 C   0  0  0  0  0  0
   -0.6720    3.2460  -24.3560 C   0  0  0  0  0  0
   -0.1480    4.4810  -23.7850 C   0  0  0  0  0  0
   -2.1210    3.2470  -24.7260 C   0  0  0  0  0  0
    3.9890    1.2630  -23.0940 C   0  0  0  0  0  0
    4.9090    0.9360  -21.9280 C   0  0  2  0  0  0
    6.5130    2.4570  -22.4900 C   0  0  2  0  0  0
    4.8820    1.9690  -20.7900 C   0  0  0  0  0  0
   -2.4300    3.3670  -26.1610 C   0  0  0  0  0  0
   -1.7360    2.7270  -21.7610 C   0  0  0  0  0  0
   -0.7120    2.3900  -21.2350 C   0  0  0  0  0  0
   -0.9900    5.5380  -23.4790 F   0  0  0  0  0  0
   -3.9370    3.0640  -20.2650 F   0  0  0  0  0  0
    1.6510    5.8480  -23.0210 N   0  0  0  0  0  0
    3.8660    4.9140  -23.0430 N   0  0  0  0  0  0
    0.1510    2.3300  -24.7370 N   0  0  0  0  0  0
    4.3110    2.6980  -23.6000 N   0  0  0  0  0  0
    6.3210    0.9860  -22.3970 N   0  0  1  0  0  0
   -3.9370    3.5200  -27.9380 O   0  0  0  0  0  0
   -6.1754    3.6014  -21.3010 H   0  0  0  0  0  0
   -6.6275    3.8566  -23.7042 H   0  0  0  0  0  0
    5.4237    3.9141  -21.2993 H   0  0  0  0  0  0
    6.6680    2.9573  -20.3800 H   0  0  0  0  0  0
    6.1824    2.5291  -24.6196 H   0  0  0  0  0  0
    5.9264    4.0883  -23.7726 H   0  0  0  0  0  0
   -5.8010    3.8537  -26.0605 H   0  0  0  0  0  0
    2.0935    1.5858  -24.6730 H   0  0  0  0  0  0
    2.9422    1.2186  -22.7589 H   0  0  0  0  0  0
    4.1575    0.5416  -23.9072 H   0  0  0  0  0  0
    4.6779   -0.0649  -21.5345 H   0  0  0  0  0  0
    7.5828    2.7093  -22.5324 H   0  0  0  0  0  0
    3.8995    2.4633  -20.7698 H   0  0  0  0  0  0
    5.1706    1.4806  -19.8476 H   0  0  0  0  0  0
   -1.6521    3.3248  -26.9148 H   0  0  0  0  0  0
    0.1898    2.0941  -20.7721 H   0  0  0  0  0  0
    6.9593    0.5060  -21.6700 H   0  0  0  0  0  0
   -3.0879    3.4181  -28.3517 H   0  0  0  0  0  0
    4.3070    7.1180  -21.1380 N   0  0  1  0  0  0
    8.2380    9.0080  -22.1840 N   0  0  0  0  0  0
    7.4730    9.9310  -22.8080 N   0  0  0  0  0  0
    4.9040    8.4040  -20.6270 C   0  0  0  0  0  0
    3.5290    7.2350  -22.4220 C   0  0  0  0  0  0
    7.3810    8.3760  -21.3430 C   0  0  0  0  0  0
    6.2440    9.8540  -22.3720 C   0  0  0  0  0  0
    6.1290    8.8470  -21.4080 C   0  0  0  0  0  0
    5.0953    6.4028  -21.3211 H   0  0  0  0  0  0
    9.2395    8.9310  -22.4119 H   0  0  0  0  0  0
    5.1700    8.2870  -19.5661 H   0  0  0  0  0  0
    4.1442    9.1988  -20.6590 H   0  0  0  0  0  0
    4.1838    7.6339  -23.2108 H   0  0  0  0  0  0
    2.7018    7.9472  -22.2860 H   0  0  0  0  0  0
    7.7391    7.5747  -20.7068 H   0  0  0  0  0  0
    5.4873   10.5228  -22.7659 H   0  0  0  0  0  0
  1  2  2  0  0  0
  1  3  1  0  0  0
  1 34  1  0  0  0
  2  6  1  0  0  0
  2 35  1  0  0  0
  3  5  2  0  0  0
  3 27  1  0  0  0
  4  5  1  0  0  0
  4  6  2  0  0  0
  4 18  1  0  0  0
  5 24  1  0  0  0
  6 10  1  0  0  0
  7 10  2  0  0  0
  7 23  1  0  0  0
  7 33  1  0  0  0
  8 21  1  0  0  0
  8 22  1  0  0  0
  8 36  1  0  0  0
  8 37  1  0  0  0
  9 21  1  0  0  0
  9 31  1  0  0  0
  9 38  1  0  0  0
  9 39  1  0  0  0
 10 40  1  0  0  0
 11 12  1  0  0  0
 11 14  2  0  0  0
 11 15  1  0  0  0
 12 17  1  0  0  0
 12 28  2  0  0  0
 13 28  1  0  0  0
 13 29  2  0  0  0
 13 56  1  0  0  0
 14 29  1  0  0  0
 14 31  1  0  0  0
 15 30  2  0  0  0
 15 41  1  0  0  0
 16 17  2  0  0  0
 16 18  1  0  0  0
 16 30  1  0  0  0
 17 26  1  0  0  0
 18 23  2  0  0  0
 19 20  1  0  0  0
 19 31  1  0  0  0
 19 42  1  0  0  0
 19 43  1  0  0  0
 20 22  1  0  0  0
 20 32  1  0  0  0
 20 44  1  0  0  0
 21 32  1  0  0  0
 21 45  1  0  0  0
 22 46  1  0  0  0
 22 47  1  0  0  0
 23 48  1  0  0  0
 24 25  3  0  0  0
 25 49  1  0  0  0
 32 50  1  0  0  0
 33 51  1  0  0  0
 52 55  1  0  0  0
 52 56  1  0  0  0
 52 60  1  0  0  0
 53 54  1  0  0  0
 53 57  1  0  0  0
 53 61  1  0  0  0
 54 58  2  0  0  0
 55 59  1  0  0  0
 55 62  1  0  0  0
 55 63  1  0  0  0
 56 64  1  0  0  0
 56 65  1  0  0  0
 57 59  2  0  0  0
 57 66  1  0  0  0
 58 59  1  0  0  0
 58 67  1  0  0  0
M  END
> <s_m_entry_id>
576

> <s_m_entry_name>
000000418.1

> <s_m_Source_Path>
/Users/zaksoul/Documents/3r_UNI/2nd_SEMESTER/BSC/FRAG_RECON/RESULTS/2

> <s_m_Source_File>
000000418.mol2

> <i_m_Source_File_Index>
1

$$$$
No_0_440
                    3D
 Schrodinger Suite 2022-4.
 67 73  0  0  1  0            999 V2000
   -5.1810    3.6090  -21.8530 C   0  0  0  0  0  0
   -5.4520    3.8050  -23.1860 C   0  0  0  0  0  0
   -3.9420    3.3510  -21.5190 C   0  0  0  0  0  0
   -3.0590    3.4860  -23.6870 C   0  0  0  0  0  0
   -2.8930    3.2340  -22.2690 C   0  0  0  0  0  0
   -4.4090    3.7540  -24.2010 C   0  0  0  0  0  0
   -3.6630    3.7850  -26.4030 C   0  0  0  0  0  0
    6.0870    3.0010  -21.1820 C   0  0  0  0  0  0
    5.9380    3.1560  -23.7310 C   0  0  0  0  0  0
   -4.6650    3.8890  -25.5350 C   0  0  0  0  0  0
    2.1540    3.7130  -23.7290 C   0  0  0  0  0  0
    1.3370    4.8230  -23.4210 C   0  0  0  0  0  0
    3.1410    6.0110  -22.7430 C   0  0  0  0  0  0
    3.5570    3.8990  -23.4210 C   0  0  0  0  0  0
    1.6030    2.6010  -24.3930 C   0  0  0  0  0  0
   -0.5220    3.4190  -24.2700 C   0  0  0  0  0  0
    0.0100    4.6350  -23.6670 C   0  0  0  0  0  0
   -1.9770    3.4300  -24.6180 C   0  0  0  0  0  0
    4.1570    1.3990  -23.1440 C   0  0  0  0  0  0
    5.0950    1.0350  -22.0030 C   0  0  2  0  0  0
    6.6890    2.5740  -22.5390 C   0  0  2  0  0  0
    5.0840    2.0310  -20.8310 C   0  0  0  0  0  0
   -2.3080    3.5970  -26.0440 C   0  0  0  0  0  0
   -1.5470    2.8150  -21.6780 C   0  0  0  0  0  0
   -0.5150    2.4620  -21.1780 C   0  0  0  0  0  0
   -0.8280    5.6800  -23.3140 F   0  0  0  0  0  0
   -3.7260    3.1020  -20.1390 F   0  0  0  0  0  0
    1.8200    5.9780  -22.8860 N   0  0  0  0  0  0
    4.0350    5.0470  -22.9720 N   0  0  0  0  0  0
    0.2950    2.5160  -24.6930 N   0  0  0  0  0  0
    4.4710    2.8500  -23.6070 N   0  0  0  0  0  0
    6.5000    1.1010  -22.4910 N   0  0  1  0  0  0
   -3.8410    3.8060  -27.7920 O   0  0  0  0  0  0
   -5.9796    3.6712  -21.1226 H   0  0  0  0  0  0
   -6.4675    4.0037  -23.5091 H   0  0  0  0  0  0
    5.6179    3.9906  -21.2849 H   0  0  0  0  0  0
    6.8763    3.0060  -20.4159 H   0  0  0  0  0  0
    6.3275    2.7150  -24.6604 H   0  0  0  0  0  0
    6.0833    4.2460  -23.7593 H   0  0  0  0  0  0
   -5.6765    4.0776  -25.8762 H   0  0  0  0  0  0
    2.2385    1.7718  -24.6821 H   0  0  0  0  0  0
    3.1157    1.3435  -22.7939 H   0  0  0  0  0  0
    4.3144    0.7047  -23.9826 H   0  0  0  0  0  0
    4.8700    0.0218  -21.6387 H   0  0  0  0  0  0
    7.7578    2.8293  -22.5885 H   0  0  0  0  0  0
    4.1018    2.5236  -20.7805 H   0  0  0  0  0  0
    5.3877    1.5123  -19.9097 H   0  0  0  0  0  0
   -1.5411    3.5789  -26.8099 H   0  0  0  0  0  0
    0.3934    2.1519  -20.7378 H   0  0  0  0  0  0
    7.1492    0.5983  -21.7894 H   0  0  0  0  0  0
   -2.9984    3.7179  -28.2217 H   0  0  0  0  0  0
    4.7310    7.1550  -21.1840 N   0  0  1  0  0  0
    8.2690    9.4260  -22.7500 N   0  0  0  0  0  0
    7.3480   10.3480  -23.1040 N   0  0  0  0  0  0
    5.3520    8.4230  -20.6550 C   0  0  0  0  0  0
    3.7060    7.3460  -22.2710 C   0  0  0  0  0  0
    7.6330    8.6490  -21.8370 C   0  0  0  0  0  0
    6.2370   10.1380  -22.4490 C   0  0  0  0  0  0
    6.3700    9.0310  -21.6030 C   0  0  0  0  0  0
    5.5020    6.5220  -21.5980 H   0  0  0  0  0  0
    9.2070    9.4450  -23.1750 H   0  0  0  0  0  0
    5.8317    8.2181  -19.6866 H   0  0  0  0  0  0
    4.5611    9.1589  -20.4480 H   0  0  0  0  0  0
    4.1671    7.8701  -23.1211 H   0  0  0  0  0  0
    2.8877    7.9782  -21.8959 H   0  0  0  0  0  0
    8.1525    7.8153  -21.3786 H   0  0  0  0  0  0
    5.3834   10.7867  -22.6089 H   0  0  0  0  0  0
  1  2  2  0  0  0
  1  3  1  0  0  0
  1 34  1  0  0  0
  2  6  1  0  0  0
  2 35  1  0  0  0
  3  5  2  0  0  0
  3 27  1  0  0  0
  4  5  1  0  0  0
  4  6  2  0  0  0
  4 18  1  0  0  0
  5 24  1  0  0  0
  6 10  1  0  0  0
  7 10  2  0  0  0
  7 23  1  0  0  0
  7 33  1  0  0  0
  8 21  1  0  0  0
  8 22  1  0  0  0
  8 36  1  0  0  0
  8 37  1  0  0  0
  9 21  1  0  0  0
  9 31  1  0  0  0
  9 38  1  0  0  0
  9 39  1  0  0  0
 10 40  1  0  0  0
 11 12  1  0  0  0
 11 14  2  0  0  0
 11 15  1  0  0  0
 12 17  1  0  0  0
 12 28  2  0  0  0
 13 28  1  0  0  0
 13 29  2  0  0  0
 13 56  1  0  0  0
 14 29  1  0  0  0
 14 31  1  0  0  0
 15 30  2  0  0  0
 15 41  1  0  0  0
 16 17  2  0  0  0
 16 18  1  0  0  0
 16 30  1  0  0  0
 17 26  1  0  0  0
 18 23  2  0  0  0
 19 20  1  0  0  0
 19 31  1  0  0  0
 19 42  1  0  0  0
 19 43  1  0  0  0
 20 22  1  0  0  0
 20 32  1  0  0  0
 20 44  1  0  0  0
 21 32  1  0  0  0
 21 45  1  0  0  0
 22 46  1  0  0  0
 22 47  1  0  0  0
 23 48  1  0  0  0
 24 25  3  0  0  0
 25 49  1  0  0  0
 32 50  1  0  0  0
 33 51  1  0  0  0
 52 55  1  0  0  0
 52 56  1  0  0  0
 52 60  1  0  0  0
 53 54  1  0  0  0
 53 57  1  0  0  0
 53 61  1  0  0  0
 54 58  2  0  0  0
 55 59  1  0  0  0
 55 62  1  0  0  0
 55 63  1  0  0  0
 56 64  1  0  0  0
 56 65  1  0  0  0
 57 59  2  0  0  0
 57 66  1  0  0  0
 58 59  1  0  0  0
 58 67  1  0  0  0
M  END
> <s_m_entry_id>
577

> <s_m_entry_name>
000000419.1

> <s_m_Source_Path>
/Users/zaksoul/Documents/3r_UNI/2nd_SEMESTER/BSC/FRAG_RECON/RESULTS/2

> <s_m_Source_File>
000000419.mol2

> <i_m_Source_File_Index>
1

$$$$
No_0_441
                    3D
 Schrodinger Suite 2022-4.
 67 73  0  0  1  0            999 V2000
   -5.2700    3.6580  -21.9710 C   0  0  0  0  0  0
   -5.5230    3.8260  -23.3120 C   0  0  0  0  0  0
   -4.0370    3.3990  -21.6150 C   0  0  0  0  0  0
   -3.1270    3.4770  -23.7750 C   0  0  0  0  0  0
   -2.9800    3.2570  -22.3500 C   0  0  0  0  0  0
   -4.4680    3.7440  -24.3120 C   0  0  0  0  0  0
   -3.6950    3.7190  -26.5040 C   0  0  0  0  0  0
    5.9840    2.9800  -21.1470 C   0  0  0  0  0  0
    5.8670    3.0790  -23.6990 C   0  0  0  0  0  0
   -4.7070    3.8510  -25.6520 C   0  0  0  0  0  0
    2.0890    3.6650  -23.7570 C   0  0  0  0  0  0
    1.2770    4.7870  -23.4850 C   0  0  0  0  0  0
    3.0820    5.9760  -22.8110 C   0  0  0  0  0  0
    3.4880    3.8470  -23.4360 C   0  0  0  0  0  0
    1.5360    2.5410  -24.4030 C   0  0  0  0  0  0
   -0.5840    3.3780  -24.3250 C   0  0  0  0  0  0
   -0.0490    4.6040  -23.7430 C   0  0  0  0  0  0
   -2.0340    3.3930  -24.6910 C   0  0  0  0  0  0
    4.0660    1.3480  -23.0950 C   0  0  0  0  0  0
    4.9870    1.0040  -21.9350 C   0  0  2  0  0  0
    6.5990    2.5180  -22.4850 C   0  0  2  0  0  0
    4.9690    2.0260  -20.7860 C   0  0  0  0  0  0
   -2.3460    3.5300  -26.1240 C   0  0  0  0  0  0
   -1.6450    2.8410  -21.7330 C   0  0  0  0  0  0
   -0.6220    2.4910  -21.2120 C   0  0  0  0  0  0
   -0.8830    5.6630  -23.4240 F   0  0  0  0  0  0
   -3.8400    3.1790  -20.2270 F   0  0  0  0  0  0
    1.7610    5.9500  -22.9700 N   0  0  0  0  0  0
    3.9700    5.0000  -23.0070 N   0  0  0  0  0  0
    0.2310    2.4600  -24.7180 N   0  0  0  0  0  0
    4.3970    2.7870  -23.5870 N   0  0  0  0  0  0
    6.3980    1.0480  -22.4070 N   0  0  1  0  0  0
   -3.8560    3.7110  -27.8950 O   0  0  0  0  0  0
   -6.0771    3.7423  -21.2523 H   0  0  0  0  0  0
   -6.5330    4.0258  -23.6513 H   0  0  0  0  0  0
    5.5240    3.9706  -21.2781 H   0  0  0  0  0  0
    6.7637    2.9961  -20.3713 H   0  0  0  0  0  0
    6.2645    2.6139  -24.6131 H   0  0  0  0  0  0
    6.0214    4.1669  -23.7505 H   0  0  0  0  0  0
   -5.7128    4.0397  -26.0094 H   0  0  0  0  0  0
    2.1692    1.7011  -24.6649 H   0  0  0  0  0  0
    3.0199    1.3087  -22.7571 H   0  0  0  0  0  0
    4.2276    0.6340  -23.9160 H   0  0  0  0  0  0
    4.7489    0.0012  -21.5506 H   0  0  0  0  0  0
    7.6702    2.7641  -22.5284 H   0  0  0  0  0  0
    3.9905    2.5279  -20.7587 H   0  0  0  0  0  0
    5.2566    1.5255  -19.8496 H   0  0  0  0  0  0
   -1.5706    3.4889  -26.8804 H   0  0  0  0  0  0
    0.2785    2.1838  -20.7538 H   0  0  0  0  0  0
    7.0343    0.5561  -21.6862 H   0  0  0  0  0  0
   -3.0090    3.6071  -28.3125 H   0  0  0  0  0  0
    4.8980    7.1360  -21.5380 N   0  0  1  0  0  0
    7.8600    9.7770  -23.6290 N   0  0  0  0  0  0
    6.8290   10.6460  -23.7020 N   0  0  0  0  0  0
    5.5390    8.4110  -21.0500 C   0  0  0  0  0  0
    3.6510    7.3170  -22.3620 C   0  0  0  0  0  0
    7.4880    8.8940  -22.6690 C   0  0  0  0  0  0
    5.9020   10.3050  -22.8450 C   0  0  0  0  0  0
    6.2860    9.1590  -22.1410 C   0  0  0  0  0  0
    5.5982    6.5949  -22.1571 H   0  0  0  0  0  0
    8.6796    9.8989  -24.2407 H   0  0  0  0  0  0
    6.2301    8.1800  -20.2259 H   0  0  0  0  0  0
    4.7670    9.0660  -20.6200 H   0  0  0  0  0  0
    3.8818    7.9305  -23.2453 H   0  0  0  0  0  0
    2.8959    7.8560  -21.7710 H   0  0  0  0  0  0
    8.1459    8.0752  -22.4011 H   0  0  0  0  0  0
    4.9953   10.8938  -22.7660 H   0  0  0  0  0  0
  1  2  2  0  0  0
  1  3  1  0  0  0
  1 34  1  0  0  0
  2  6  1  0  0  0
  2 35  1  0  0  0
  3  5  2  0  0  0
  3 27  1  0  0  0
  4  5  1  0  0  0
  4  6  2  0  0  0
  4 18  1  0  0  0
  5 24  1  0  0  0
  6 10  1  0  0  0
  7 10  2  0  0  0
  7 23  1  0  0  0
  7 33  1  0  0  0
  8 21  1  0  0  0
  8 22  1  0  0  0
  8 36  1  0  0  0
  8 37  1  0  0  0
  9 21  1  0  0  0
  9 31  1  0  0  0
  9 38  1  0  0  0
  9 39  1  0  0  0
 10 40  1  0  0  0
 11 12  1  0  0  0
 11 14  2  0  0  0
 11 15  1  0  0  0
 12 17  1  0  0  0
 12 28  2  0  0  0
 13 28  1  0  0  0
 13 29  2  0  0  0
 13 56  1  0  0  0
 14 29  1  0  0  0
 14 31  1  0  0  0
 15 30  2  0  0  0
 15 41  1  0  0  0
 16 17  2  0  0  0
 16 18  1  0  0  0
 16 30  1  0  0  0
 17 26  1  0  0  0
 18 23  2  0  0  0
 19 20  1  0  0  0
 19 31  1  0  0  0
 19 42  1  0  0  0
 19 43  1  0  0  0
 20 22  1  0  0  0
 20 32  1  0  0  0
 20 44  1  0  0  0
 21 32  1  0  0  0
 21 45  1  0  0  0
 22 46  1  0  0  0
 22 47  1  0  0  0
 23 48  1  0  0  0
 24 25  3  0  0  0
 25 49  1  0  0  0
 32 50  1  0  0  0
 33 51  1  0  0  0
 52 55  1  0  0  0
 52 56  1  0  0  0
 52 60  1  0  0  0
 53 54  1  0  0  0
 53 57  1  0  0  0
 53 61  1  0  0  0
 54 58  2  0  0  0
 55 59  1  0  0  0
 55 62  1  0  0  0
 55 63  1  0  0  0
 56 64  1  0  0  0
 56 65  1  0  0  0
 57 59  2  0  0  0
 57 66  1  0  0  0
 58 59  1  0  0  0
 58 67  1  0  0  0
M  END
> <s_m_entry_id>
578

> <s_m_entry_name>
000000420.1

> <s_m_Source_Path>
/Users/zaksoul/Documents/3r_UNI/2nd_SEMESTER/BSC/FRAG_RECON/RESULTS/2

> <s_m_Source_File>
000000420.mol2

> <i_m_Source_File_Index>
1

$$$$
No_0_442
                    3D
 Schrodinger Suite 2022-4.
 67 73  0  0  1  0            999 V2000
   -5.4210    3.5070  -21.8620 C   0  0  0  0  0  0
   -5.6610    3.7280  -23.1980 C   0  0  0  0  0  0
   -4.1940    3.2210  -21.5070 C   0  0  0  0  0  0
   -3.2650    3.3700  -23.6550 C   0  0  0  0  0  0
   -3.1330    3.0940  -22.2370 C   0  0  0  0  0  0
   -4.5980    3.6720  -24.1920 C   0  0  0  0  0  0
   -3.8060    3.7210  -26.3770 C   0  0  0  0  0  0
    5.8170    2.6720  -20.9720 C   0  0  0  0  0  0
    5.7230    2.8680  -23.5200 C   0  0  0  0  0  0
   -4.8240    3.8320  -25.5280 C   0  0  0  0  0  0
    1.9520    3.4980  -23.5870 C   0  0  0  0  0  0
    1.1500    4.6180  -23.2790 C   0  0  0  0  0  0
    2.9620    5.7610  -22.5460 C   0  0  0  0  0  0
    3.3510    3.6520  -23.2480 C   0  0  0  0  0  0
    1.3930    2.4060  -24.2790 C   0  0  0  0  0  0
   -0.7180    3.2630  -24.1860 C   0  0  0  0  0  0
   -0.1750    4.4600  -23.5540 C   0  0  0  0  0  0
   -2.1650    3.3080  -24.5640 C   0  0  0  0  0  0
    3.8980    1.1360  -22.9960 C   0  0  0  0  0  0
    4.8050    0.7380  -21.8420 C   0  0  2  0  0  0
    6.4390    2.2540  -22.3220 C   0  0  2  0  0  0
    4.7890    1.7160  -20.6560 C   0  0  0  0  0  0
   -2.4630    3.5020  -25.9930 C   0  0  0  0  0  0
   -1.8080    2.6400  -21.6250 C   0  0  0  0  0  0
   -0.7930    2.2600  -21.1100 C   0  0  0  0  0  0
   -1.0000    5.5160  -23.2020 F   0  0  0  0  0  0
   -4.0120    2.9460  -20.1260 F   0  0  0  0  0  0
    1.6430    5.7550  -22.7160 N   0  0  0  0  0  0
    3.8410    4.7830  -22.7710 N   0  0  0  0  0  0
    0.0900    2.3510  -24.6070 N   0  0  0  0  0  0
    4.2490    2.5880  -23.4310 N   0  0  0  0  0  0
    6.2200    0.7840  -22.3010 N   0  0  1  0  0  0
   -3.9560    3.7670  -27.7680 O   0  0  0  0  0  0
   -6.2332    3.5733  -21.1472 H   0  0  0  0  0  0
   -6.6656    3.9518  -23.5382 H   0  0  0  0  0  0
    5.3690    3.6720  -21.0689 H   0  0  0  0  0  0
    6.5901    2.6498  -20.1898 H   0  0  0  0  0  0
    6.1234    2.4334  -24.4478 H   0  0  0  0  0  0
    5.8906    3.9551  -23.5291 H   0  0  0  0  0  0
   -5.8245    4.0457  -25.8863 H   0  0  0  0  0  0
    2.0184    1.5688  -24.5671 H   0  0  0  0  0  0
    2.8485    1.0956  -22.6690 H   0  0  0  0  0  0
    4.0585    0.4515  -23.8420 H   0  0  0  0  0  0
    4.5528   -0.2759  -21.4980 H   0  0  0  0  0  0
    7.5135    2.4881  -22.3462 H   0  0  0  0  0  0
    3.8156    2.2269  -20.6176 H   0  0  0  0  0  0
    5.0634    1.1773  -19.7370 H   0  0  0  0  0  0
   -1.6812    3.4809  -26.7436 H   0  0  0  0  0  0
    0.1004    1.9259  -20.6568 H   0  0  0  0  0  0
    6.8452    0.2582  -21.5946 H   0  0  0  0  0  0
   -3.1067    3.6691  -28.1823 H   0  0  0  0  0  0
    5.0370    6.9920  -21.8790 N   0  0  1  0  0  0
    6.4940   10.5140  -24.2460 N   0  0  0  0  0  0
    5.4610   11.1600  -23.6630 N   0  0  0  0  0  0
    5.7040    8.2520  -21.3880 C   0  0  0  0  0  0
    3.5420    7.0780  -22.0420 C   0  0  0  0  0  0
    6.6730    9.4090  -23.4790 C   0  0  0  0  0  0
    5.0490   10.4870  -22.6210 C   0  0  0  0  0  0
    5.8130    9.3260  -22.4560 C   0  0  0  0  0  0
    5.4360    6.7270  -22.8470 H   0  0  0  0  0  0
    6.9401   10.9091  -25.0861 H   0  0  0  0  0  0
    6.7082    8.0099  -21.0099 H   0  0  0  0  0  0
    5.1472    8.6489  -20.5263 H   0  0  0  0  0  0
    3.2969    7.8814  -22.7523 H   0  0  0  0  0  0
    3.0830    7.3350  -21.0760 H   0  0  0  0  0  0
    7.4556    8.7004  -23.7249 H   0  0  0  0  0  0
    4.2212   10.8589  -22.0281 H   0  0  0  0  0  0
  1  2  2  0  0  0
  1  3  1  0  0  0
  1 34  1  0  0  0
  2  6  1  0  0  0
  2 35  1  0  0  0
  3  5  2  0  0  0
  3 27  1  0  0  0
  4  5  1  0  0  0
  4  6  2  0  0  0
  4 18  1  0  0  0
  5 24  1  0  0  0
  6 10  1  0  0  0
  7 10  2  0  0  0
  7 23  1  0  0  0
  7 33  1  0  0  0
  8 21  1  0  0  0
  8 22  1  0  0  0
  8 36  1  0  0  0
  8 37  1  0  0  0
  9 21  1  0  0  0
  9 31  1  0  0  0
  9 38  1  0  0  0
  9 39  1  0  0  0
 10 40  1  0  0  0
 11 12  1  0  0  0
 11 14  2  0  0  0
 11 15  1  0  0  0
 12 17  1  0  0  0
 12 28  2  0  0  0
 13 28  1  0  0  0
 13 29  2  0  0  0
 13 56  1  0  0  0
 14 29  1  0  0  0
 14 31  1  0  0  0
 15 30  2  0  0  0
 15 41  1  0  0  0
 16 17  2  0  0  0
 16 18  1  0  0  0
 16 30  1  0  0  0
 17 26  1  0  0  0
 18 23  2  0  0  0
 19 20  1  0  0  0
 19 31  1  0  0  0
 19 42  1  0  0  0
 19 43  1  0  0  0
 20 22  1  0  0  0
 20 32  1  0  0  0
 20 44  1  0  0  0
 21 32  1  0  0  0
 21 45  1  0  0  0
 22 46  1  0  0  0
 22 47  1  0  0  0
 23 48  1  0  0  0
 24 25  3  0  0  0
 25 49  1  0  0  0
 32 50  1  0  0  0
 33 51  1  0  0  0
 52 55  1  0  0  0
 52 56  1  0  0  0
 52 60  1  0  0  0
 53 54  1  0  0  0
 53 57  1  0  0  0
 53 61  1  0  0  0
 54 58  2  0  0  0
 55 59  1  0  0  0
 55 62  1  0  0  0
 55 63  1  0  0  0
 56 64  1  0  0  0
 56 65  1  0  0  0
 57 59  2  0  0  0
 57 66  1  0  0  0
 58 59  1  0  0  0
 58 67  1  0  0  0
M  END
> <s_m_entry_id>
579

> <s_m_entry_name>
000000421.1

> <s_m_Source_Path>
/Users/zaksoul/Documents/3r_UNI/2nd_SEMESTER/BSC/FRAG_RECON/RESULTS/2

> <s_m_Source_File>
000000421.mol2

> <i_m_Source_File_Index>
1

$$$$
No_0_443
                    3D
 Schrodinger Suite 2022-4.
 67 73  0  0  1  0            999 V2000
   -5.1520    3.5520  -21.6920 C   0  0  0  0  0  0
   -5.4220    3.7410  -23.0270 C   0  0  0  0  0  0
   -3.9100    3.3140  -21.3530 C   0  0  0  0  0  0
   -3.0230    3.4560  -23.5200 C   0  0  0  0  0  0
   -2.8580    3.2110  -22.1000 C   0  0  0  0  0  0
   -4.3740    3.7030  -24.0380 C   0  0  0  0  0  0
   -3.6220    3.7400  -26.2370 C   0  0  0  0  0  0
    6.1220    3.1150  -20.9850 C   0  0  0  0  0  0
    5.9780    3.2620  -23.5340 C   0  0  0  0  0  0
   -4.6290    3.8310  -25.3730 C   0  0  0  0  0  0
    2.1870    3.7620  -23.5460 C   0  0  0  0  0  0
    1.3520    4.8600  -23.2430 C   0  0  0  0  0  0
    3.1360    6.0760  -22.5620 C   0  0  0  0  0  0
    3.5850    3.9700  -23.2340 C   0  0  0  0  0  0
    1.6540    2.6400  -24.2090 C   0  0  0  0  0  0
   -0.4830    3.4260  -24.0940 C   0  0  0  0  0  0
    0.0290    4.6520  -23.4920 C   0  0  0  0  0  0
   -1.9370    3.4150  -24.4470 C   0  0  0  0  0  0
    4.2220    1.4790  -22.9490 C   0  0  0  0  0  0
    5.1620    1.1320  -21.8040 C   0  0  2  0  0  0
    6.7350    2.6940  -22.3390 C   0  0  2  0  0  0
    5.1330    2.1300  -20.6340 C   0  0  0  0  0  0
   -2.2660    3.5740  -25.8740 C   0  0  0  0  0  0
   -1.5070    2.8130  -21.5040 C   0  0  0  0  0  0
   -0.4720    2.4770  -21.0000 C   0  0  0  0  0  0
   -0.8260    5.6850  -23.1440 F   0  0  0  0  0  0
   -3.6950    3.0700  -19.9720 F   0  0  0  0  0  0
    1.8160    6.0230  -22.7090 N   0  0  0  0  0  0
    4.0440    5.1250  -22.7860 N   0  0  0  0  0  0
    0.3480    2.5350  -24.5130 N   0  0  0  0  0  0
    4.5160    2.9340  -23.4140 N   0  0  0  0  0  0
    6.5670    1.2180  -22.2880 N   0  0  1  0  0  0
   -3.7970    3.7560  -27.6270 O   0  0  0  0  0  0
   -5.9539    3.6032  -20.9644 H   0  0  0  0  0  0
   -6.4394    3.9238  -23.3534 H   0  0  0  0  0  0
    5.6385    4.0972  -21.0920 H   0  0  0  0  0  0
    6.9087    3.1332  -20.2164 H   0  0  0  0  0  0
    6.3766    2.8250  -24.4614 H   0  0  0  0  0  0
    6.1072    4.3540  -23.5643 H   0  0  0  0  0  0
   -5.6419    4.0037  -25.7183 H   0  0  0  0  0  0
    2.3033    1.8201  -24.4940 H   0  0  0  0  0  0
    3.1806    1.4084  -22.6019 H   0  0  0  0  0  0
    4.3926    0.7856  -23.7857 H   0  0  0  0  0  0
    4.9510    0.1165  -21.4376 H   0  0  0  0  0  0
    7.8001    2.9646  -22.3865 H   0  0  0  0  0  0
    4.1434    2.6082  -20.5886 H   0  0  0  0  0  0
    5.4409    1.6182  -19.7103 H   0  0  0  0  0  0
   -1.4970    3.5660  -26.6380 H   0  0  0  0  0  0
    0.4398    2.1811  -20.5571 H   0  0  0  0  0  0
    7.2216    0.7270  -21.5831 H   0  0  0  0  0  0
   -2.9516    3.6798  -28.0536 H   0  0  0  0  0  0
    5.0400    7.6980  -22.6740 N   0  0  1  0  0  0
    4.5170   11.7490  -24.5290 N   0  0  0  0  0  0
    3.8400   12.0300  -23.3940 N   0  0  0  0  0  0
    5.6590    9.0120  -22.2690 C   0  0  0  0  0  0
    3.6790    7.4210  -22.0910 C   0  0  0  0  0  0
    5.2320   10.6360  -24.2250 C   0  0  0  0  0  0
    4.1290   11.1470  -22.4760 C   0  0  0  0  0  0
    5.0390   10.2070  -22.9720 C   0  0  0  0  0  0
    4.9251    7.6700  -23.7475 H   0  0  0  0  0  0
    4.4040   12.3493  -25.3583 H   0  0  0  0  0  0
    6.7390    8.9860  -22.4760 H   0  0  0  0  0  0
    5.5660    9.1390  -21.1803 H   0  0  0  0  0  0
    2.9842    8.2208  -22.3869 H   0  0  0  0  0  0
    3.7440    7.4260  -20.9929 H   0  0  0  0  0  0
    5.8779   10.1871  -24.9709 H   0  0  0  0  0  0
    3.6734   11.2169  -21.4949 H   0  0  0  0  0  0
  1  2  2  0  0  0
  1  3  1  0  0  0
  1 34  1  0  0  0
  2  6  1  0  0  0
  2 35  1  0  0  0
  3  5  2  0  0  0
  3 27  1  0  0  0
  4  5  1  0  0  0
  4  6  2  0  0  0
  4 18  1  0  0  0
  5 24  1  0  0  0
  6 10  1  0  0  0
  7 10  2  0  0  0
  7 23  1  0  0  0
  7 33  1  0  0  0
  8 21  1  0  0  0
  8 22  1  0  0  0
  8 36  1  0  0  0
  8 37  1  0  0  0
  9 21  1  0  0  0
  9 31  1  0  0  0
  9 38  1  0  0  0
  9 39  1  0  0  0
 10 40  1  0  0  0
 11 12  1  0  0  0
 11 14  2  0  0  0
 11 15  1  0  0  0
 12 17  1  0  0  0
 12 28  2  0  0  0
 13 28  1  0  0  0
 13 29  2  0  0  0
 13 56  1  0  0  0
 14 29  1  0  0  0
 14 31  1  0  0  0
 15 30  2  0  0  0
 15 41  1  0  0  0
 16 17  2  0  0  0
 16 18  1  0  0  0
 16 30  1  0  0  0
 17 26  1  0  0  0
 18 23  2  0  0  0
 19 20  1  0  0  0
 19 31  1  0  0  0
 19 42  1  0  0  0
 19 43  1  0  0  0
 20 22  1  0  0  0
 20 32  1  0  0  0
 20 44  1  0  0  0
 21 32  1  0  0  0
 21 45  1  0  0  0
 22 46  1  0  0  0
 22 47  1  0  0  0
 23 48  1  0  0  0
 24 25  3  0  0  0
 25 49  1  0  0  0
 32 50  1  0  0  0
 33 51  1  0  0  0
 52 55  1  0  0  0
 52 56  1  0  0  0
 52 60  1  0  0  0
 53 54  1  0  0  0
 53 57  1  0  0  0
 53 61  1  0  0  0
 54 58  2  0  0  0
 55 59  1  0  0  0
 55 62  1  0  0  0
 55 63  1  0  0  0
 56 64  1  0  0  0
 56 65  1  0  0  0
 57 59  2  0  0  0
 57 66  1  0  0  0
 58 59  1  0  0  0
 58 67  1  0  0  0
M  END
> <s_m_entry_id>
580

> <s_m_entry_name>
000000422.1

> <s_m_Source_Path>
/Users/zaksoul/Documents/3r_UNI/2nd_SEMESTER/BSC/FRAG_RECON/RESULTS/2

> <s_m_Source_File>
000000422.mol2

> <i_m_Source_File_Index>
1

$$$$
No_0_444
                    3D
 Schrodinger Suite 2022-4.
 67 73  0  0  1  0            999 V2000
   -5.4960    3.2850  -21.8380 C   0  0  0  0  0  0
   -5.7530    3.4980  -23.1720 C   0  0  0  0  0  0
   -4.2540    3.0590  -21.4890 C   0  0  0  0  0  0
   -3.3440    3.2640  -23.6410 C   0  0  0  0  0  0
   -3.1910    2.9890  -22.2250 C   0  0  0  0  0  0
   -4.6930    3.5000  -24.1710 C   0  0  0  0  0  0
   -3.9160    3.5960  -26.3590 C   0  0  0  0  0  0
    5.7740    3.0160  -21.0030 C   0  0  0  0  0  0
    5.6590    3.2160  -23.5490 C   0  0  0  0  0  0
   -4.9340    3.6520  -25.5060 C   0  0  0  0  0  0
    1.8600    3.6550  -23.5970 C   0  0  0  0  0  0
    1.0040    4.7310  -23.2800 C   0  0  0  0  0  0
    2.7590    5.9620  -22.5520 C   0  0  0  0  0  0
    3.2510    3.8780  -23.2630 C   0  0  0  0  0  0
    1.3540    2.5390  -24.2900 C   0  0  0  0  0  0
   -0.7980    3.2870  -24.1850 C   0  0  0  0  0  0
   -0.3130    4.5070  -23.5510 C   0  0  0  0  0  0
   -2.2460    3.2600  -24.5550 C   0  0  0  0  0  0
    3.9260    1.3930  -23.0240 C   0  0  0  0  0  0
    4.8570    1.0360  -21.8760 C   0  0  2  0  0  0
    6.4100    2.6350  -22.3570 C   0  0  2  0  0  0
    4.7980    2.0080  -20.6850 C   0  0  0  0  0  0
   -2.5610    3.4450  -25.9830 C   0  0  0  0  0  0
   -1.8420    2.6010  -21.6210 C   0  0  0  0  0  0
   -0.8070    2.2710  -21.1120 C   0  0  0  0  0  0
   -1.1890    5.5190  -23.1910 F   0  0  0  0  0  0
   -4.0520    2.7890  -20.1110 F   0  0  0  0  0  0
    1.4410    5.8910  -22.7160 N   0  0  0  0  0  0
    3.6860    5.0310  -22.7850 N   0  0  0  0  0  0
    0.0540    2.4190  -24.6130 N   0  0  0  0  0  0
    4.2010    2.8620  -23.4550 N   0  0  0  0  0  0
    6.2660    1.1550  -22.3410 N   0  0  1  0  0  0
   -4.0740    3.6400  -27.7500 O   0  0  0  0  0  0
   -6.3071    3.3071  -21.1192 H   0  0  0  0  0  0
   -6.7694    3.6717  -23.5064 H   0  0  0  0  0  0
    5.2761    3.9926  -21.0939 H   0  0  0  0  0  0
    6.5512    3.0301  -20.2247 H   0  0  0  0  0  0
    6.0758    2.8053  -24.4804 H   0  0  0  0  0  0
    5.7701    4.3104  -23.5551 H   0  0  0  0  0  0
   -5.9458    3.8166  -25.8583 H   0  0  0  0  0  0
    2.0196    1.7359  -24.5851 H   0  0  0  0  0  0
    2.8817    1.2971  -22.6920 H   0  0  0  0  0  0
    4.1166    0.7203  -23.8732 H   0  0  0  0  0  0
    4.6581    0.0093  -21.5348 H   0  0  0  0  0  0
    7.4711    2.9237  -22.3853 H   0  0  0  0  0  0
    3.8002    2.4691  -20.6416 H   0  0  0  0  0  0
    5.1029    1.4800  -19.7694 H   0  0  0  0  0  0
   -1.7827    3.4661  -26.7372 H   0  0  0  0  0  0
    0.1039    1.9800  -20.6640 H   0  0  0  0  0  0
    6.9203    0.6600  -21.6386 H   0  0  0  0  0  0
   -3.2223    3.5866  -28.1674 H   0  0  0  0  0  0
    4.4870    7.7540  -22.8170 N   0  0  1  0  0  0
    3.3460   11.8850  -24.1400 N   0  0  0  0  0  0
    2.8600   12.0050  -22.8850 N   0  0  0  0  0  0
    5.0680    9.0780  -22.3900 C   0  0  0  0  0  0
    3.2740    7.3050  -22.0450 C   0  0  0  0  0  0
    4.1840   10.8200  -24.0740 C   0  0  0  0  0  0
    3.3690   11.0750  -22.1220 C   0  0  0  0  0  0
    4.2470   10.2680  -22.8550 C   0  0  0  0  0  0
    4.1879    7.8080  -23.8533 H   0  0  0  0  0  0
    3.0450   12.5420  -24.8740 H   0  0  0  0  0  0
    6.0937    9.1690  -22.7769 H   0  0  0  0  0  0
    5.1570    9.1020  -21.2939 H   0  0  0  0  0  0
    2.4798    8.0602  -22.1390 H   0  0  0  0  0  0
    3.5289    7.2200  -20.9783 H   0  0  0  0  0  0
    4.7221   10.4979  -24.9582 H   0  0  0  0  0  0
    3.0891   11.0180  -21.0763 H   0  0  0  0  0  0
  1  2  2  0  0  0
  1  3  1  0  0  0
  1 34  1  0  0  0
  2  6  1  0  0  0
  2 35  1  0  0  0
  3  5  2  0  0  0
  3 27  1  0  0  0
  4  5  1  0  0  0
  4  6  2  0  0  0
  4 18  1  0  0  0
  5 24  1  0  0  0
  6 10  1  0  0  0
  7 10  2  0  0  0
  7 23  1  0  0  0
  7 33  1  0  0  0
  8 21  1  0  0  0
  8 22  1  0  0  0
  8 36  1  0  0  0
  8 37  1  0  0  0
  9 21  1  0  0  0
  9 31  1  0  0  0
  9 38  1  0  0  0
  9 39  1  0  0  0
 10 40  1  0  0  0
 11 12  1  0  0  0
 11 14  2  0  0  0
 11 15  1  0  0  0
 12 17  1  0  0  0
 12 28  2  0  0  0
 13 28  1  0  0  0
 13 29  2  0  0  0
 13 56  1  0  0  0
 14 29  1  0  0  0
 14 31  1  0  0  0
 15 30  2  0  0  0
 15 41  1  0  0  0
 16 17  2  0  0  0
 16 18  1  0  0  0
 16 30  1  0  0  0
 17 26  1  0  0  0
 18 23  2  0  0  0
 19 20  1  0  0  0
 19 31  1  0  0  0
 19 42  1  0  0  0
 19 43  1  0  0  0
 20 22  1  0  0  0
 20 32  1  0  0  0
 20 44  1  0  0  0
 21 32  1  0  0  0
 21 45  1  0  0  0
 22 46  1  0  0  0
 22 47  1  0  0  0
 23 48  1  0  0  0
 24 25  3  0  0  0
 25 49  1  0  0  0
 32 50  1  0  0  0
 33 51  1  0  0  0
 52 55  1  0  0  0
 52 56  1  0  0  0
 52 60  1  0  0  0
 53 54  1  0  0  0
 53 57  1  0  0  0
 53 61  1  0  0  0
 54 58  2  0  0  0
 55 59  1  0  0  0
 55 62  1  0  0  0
 55 63  1  0  0  0
 56 64  1  0  0  0
 56 65  1  0  0  0
 57 59  2  0  0  0
 57 66  1  0  0  0
 58 59  1  0  0  0
 58 67  1  0  0  0
M  END
> <s_m_entry_id>
581

> <s_m_entry_name>
000000423.1

> <s_m_Source_Path>
/Users/zaksoul/Documents/3r_UNI/2nd_SEMESTER/BSC/FRAG_RECON/RESULTS/2

> <s_m_Source_File>
000000423.mol2

> <i_m_Source_File_Index>
1

$$$$
No_0_445
                    3D
 Schrodinger Suite 2022-4.
 67 73  0  0  1  0            999 V2000
   -5.1600    3.6040  -21.7570 C   0  0  0  0  0  0
   -5.4270    3.8480  -23.0840 C   0  0  0  0  0  0
   -3.9170    3.3680  -21.4230 C   0  0  0  0  0  0
   -3.0220    3.6190  -23.5760 C   0  0  0  0  0  0
   -2.8600    3.3120  -22.1680 C   0  0  0  0  0  0
   -4.3740    3.8700  -24.0900 C   0  0  0  0  0  0
   -3.6130    4.0150  -26.2820 C   0  0  0  0  0  0
    6.1150    3.2900  -21.0120 C   0  0  0  0  0  0
    5.9810    3.5480  -23.5530 C   0  0  0  0  0  0
   -4.6240    4.0530  -25.4200 C   0  0  0  0  0  0
    2.1830    3.9970  -23.5620 C   0  0  0  0  0  0
    1.3320    5.0680  -23.2150 C   0  0  0  0  0  0
    3.0960    6.2780  -22.4710 C   0  0  0  0  0  0
    3.5770    4.2100  -23.2340 C   0  0  0  0  0  0
    1.6690    2.8980  -24.2770 C   0  0  0  0  0  0
   -0.4800    3.6490  -24.1380 C   0  0  0  0  0  0
    0.0130    4.8530  -23.4800 C   0  0  0  0  0  0
   -1.9310    3.6340  -24.4980 C   0  0  0  0  0  0
    4.2480    1.7180  -23.0560 C   0  0  0  0  0  0
    5.1870    1.3330  -21.9230 C   0  0  2  0  0  0
    6.7400    2.9390  -22.3800 C   0  0  2  0  0  0
    5.1380    2.2780  -20.7110 C   0  0  0  0  0  0
   -2.2560    3.8510  -25.9190 C   0  0  0  0  0  0
   -1.5070    2.9070  -21.5830 C   0  0  0  0  0  0
   -0.4690    2.5630  -21.0900 C   0  0  0  0  0  0
   -0.8580    5.8590  -23.0910 F   0  0  0  0  0  0
   -3.7050    3.0660  -20.0530 F   0  0  0  0  0  0
    1.7770    6.2130  -22.6270 N   0  0  0  0  0  0
    4.0180    5.3500  -22.7320 N   0  0  0  0  0  0
    0.3660    2.7890  -24.5920 N   0  0  0  0  0  0
    4.5230    3.1960  -23.4550 N   0  0  0  0  0  0
    6.5930    1.4600  -22.3960 N   0  0  1  0  0  0
   -3.7810    4.0900  -27.6700 O   0  0  0  0  0  0
   -5.9661    3.6120  -21.0322 H   0  0  0  0  0  0
   -6.4452    4.0318  -23.4073 H   0  0  0  0  0  0
    5.6187    4.2695  -21.0776 H   0  0  0  0  0  0
    6.8983    3.2850  -20.2398 H   0  0  0  0  0  0
    6.3899    3.1583  -24.4969 H   0  0  0  0  0  0
    6.0950    4.6419  -23.5338 H   0  0  0  0  0  0
   -5.6381    4.2275  -25.7610 H   0  0  0  0  0  0
    2.3305    2.1000  -24.5942 H   0  0  0  0  0  0
    3.2061    1.6171  -22.7181 H   0  0  0  0  0  0
    4.4306    1.0643  -23.9216 H   0  0  0  0  0  0
    4.9881    0.2992  -21.6040 H   0  0  0  0  0  0
    7.8016    3.2256  -22.4093 H   0  0  0  0  0  0
    4.1418    2.7403  -20.6484 H   0  0  0  0  0  0
    5.4486    1.7295  -19.8095 H   0  0  0  0  0  0
   -1.4834    3.8871  -26.6785 H   0  0  0  0  0  0
    0.4445    2.2602  -20.6553 H   0  0  0  0  0  0
    7.2508    0.9466  -21.7104 H   0  0  0  0  0  0
   -2.9329    4.0445  -28.0956 H   0  0  0  0  0  0
    4.5760    8.2490  -22.9070 N   0  0  1  0  0  0
    2.8550   12.3590  -23.4260 N   0  0  0  0  0  0
    2.6740   12.3040  -22.0890 N   0  0  0  0  0  0
    5.1440    9.5750  -22.4690 C   0  0  0  0  0  0
    3.6180    7.6080  -21.9380 C   0  0  0  0  0  0
    3.7590   11.3810  -23.6830 C   0  0  0  0  0  0
    3.4180   11.3570  -21.5800 C   0  0  0  0  0  0
    4.1510   10.7190  -22.5870 C   0  0  0  0  0  0
    4.0350    8.3770  -23.8329 H   0  0  0  0  0  0
    2.3402   13.0528  -23.9868 H   0  0  0  0  0  0
    6.0381    9.8050  -23.0671 H   0  0  0  0  0  0
    5.4901    9.4980  -21.4277 H   0  0  0  0  0  0
    2.7715    8.2864  -21.7559 H   0  0  0  0  0  0
    4.1262    7.4429  -20.9765 H   0  0  0  0  0  0
    4.0921   11.2040  -24.6993 H   0  0  0  0  0  0
    3.4000   11.1689  -20.5126 H   0  0  0  0  0  0
  1  2  2  0  0  0
  1  3  1  0  0  0
  1 34  1  0  0  0
  2  6  1  0  0  0
  2 35  1  0  0  0
  3  5  2  0  0  0
  3 27  1  0  0  0
  4  5  1  0  0  0
  4  6  2  0  0  0
  4 18  1  0  0  0
  5 24  1  0  0  0
  6 10  1  0  0  0
  7 10  2  0  0  0
  7 23  1  0  0  0
  7 33  1  0  0  0
  8 21  1  0  0  0
  8 22  1  0  0  0
  8 36  1  0  0  0
  8 37  1  0  0  0
  9 21  1  0  0  0
  9 31  1  0  0  0
  9 38  1  0  0  0
  9 39  1  0  0  0
 10 40  1  0  0  0
 11 12  1  0  0  0
 11 14  2  0  0  0
 11 15  1  0  0  0
 12 17  1  0  0  0
 12 28  2  0  0  0
 13 28  1  0  0  0
 13 29  2  0  0  0
 13 56  1  0  0  0
 14 29  1  0  0  0
 14 31  1  0  0  0
 15 30  2  0  0  0
 15 41  1  0  0  0
 16 17  2  0  0  0
 16 18  1  0  0  0
 16 30  1  0  0  0
 17 26  1  0  0  0
 18 23  2  0  0  0
 19 20  1  0  0  0
 19 31  1  0  0  0
 19 42  1  0  0  0
 19 43  1  0  0  0
 20 22  1  0  0  0
 20 32  1  0  0  0
 20 44  1  0  0  0
 21 32  1  0  0  0
 21 45  1  0  0  0
 22 46  1  0  0  0
 22 47  1  0  0  0
 23 48  1  0  0  0
 24 25  3  0  0  0
 25 49  1  0  0  0
 32 50  1  0  0  0
 33 51  1  0  0  0
 52 55  1  0  0  0
 52 56  1  0  0  0
 52 60  1  0  0  0
 53 54  1  0  0  0
 53 57  1  0  0  0
 53 61  1  0  0  0
 54 58  2  0  0  0
 55 59  1  0  0  0
 55 62  1  0  0  0
 55 63  1  0  0  0
 56 64  1  0  0  0
 56 65  1  0  0  0
 57 59  2  0  0  0
 57 66  1  0  0  0
 58 59  1  0  0  0
 58 67  1  0  0  0
M  END
> <s_m_entry_id>
582

> <s_m_entry_name>
000000424.1

> <s_m_Source_Path>
/Users/zaksoul/Documents/3r_UNI/2nd_SEMESTER/BSC/FRAG_RECON/RESULTS/2

> <s_m_Source_File>
000000424.mol2

> <i_m_Source_File_Index>
1

$$$$
No_0_446
                    3D
 Schrodinger Suite 2022-4.
 73 80  0  0  1  0            999 V2000
   -5.2560    3.6710  -21.5970 C   0  0  0  0  0  0
   -5.5650    3.8390  -22.9260 C   0  0  0  0  0  0
   -4.0140    3.3900  -21.2950 C   0  0  0  0  0  0
   -3.1990    3.4450  -23.4930 C   0  0  0  0  0  0
   -2.9930    3.2260  -22.0740 C   0  0  0  0  0  0
   -4.5560    3.7350  -23.9710 C   0  0  0  0  0  0
   -3.8810    3.6890  -26.1950 C   0  0  0  0  0  0
    6.0080    2.7880  -21.2650 C   0  0  0  0  0  0
    5.7810    2.8810  -23.8110 C   0  0  0  0  0  0
   -4.8520    3.8410  -25.3000 C   0  0  0  0  0  0
    2.0150    3.5360  -23.7050 C   0  0  0  0  0  0
    1.2370    4.6740  -23.4010 C   0  0  0  0  0  0
    3.0910    5.8320  -22.8130 C   0  0  0  0  0  0
    3.4310    3.6930  -23.4460 C   0  0  0  0  0  0
    1.4140    2.4210  -24.3210 C   0  0  0  0  0  0
   -0.6840    3.2970  -24.1530 C   0  0  0  0  0  0
   -0.1020    4.5140  -23.6000 C   0  0  0  0  0  0
   -2.1480    3.3370  -24.4550 C   0  0  0  0  0  0
    3.9770    1.1860  -23.1210 C   0  0  0  0  0  0
    4.9410    0.8280  -22.0010 C   0  0  2  0  0  0
    6.5560    2.3110  -22.6280 C   0  0  2  0  0  0
    4.9940    1.8540  -20.8560 C   0  0  0  0  0  0
   -2.5210    3.4760  -25.8740 C   0  0  0  0  0  0
   -1.6400    2.7870  -21.5150 C   0  0  0  0  0  0
   -0.6020    2.4210  -21.0390 C   0  0  0  0  0  0
   -0.9020    5.5900  -23.2490 F   0  0  0  0  0  0
   -3.7600    3.1700  -19.9160 F   0  0  0  0  0  0
    1.7650    5.8290  -22.9130 N   0  0  0  0  0  0
    3.9520    4.8390  -23.0430 N   0  0  0  0  0  0
    0.0960    2.3630  -24.5780 N   0  0  0  0  0  0
    4.3120    2.6160  -23.6330 N   0  0  0  0  0  0
    6.3310    0.8450  -22.5350 N   0  0  1  0  0  0
   -4.1040    3.6790  -27.5780 O   0  0  0  0  0  0
   -6.0286    3.7723  -20.8434 H   0  0  0  0  0  0
   -6.5851    4.0557  -23.2219 H   0  0  0  0  0  0
    5.5620    3.7869  -21.3800 H   0  0  0  0  0  0
    6.8222    2.7930  -20.5254 H   0  0  0  0  0  0
    6.1293    2.4055  -24.7398 H   0  0  0  0  0  0
    5.9535    3.9656  -23.8725 H   0  0  0  0  0  0
   -5.8689    4.0478  -25.6132 H   0  0  0  0  0  0
    2.0193    1.5688  -24.6081 H   0  0  0  0  0  0
    2.9462    1.1668  -22.7374 H   0  0  0  0  0  0
    4.0890    0.4665  -23.9455 H   0  0  0  0  0  0
    4.7028   -0.1692  -21.6023 H   0  0  0  0  0  0
    7.6287    2.5370  -22.7188 H   0  0  0  0  0  0
    4.0263    2.3727  -20.7884 H   0  0  0  0  0  0
    5.3131    1.3512  -19.9311 H   0  0  0  0  0  0
   -1.7806    3.4178  -26.6636 H   0  0  0  0  0  0
    0.3119    2.0990  -20.6191 H   0  0  0  0  0  0
    6.9895    0.3436  -21.8412 H   0  0  0  0  0  0
   -3.2778    3.5583  -28.0312 H   0  0  0  0  0  0
    4.7000    6.9580  -21.2860 N   0  0  1  0  0  0
    7.8420    8.0550  -20.4650 N   0  0  0  0  0  0
    8.5120    8.9290  -22.3840 N   0  0  0  0  0  0
    6.7550    8.4070  -21.2100 C   0  0  0  0  0  0
    3.7040    7.1640  -22.3940 C   0  0  0  0  0  0
    5.3200    8.2200  -20.7410 C   0  0  0  0  0  0
    8.9190    8.4030  -21.2250 C   0  0  0  0  0  0
    7.9840    7.4770  -19.2170 C   0  0  0  0  0  0
   10.2310    8.1900  -20.7380 C   0  0  0  0  0  0
    7.1490    8.9330  -22.3750 C   0  0  0  0  0  0
    9.2210    7.2670  -18.7440 C   0  0  0  0  0  0
   10.3620    7.6330  -19.5180 C   0  0  0  0  0  0
    4.2178    6.4668  -20.4537 H   0  0  0  0  0  0
    4.2062    7.6232  -23.2583 H   0  0  0  0  0  0
    2.9081    7.8409  -22.0500 H   0  0  0  0  0  0
    5.2950    8.1950  -19.6416 H   0  0  0  0  0  0
    4.7178    9.0863  -21.0521 H   0  0  0  0  0  0
    7.1059    7.2040  -18.6430 H   0  0  0  0  0  0
   11.0863    8.4721  -21.3412 H   0  0  0  0  0  0
    6.6019    9.3221  -23.2261 H   0  0  0  0  0  0
    9.3581    6.8168  -17.7675 H   0  0  0  0  0  0
   11.3493    7.4560  -19.1069 H   0  0  0  0  0  0
  1  2  2  0  0  0
  1  3  1  0  0  0
  1 34  1  0  0  0
  2  6  1  0  0  0
  2 35  1  0  0  0
  3  5  2  0  0  0
  3 27  1  0  0  0
  4  5  1  0  0  0
  4  6  2  0  0  0
  4 18  1  0  0  0
  5 24  1  0  0  0
  6 10  1  0  0  0
  7 10  2  0  0  0
  7 23  1  0  0  0
  7 33  1  0  0  0
  8 21  1  0  0  0
  8 22  1  0  0  0
  8 36  1  0  0  0
  8 37  1  0  0  0
  9 21  1  0  0  0
  9 31  1  0  0  0
  9 38  1  0  0  0
  9 39  1  0  0  0
 10 40  1  0  0  0
 11 12  1  0  0  0
 11 14  2  0  0  0
 11 15  1  0  0  0
 12 17  1  0  0  0
 12 28  2  0  0  0
 13 28  1  0  0  0
 13 29  2  0  0  0
 13 56  1  0  0  0
 14 29  1  0  0  0
 14 31  1  0  0  0
 15 30  2  0  0  0
 15 41  1  0  0  0
 16 17  2  0  0  0
 16 18  1  0  0  0
 16 30  1  0  0  0
 17 26  1  0  0  0
 18 23  2  0  0  0
 19 20  1  0  0  0
 19 31  1  0  0  0
 19 42  1  0  0  0
 19 43  1  0  0  0
 20 22  1  0  0  0
 20 32  1  0  0  0
 20 44  1  0  0  0
 21 32  1  0  0  0
 21 45  1  0  0  0
 22 46  1  0  0  0
 22 47  1  0  0  0
 23 48  1  0  0  0
 24 25  3  0  0  0
 25 49  1  0  0  0
 32 50  1  0  0  0
 33 51  1  0  0  0
 52 56  1  0  0  0
 52 57  1  0  0  0
 52 64  1  0  0  0
 53 55  1  0  0  0
 53 58  1  0  0  0
 53 59  1  0  0  0
 54 58  2  0  0  0
 54 61  1  0  0  0
 55 57  1  0  0  0
 55 61  2  0  0  0
 56 65  1  0  0  0
 56 66  1  0  0  0
 57 67  1  0  0  0
 57 68  1  0  0  0
 58 60  1  0  0  0
 59 62  2  0  0  0
 59 69  1  0  0  0
 60 63  2  0  0  0
 60 70  1  0  0  0
 61 71  1  0  0  0
 62 63  1  0  0  0
 62 72  1  0  0  0
 63 73  1  0  0  0
M  END
> <s_m_entry_id>
583

> <s_m_entry_name>
000000425.1

> <s_m_Source_Path>
/Users/zaksoul/Documents/3r_UNI/2nd_SEMESTER/BSC/FRAG_RECON/RESULTS/2

> <s_m_Source_File>
000000425.mol2

> <i_m_Source_File_Index>
1

$$$$
No_0_447
                    3D
 Schrodinger Suite 2022-4.
 73 80  0  0  1  0            999 V2000
   -5.3250    3.5190  -21.9370 C   0  0  0  0  0  0
   -5.5990    3.7120  -23.2700 C   0  0  0  0  0  0
   -4.0850    3.2620  -21.6040 C   0  0  0  0  0  0
   -3.2070    3.3920  -23.7750 C   0  0  0  0  0  0
   -3.0380    3.1440  -22.3560 C   0  0  0  0  0  0
   -4.5570    3.6600  -24.2870 C   0  0  0  0  0  0
   -3.8160    3.6860  -26.4900 C   0  0  0  0  0  0
    5.9440    2.9140  -21.2870 C   0  0  0  0  0  0
    5.7900    3.0640  -23.8360 C   0  0  0  0  0  0
   -4.8170    3.7910  -25.6200 C   0  0  0  0  0  0
    2.0070    3.6210  -23.8280 C   0  0  0  0  0  0
    1.1900    4.7300  -23.5200 C   0  0  0  0  0  0
    2.9950    5.9200  -22.8480 C   0  0  0  0  0  0
    3.4090    3.8070  -23.5230 C   0  0  0  0  0  0
    1.4530    2.5070  -24.4890 C   0  0  0  0  0  0
   -0.6710    3.3250  -24.3620 C   0  0  0  0  0  0
   -0.1380    4.5420  -23.7630 C   0  0  0  0  0  0
   -2.1260    3.3350  -24.7080 C   0  0  0  0  0  0
    4.0110    1.3070  -23.2420 C   0  0  0  0  0  0
    4.9510    0.9460  -22.1020 C   0  0  2  0  0  0
    6.5440    2.4840  -22.6440 C   0  0  2  0  0  0
    4.9430    1.9440  -20.9320 C   0  0  0  0  0  0
   -2.4600    3.4990  -26.1330 C   0  0  0  0  0  0
   -1.6910    2.7250  -21.7670 C   0  0  0  0  0  0
   -0.6580    2.3740  -21.2690 C   0  0  0  0  0  0
   -0.9750    5.5880  -23.4110 F   0  0  0  0  0  0
   -3.8670    3.0150  -20.2240 F   0  0  0  0  0  0
    1.6730    5.8870  -22.9880 N   0  0  0  0  0  0
    3.8880    4.9560  -23.0770 N   0  0  0  0  0  0
    0.1450    2.4210  -24.7860 N   0  0  0  0  0  0
    4.3240    2.7580  -23.7090 N   0  0  0  0  0  0
    6.3550    1.0110  -22.5930 N   0  0  1  0  0  0
   -3.9970    3.7050  -27.8780 O   0  0  0  0  0  0
   -6.1221    3.5822  -21.2051 H   0  0  0  0  0  0
   -6.6150    3.9108  -23.5913 H   0  0  0  0  0  0
    5.4746    3.9034  -21.3910 H   0  0  0  0  0  0
    6.7353    2.9201  -20.5229 H   0  0  0  0  0  0
    6.1778    2.6207  -24.7650 H   0  0  0  0  0  0
    5.9353    4.1539  -23.8663 H   0  0  0  0  0  0
   -5.8291    3.9798  -25.9594 H   0  0  0  0  0  0
    2.0882    1.6771  -24.7770 H   0  0  0  0  0  0
    2.9704    1.2525  -22.8897 H   0  0  0  0  0  0
    4.1664    0.6109  -24.0794 H   0  0  0  0  0  0
    4.7269   -0.0663  -21.7346 H   0  0  0  0  0  0
    7.6127    2.7393  -22.6965 H   0  0  0  0  0  0
    3.9606    2.4362  -20.8806 H   0  0  0  0  0  0
    5.2477    1.4274  -20.0099 H   0  0  0  0  0  0
   -1.6951    3.4799  -26.9009 H   0  0  0  0  0  0
    0.2510    2.0640  -20.8300 H   0  0  0  0  0  0
    7.0052    0.5095  -21.8915 H   0  0  0  0  0  0
   -3.1554    3.6159  -28.3097 H   0  0  0  0  0  0
    4.6850    7.0370  -21.4040 N   0  0  1  0  0  0
    7.8180    8.2990  -20.8220 N   0  0  0  0  0  0
    8.2130    9.3730  -22.7150 N   0  0  0  0  0  0
    6.6350    8.6260  -21.4140 C   0  0  0  0  0  0
    3.5610    7.2560  -22.3800 C   0  0  0  0  0  0
    5.2760    8.2940  -20.8170 C   0  0  0  0  0  0
    8.7790    8.7870  -21.6560 C   0  0  0  0  0  0
    8.1350    7.6340  -19.6510 C   0  0  0  0  0  0
   10.1490    8.6350  -21.3280 C   0  0  0  0  0  0
    6.8620    9.2730  -22.5630 C   0  0  0  0  0  0
    9.4280    7.4810  -19.3300 C   0  0  0  0  0  0
   10.4500    7.9930  -20.1830 C   0  0  0  0  0  0
    4.3308    6.4457  -20.5726 H   0  0  0  0  0  0
    3.9331    7.8212  -23.2473 H   0  0  0  0  0  0
    2.7654    7.8417  -21.8963 H   0  0  0  0  0  0
    5.3740    8.1780  -19.7275 H   0  0  0  0  0  0
    4.5877    9.1354  -20.9851 H   0  0  0  0  0  0
    7.3461    7.2490  -19.0150 H   0  0  0  0  0  0
   10.9113    9.0292  -21.9903 H   0  0  0  0  0  0
    6.2003    9.6878  -23.3147 H   0  0  0  0  0  0
    9.7019    6.9642  -18.4173 H   0  0  0  0  0  0
   11.4863    7.8580  -19.8949 H   0  0  0  0  0  0
  1  2  2  0  0  0
  1  3  1  0  0  0
  1 34  1  0  0  0
  2  6  1  0  0  0
  2 35  1  0  0  0
  3  5  2  0  0  0
  3 27  1  0  0  0
  4  5  1  0  0  0
  4  6  2  0  0  0
  4 18  1  0  0  0
  5 24  1  0  0  0
  6 10  1  0  0  0
  7 10  2  0  0  0
  7 23  1  0  0  0
  7 33  1  0  0  0
  8 21  1  0  0  0
  8 22  1  0  0  0
  8 36  1  0  0  0
  8 37  1  0  0  0
  9 21  1  0  0  0
  9 31  1  0  0  0
  9 38  1  0  0  0
  9 39  1  0  0  0
 10 40  1  0  0  0
 11 12  1  0  0  0
 11 14  2  0  0  0
 11 15  1  0  0  0
 12 17  1  0  0  0
 12 28  2  0  0  0
 13 28  1  0  0  0
 13 29  2  0  0  0
 13 56  1  0  0  0
 14 29  1  0  0  0
 14 31  1  0  0  0
 15 30  2  0  0  0
 15 41  1  0  0  0
 16 17  2  0  0  0
 16 18  1  0  0  0
 16 30  1  0  0  0
 17 26  1  0  0  0
 18 23  2  0  0  0
 19 20  1  0  0  0
 19 31  1  0  0  0
 19 42  1  0  0  0
 19 43  1  0  0  0
 20 22  1  0  0  0
 20 32  1  0  0  0
 20 44  1  0  0  0
 21 32  1  0  0  0
 21 45  1  0  0  0
 22 46  1  0  0  0
 22 47  1  0  0  0
 23 48  1  0  0  0
 24 25  3  0  0  0
 25 49  1  0  0  0
 32 50  1  0  0  0
 33 51  1  0  0  0
 52 56  1  0  0  0
 52 57  1  0  0  0
 52 64  1  0  0  0
 53 55  1  0  0  0
 53 58  1  0  0  0
 53 59  1  0  0  0
 54 58  2  0  0  0
 54 61  1  0  0  0
 55 57  1  0  0  0
 55 61  2  0  0  0
 56 65  1  0  0  0
 56 66  1  0  0  0
 57 67  1  0  0  0
 57 68  1  0  0  0
 58 60  1  0  0  0
 59 62  2  0  0  0
 59 69  1  0  0  0
 60 63  2  0  0  0
 60 70  1  0  0  0
 61 71  1  0  0  0
 62 63  1  0  0  0
 62 72  1  0  0  0
 63 73  1  0  0  0
M  END
> <s_m_entry_id>
584

> <s_m_entry_name>
000000426.1

> <s_m_Source_Path>
/Users/zaksoul/Documents/3r_UNI/2nd_SEMESTER/BSC/FRAG_RECON/RESULTS/2

> <s_m_Source_File>
000000426.mol2

> <i_m_Source_File_Index>
1

$$$$
No_0_448
                    3D
 Schrodinger Suite 2022-4.
 72 79  0  0  1  0            999 V2000
   -5.4000    3.5390  -22.0430 C   0  0  0  0  0  0
   -5.6590    3.7450  -23.3770 C   0  0  0  0  0  0
   -4.1640    3.2760  -21.7000 C   0  0  0  0  0  0
   -3.2630    3.4240  -23.8600 C   0  0  0  0  0  0
   -3.1090    3.1610  -22.4420 C   0  0  0  0  0  0
   -4.6070    3.6990  -24.3840 C   0  0  0  0  0  0
   -3.8430    3.7440  -26.5780 C   0  0  0  0  0  0
    5.8610    2.9000  -21.2830 C   0  0  0  0  0  0
    5.7330    3.0740  -23.8310 C   0  0  0  0  0  0
   -4.8520    3.8440  -25.7180 C   0  0  0  0  0  0
    1.9510    3.6400  -23.8570 C   0  0  0  0  0  0
    1.1340    4.7480  -23.5480 C   0  0  0  0  0  0
    2.9350    5.9270  -22.8460 C   0  0  0  0  0  0
    3.3510    3.8200  -23.5360 C   0  0  0  0  0  0
    1.4030    2.5330  -24.5340 C   0  0  0  0  0  0
   -0.7210    3.3550  -24.4220 C   0  0  0  0  0  0
   -0.1910    4.5660  -23.8060 C   0  0  0  0  0  0
   -2.1730    3.3730  -24.7820 C   0  0  0  0  0  0
    3.9440    1.3160  -23.2720 C   0  0  0  0  0  0
    4.8710    0.9420  -22.1260 C   0  0  2  0  0  0
    6.4740    2.4810  -22.6370 C   0  0  2  0  0  0
    4.8530    1.9290  -20.9470 C   0  0  0  0  0  0
   -2.4920    3.5510  -26.2090 C   0  0  0  0  0  0
   -1.7700    2.7350  -21.8430 C   0  0  0  0  0  0
   -0.7430    2.3760  -21.3380 C   0  0  0  0  0  0
   -1.0300    5.6110  -23.4520 F   0  0  0  0  0  0
   -3.9600    3.0150  -20.3200 F   0  0  0  0  0  0
    1.6150    5.8990  -23.0000 N   0  0  0  0  0  0
    3.8280    4.9630  -23.0740 N   0  0  0  0  0  0
    0.0970    2.4540  -24.8450 N   0  0  0  0  0  0
    4.2650    2.7700  -23.7220 N   0  0  0  0  0  0
    6.2800    1.0080  -22.6020 N   0  0  1  0  0  0
   -4.0100    3.7760  -27.9690 O   0  0  0  0  0  0
   -6.2045    3.5973  -21.3188 H   0  0  0  0  0  0
   -6.6712    3.9487  -23.7071 H   0  0  0  0  0  0
    5.3946    3.8913  -21.3819 H   0  0  0  0  0  0
    6.6438    2.8970  -20.5102 H   0  0  0  0  0  0
    6.1295    2.6391  -24.7603 H   0  0  0  0  0  0
    5.8813    4.1638  -23.8502 H   0  0  0  0  0  0
   -5.8602    4.0376  -26.0661 H   0  0  0  0  0  0
    2.0396    1.7046  -24.8232 H   0  0  0  0  0  0
    2.8997    1.2605  -22.9310 H   0  0  0  0  0  0
    4.1066    0.6273  -24.1142 H   0  0  0  0  0  0
    4.6409   -0.0733  -21.7707 H   0  0  0  0  0  0
    7.5437    2.7343  -22.6764 H   0  0  0  0  0  0
    3.8716    2.4237  -20.9006 H   0  0  0  0  0  0
    5.1475    1.4025  -20.0272 H   0  0  0  0  0  0
   -1.7196    3.5370  -26.9694 H   0  0  0  0  0  0
    0.1607    2.0601  -20.8922 H   0  0  0  0  0  0
    6.9225    0.4992  -21.8986 H   0  0  0  0  0  0
   -3.1636    3.6899  -28.3917 H   0  0  0  0  0  0
    3.8300    7.2120  -20.8890 N   0  0  1  0  0  0
    6.8840    7.8430  -20.2950 N   0  0  0  0  0  0
    7.7220    9.4050  -21.6110 N   0  0  0  0  0  0
    9.3310    6.6460  -19.8050 N   0  0  0  0  0  0
    5.8820    8.6520  -20.7260 C   0  0  0  0  0  0
    3.4990    7.2580  -22.3590 C   0  0  0  0  0  0
    4.4260    8.4760  -20.3280 C   0  0  0  0  0  0
    8.0130    8.3370  -20.8570 C   0  0  0  0  0  0
    6.9410    6.7410  -19.4850 C   0  0  0  0  0  0
    6.3800    9.6040  -21.5290 C   0  0  0  0  0  0
    9.2430    7.7130  -20.5910 C   0  0  0  0  0  0
    8.1470    6.1800  -19.2650 C   0  0  0  0  0  0
    2.9305    7.0191  -20.3233 H   0  0  0  0  0  0
    4.4066    7.5019  -22.9307 H   0  0  0  0  0  0
    2.7650    8.0559  -22.5450 H   0  0  0  0  0  0
    4.3450    8.4620  -19.2311 H   0  0  0  0  0  0
    3.8430    9.3410  -20.6770 H   0  0  0  0  0  0
    6.0333    6.3461  -19.0431 H   0  0  0  0  0  0
    5.9200   10.4250  -22.0670 H   0  0  0  0  0  0
   10.1357    8.1258  -21.0468 H   0  0  0  0  0  0
    8.1510    5.3097  -18.6188 H   0  0  0  0  0  0
  1  2  2  0  0  0
  1  3  1  0  0  0
  1 34  1  0  0  0
  2  6  1  0  0  0
  2 35  1  0  0  0
  3  5  2  0  0  0
  3 27  1  0  0  0
  4  5  1  0  0  0
  4  6  2  0  0  0
  4 18  1  0  0  0
  5 24  1  0  0  0
  6 10  1  0  0  0
  7 10  2  0  0  0
  7 23  1  0  0  0
  7 33  1  0  0  0
  8 21  1  0  0  0
  8 22  1  0  0  0
  8 36  1  0  0  0
  8 37  1  0  0  0
  9 21  1  0  0  0
  9 31  1  0  0  0
  9 38  1  0  0  0
  9 39  1  0  0  0
 10 40  1  0  0  0
 11 12  1  0  0  0
 11 14  2  0  0  0
 11 15  1  0  0  0
 12 17  1  0  0  0
 12 28  2  0  0  0
 13 28  1  0  0  0
 13 29  2  0  0  0
 13 57  1  0  0  0
 14 29  1  0  0  0
 14 31  1  0  0  0
 15 30  2  0  0  0
 15 41  1  0  0  0
 16 17  2  0  0  0
 16 18  1  0  0  0
 16 30  1  0  0  0
 17 26  1  0  0  0
 18 23  2  0  0  0
 19 20  1  0  0  0
 19 31  1  0  0  0
 19 42  1  0  0  0
 19 43  1  0  0  0
 20 22  1  0  0  0
 20 32  1  0  0  0
 20 44  1  0  0  0
 21 32  1  0  0  0
 21 45  1  0  0  0
 22 46  1  0  0  0
 22 47  1  0  0  0
 23 48  1  0  0  0
 24 25  3  0  0  0
 25 49  1  0  0  0
 32 50  1  0  0  0
 33 51  1  0  0  0
 52 57  1  0  0  0
 52 58  1  0  0  0
 52 64  1  0  0  0
 53 56  1  0  0  0
 53 59  1  0  0  0
 53 60  1  0  0  0
 54 59  2  0  0  0
 54 61  1  0  0  0
 55 62  2  0  0  0
 55 63  1  0  0  0
 56 58  1  0  0  0
 56 61  2  0  0  0
 57 65  1  0  0  0
 57 66  1  0  0  0
 58 67  1  0  0  0
 58 68  1  0  0  0
 59 62  1  0  0  0
 60 63  2  0  0  0
 60 69  1  0  0  0
 61 70  1  0  0  0
 62 71  1  0  0  0
 63 72  1  0  0  0
M  END
> <s_m_entry_id>
585

> <s_m_entry_name>
000000427.1

> <s_m_Source_Path>
/Users/zaksoul/Documents/3r_UNI/2nd_SEMESTER/BSC/FRAG_RECON/RESULTS/2

> <s_m_Source_File>
000000427.mol2

> <i_m_Source_File_Index>
1

$$$$
No_0_449
                    3D
 Schrodinger Suite 2022-4.
 72 79  0  0  1  0            999 V2000
   -5.0970    3.5410  -22.0910 C   0  0  0  0  0  0
   -5.3490    3.7450  -23.4260 C   0  0  0  0  0  0
   -3.8640    3.2700  -21.7420 C   0  0  0  0  0  0
   -2.9540    3.4050  -23.8990 C   0  0  0  0  0  0
   -2.8080    3.1450  -22.4800 C   0  0  0  0  0  0
   -4.2940    3.6890  -24.4290 C   0  0  0  0  0  0
   -3.5210    3.7210  -26.6210 C   0  0  0  0  0  0
    6.1560    2.8190  -21.2840 C   0  0  0  0  0  0
    6.0390    2.9870  -23.8330 C   0  0  0  0  0  0
   -4.5330    3.8310  -25.7650 C   0  0  0  0  0  0
    2.2620    3.5810  -23.8760 C   0  0  0  0  0  0
    1.4520    4.6970  -23.5730 C   0  0  0  0  0  0
    3.2590    5.8640  -22.8680 C   0  0  0  0  0  0
    3.6620    3.7520  -23.5500 C   0  0  0  0  0  0
    1.7080    2.4770  -24.5520 C   0  0  0  0  0  0
   -0.4110    3.3150  -24.4510 C   0  0  0  0  0  0
    0.1260    4.5240  -23.8360 C   0  0  0  0  0  0
   -1.8600    3.3430  -24.8170 C   0  0  0  0  0  0
    4.2350    1.2440  -23.2760 C   0  0  0  0  0  0
    5.1550    0.8670  -22.1260 C   0  0  2  0  0  0
    6.7710    2.3920  -22.6350 C   0  0  2  0  0  0
    5.1390    1.8570  -20.9490 C   0  0  0  0  0  0
   -2.1720    3.5190  -26.2460 C   0  0  0  0  0  0
   -1.4730    2.7100  -21.8750 C   0  0  0  0  0  0
   -0.4510    2.3450  -21.3640 C   0  0  0  0  0  0
   -0.7060    5.5760  -23.4890 F   0  0  0  0  0  0
   -3.6680    3.0120  -20.3610 F   0  0  0  0  0  0
    1.9390    5.8450  -23.0270 N   0  0  0  0  0  0
    4.1460    4.8930  -23.0900 N   0  0  0  0  0  0
    0.4030    2.4060  -24.8680 N   0  0  0  0  0  0
    4.5690    2.6950  -23.7290 N   0  0  0  0  0  0
    6.5660    0.9210  -22.5960 N   0  0  1  0  0  0
   -3.6820    3.7510  -28.0110 O   0  0  0  0  0  0
   -5.9036    3.6073  -21.3698 H   0  0  0  0  0  0
   -6.3582    3.9557  -23.7611 H   0  0  0  0  0  0
    5.6980    3.8136  -21.3889 H   0  0  0  0  0  0
    6.9363    2.8129  -20.5087 H   0  0  0  0  0  0
    6.4353    2.5463  -24.7597 H   0  0  0  0  0  0
    6.1964    4.0755  -23.8552 H   0  0  0  0  0  0
   -5.5382    4.0318  -26.1175 H   0  0  0  0  0  0
    2.3387    1.6424  -24.8362 H   0  0  0  0  0  0
    3.1886    1.1976  -22.9400 H   0  0  0  0  0  0
    4.3955    0.5517  -24.1156 H   0  0  0  0  0  0
    4.9150   -0.1454  -21.7690 H   0  0  0  0  0  0
    7.8427    2.6372  -22.6713 H   0  0  0  0  0  0
    4.1615    2.3599  -20.9086 H   0  0  0  0  0  0
    5.4257    1.3311  -20.0264 H   0  0  0  0  0  0
   -1.3967    3.4969  -27.0033 H   0  0  0  0  0  0
    0.4488    2.0241  -20.9141 H   0  0  0  0  0  0
    7.2014    0.4086  -21.8889 H   0  0  0  0  0  0
   -2.8350    3.6560  -28.4306 H   0  0  0  0  0  0
    4.4220    7.0670  -21.0020 N   0  0  1  0  0  0
    7.4960    7.8530  -20.9040 N   0  0  0  0  0  0
    8.0020    9.5540  -22.2170 N   0  0  0  0  0  0
   10.0510    6.7880  -20.9470 N   0  0  0  0  0  0
    6.3920    8.6230  -21.0860 C   0  0  0  0  0  0
    3.8310    7.1920  -22.3830 C   0  0  0  0  0  0
    5.0430    8.3240  -20.4540 C   0  0  0  0  0  0
    8.4790    8.4580  -21.6130 C   0  0  0  0  0  0
    7.7550    6.7040  -20.2070 C   0  0  0  0  0  0
    6.6880    9.6590  -21.8850 C   0  0  0  0  0  0
    9.7680    7.8990  -21.6180 C   0  0  0  0  0  0
    9.0090    6.2090  -20.2470 C   0  0  0  0  0  0
    3.6510    6.7760  -20.3040 H   0  0  0  0  0  0
    4.6073    7.5341  -23.0832 H   0  0  0  0  0  0
    3.0359    7.9521  -22.3730 H   0  0  0  0  0  0
    5.1620    8.2290  -19.3646 H   0  0  0  0  0  0
    4.3633    9.1716  -20.6259 H   0  0  0  0  0  0
    6.9639    6.2210  -19.6449 H   0  0  0  0  0  0
    6.0968   10.4833  -22.2671 H   0  0  0  0  0  0
   10.5420    8.4000  -22.1880 H   0  0  0  0  0  0
    9.1741    5.2984  -19.6826 H   0  0  0  0  0  0
  1  2  2  0  0  0
  1  3  1  0  0  0
  1 34  1  0  0  0
  2  6  1  0  0  0
  2 35  1  0  0  0
  3  5  2  0  0  0
  3 27  1  0  0  0
  4  5  1  0  0  0
  4  6  2  0  0  0
  4 18  1  0  0  0
  5 24  1  0  0  0
  6 10  1  0  0  0
  7 10  2  0  0  0
  7 23  1  0  0  0
  7 33  1  0  0  0
  8 21  1  0  0  0
  8 22  1  0  0  0
  8 36  1  0  0  0
  8 37  1  0  0  0
  9 21  1  0  0  0
  9 31  1  0  0  0
  9 38  1  0  0  0
  9 39  1  0  0  0
 10 40  1  0  0  0
 11 12  1  0  0  0
 11 14  2  0  0  0
 11 15  1  0  0  0
 12 17  1  0  0  0
 12 28  2  0  0  0
 13 28  1  0  0  0
 13 29  2  0  0  0
 13 57  1  0  0  0
 14 29  1  0  0  0
 14 31  1  0  0  0
 15 30  2  0  0  0
 15 41  1  0  0  0
 16 17  2  0  0  0
 16 18  1  0  0  0
 16 30  1  0  0  0
 17 26  1  0  0  0
 18 23  2  0  0  0
 19 20  1  0  0  0
 19 31  1  0  0  0
 19 42  1  0  0  0
 19 43  1  0  0  0
 20 22  1  0  0  0
 20 32  1  0  0  0
 20 44  1  0  0  0
 21 32  1  0  0  0
 21 45  1  0  0  0
 22 46  1  0  0  0
 22 47  1  0  0  0
 23 48  1  0  0  0
 24 25  3  0  0  0
 25 49  1  0  0  0
 32 50  1  0  0  0
 33 51  1  0  0  0
 52 57  1  0  0  0
 52 58  1  0  0  0
 52 64  1  0  0  0
 53 56  1  0  0  0
 53 59  1  0  0  0
 53 60  1  0  0  0
 54 59  2  0  0  0
 54 61  1  0  0  0
 55 62  2  0  0  0
 55 63  1  0  0  0
 56 58  1  0  0  0
 56 61  2  0  0  0
 57 65  1  0  0  0
 57 66  1  0  0  0
 58 67  1  0  0  0
 58 68  1  0  0  0
 59 62  1  0  0  0
 60 63  2  0  0  0
 60 69  1  0  0  0
 61 70  1  0  0  0
 62 71  1  0  0  0
 63 72  1  0  0  0
M  END
> <s_m_entry_id>
586

> <s_m_entry_name>
000000428.1

> <s_m_Source_Path>
/Users/zaksoul/Documents/3r_UNI/2nd_SEMESTER/BSC/FRAG_RECON/RESULTS/2

> <s_m_Source_File>
000000428.mol2

> <i_m_Source_File_Index>
1

$$$$
No_0_450
                    3D
 Schrodinger Suite 2022-4.
 72 79  0  0  1  0            999 V2000
   -5.2730    3.5240  -21.8800 C   0  0  0  0  0  0
   -5.5200    3.7120  -23.2200 C   0  0  0  0  0  0
   -4.0410    3.2680  -21.5220 C   0  0  0  0  0  0
   -3.1190    3.3880  -23.6750 C   0  0  0  0  0  0
   -2.9790    3.1450  -22.2520 C   0  0  0  0  0  0
   -4.4580    3.6550  -24.2150 C   0  0  0  0  0  0
   -3.6710    3.6710  -26.4020 C   0  0  0  0  0  0
    5.9800    2.9110  -20.9990 C   0  0  0  0  0  0
    5.8780    3.0510  -23.5500 C   0  0  0  0  0  0
   -4.6900    3.7810  -25.5540 C   0  0  0  0  0  0
    2.0950    3.6110  -23.6220 C   0  0  0  0  0  0
    1.2740    4.7230  -23.3360 C   0  0  0  0  0  0
    3.0660    5.9130  -22.6320 C   0  0  0  0  0  0
    3.4920    3.7980  -23.2890 C   0  0  0  0  0  0
    1.5550    2.4950  -24.2890 C   0  0  0  0  0  0
   -0.5710    3.3160  -24.2100 C   0  0  0  0  0  0
   -0.0490    4.5350  -23.6050 C   0  0  0  0  0  0
   -2.0190    3.3260  -24.5850 C   0  0  0  0  0  0
    4.0850    1.2980  -22.9860 C   0  0  0  0  0  0
    5.0010    0.9410  -21.8260 C   0  0  2  0  0  0
    6.6070    2.4750  -22.3410 C   0  0  2  0  0  0
    4.9700    1.9430  -20.6600 C   0  0  0  0  0  0
   -2.3240    3.4850  -26.0170 C   0  0  0  0  0  0
   -1.6440    2.7280  -21.6340 C   0  0  0  0  0  0
   -0.6220    2.3770  -21.1130 C   0  0  0  0  0  0
   -0.8920    5.5830  -23.2730 F   0  0  0  0  0  0
   -3.8510    3.0260  -20.1370 F   0  0  0  0  0  0
    1.7470    5.8810  -22.7990 N   0  0  0  0  0  0
    3.9630    4.9470  -22.8380 N   0  0  0  0  0  0
    0.2530    2.4100  -24.6130 N   0  0  0  0  0  0
    4.4090    2.7460  -23.4520 N   0  0  0  0  0  0
    6.4150    1.0020  -22.2880 N   0  0  1  0  0  0
   -3.8250    3.6850  -27.7940 O   0  0  0  0  0  0
   -6.0852    3.5913  -21.1652 H   0  0  0  0  0  0
   -6.5291    3.9108  -23.5624 H   0  0  0  0  0  0
    5.5136    3.9003  -21.1161 H   0  0  0  0  0  0
    6.7553    2.9201  -20.2187 H   0  0  0  0  0  0
    6.2837    2.6039  -24.4695 H   0  0  0  0  0  0
    6.0244    4.1407  -23.5823 H   0  0  0  0  0  0
   -5.6948    3.9697  -25.9144 H   0  0  0  0  0  0
    2.1955    1.6638  -24.5610 H   0  0  0  0  0  0
    3.0373    1.2455  -22.6549 H   0  0  0  0  0  0
    4.2566    0.5986  -23.8176 H   0  0  0  0  0  0
    4.7680   -0.0698  -21.4598 H   0  0  0  0  0  0
    7.6767    2.7293  -22.3733 H   0  0  0  0  0  0
    3.9879    2.4376  -20.6307 H   0  0  0  0  0  0
    5.2557    1.4292  -19.7303 H   0  0  0  0  0  0
   -1.5438    3.4619  -26.7692 H   0  0  0  0  0  0
    0.2782    2.0689  -20.6549 H   0  0  0  0  0  0
    7.0505    0.5034  -21.5711 H   0  0  0  0  0  0
   -2.9745    3.5940  -28.2074 H   0  0  0  0  0  0
    4.3360    7.1150  -20.8350 N   0  0  1  0  0  0
    7.3730    8.0290  -20.9750 N   0  0  0  0  0  0
    7.6950    9.7840  -22.2740 N   0  0  0  0  0  0
    9.9550    7.0760  -21.2660 N   0  0  0  0  0  0
    6.2270    8.7560  -21.0400 C   0  0  0  0  0  0
    3.6240    7.2510  -22.1570 C   0  0  0  0  0  0
    4.9500    8.3830  -20.3050 C   0  0  0  0  0  0
    8.2660    8.6940  -21.7470 C   0  0  0  0  0  0
    7.7370    6.8740  -20.3370 C   0  0  0  0  0  0
    6.4110    9.8240  -21.8300 C   0  0  0  0  0  0
    9.5710    8.1920  -21.8770 C   0  0  0  0  0  0
    9.0010    6.4350  -20.4980 C   0  0  0  0  0  0
    3.6399    6.7720  -20.0839 H   0  0  0  0  0  0
    4.3222    7.6451  -22.9102 H   0  0  0  0  0  0
    2.8020    7.9750  -22.0570 H   0  0  0  0  0  0
    5.1650    8.2640  -19.2328 H   0  0  0  0  0  0
    4.2242    9.2048  -20.3930 H   0  0  0  0  0  0
    7.0170    6.3430  -19.7250 H   0  0  0  0  0  0
    5.7560   10.6320  -22.1350 H   0  0  0  0  0  0
   10.2721    8.7400  -22.4960 H   0  0  0  0  0  0
    9.2511    5.5175  -19.9777 H   0  0  0  0  0  0
  1  2  2  0  0  0
  1  3  1  0  0  0
  1 34  1  0  0  0
  2  6  1  0  0  0
  2 35  1  0  0  0
  3  5  2  0  0  0
  3 27  1  0  0  0
  4  5  1  0  0  0
  4  6  2  0  0  0
  4 18  1  0  0  0
  5 24  1  0  0  0
  6 10  1  0  0  0
  7 10  2  0  0  0
  7 23  1  0  0  0
  7 33  1  0  0  0
  8 21  1  0  0  0
  8 22  1  0  0  0
  8 36  1  0  0  0
  8 37  1  0  0  0
  9 21  1  0  0  0
  9 31  1  0  0  0
  9 38  1  0  0  0
  9 39  1  0  0  0
 10 40  1  0  0  0
 11 12  1  0  0  0
 11 14  2  0  0  0
 11 15  1  0  0  0
 12 17  1  0  0  0
 12 28  2  0  0  0
 13 28  1  0  0  0
 13 29  2  0  0  0
 13 57  1  0  0  0
 14 29  1  0  0  0
 14 31  1  0  0  0
 15 30  2  0  0  0
 15 41  1  0  0  0
 16 17  2  0  0  0
 16 18  1  0  0  0
 16 30  1  0  0  0
 17 26  1  0  0  0
 18 23  2  0  0  0
 19 20  1  0  0  0
 19 31  1  0  0  0
 19 42  1  0  0  0
 19 43  1  0  0  0
 20 22  1  0  0  0
 20 32  1  0  0  0
 20 44  1  0  0  0
 21 32  1  0  0  0
 21 45  1  0  0  0
 22 46  1  0  0  0
 22 47  1  0  0  0
 23 48  1  0  0  0
 24 25  3  0  0  0
 25 49  1  0  0  0
 32 50  1  0  0  0
 33 51  1  0  0  0
 52 57  1  0  0  0
 52 58  1  0  0  0
 52 64  1  0  0  0
 53 56  1  0  0  0
 53 59  1  0  0  0
 53 60  1  0  0  0
 54 59  2  0  0  0
 54 61  1  0  0  0
 55 62  2  0  0  0
 55 63  1  0  0  0
 56 58  1  0  0  0
 56 61  2  0  0  0
 57 65  1  0  0  0
 57 66  1  0  0  0
 58 67  1  0  0  0
 58 68  1  0  0  0
 59 62  1  0  0  0
 60 63  2  0  0  0
 60 69  1  0  0  0
 61 70  1  0  0  0
 62 71  1  0  0  0
 63 72  1  0  0  0
M  END
> <s_m_entry_id>
587

> <s_m_entry_name>
000000429.1

> <s_m_Source_Path>
/Users/zaksoul/Documents/3r_UNI/2nd_SEMESTER/BSC/FRAG_RECON/RESULTS/2

> <s_m_Source_File>
000000429.mol2

> <i_m_Source_File_Index>
1

$$$$
No_0_451
                    3D
 Schrodinger Suite 2022-4.
 70 76  0  0  1  0            999 V2000
   -5.0550    3.4790  -21.6310 C   0  0  0  0  0  0
   -5.3710    3.6440  -22.9590 C   0  0  0  0  0  0
   -3.8060    3.2260  -21.3330 C   0  0  0  0  0  0
   -2.9970    3.3080  -23.5330 C   0  0  0  0  0  0
   -2.7830    3.0900  -22.1160 C   0  0  0  0  0  0
   -4.3630    3.5680  -24.0070 C   0  0  0  0  0  0
   -3.6930    3.5450  -26.2330 C   0  0  0  0  0  0
    6.2280    2.8620  -21.3310 C   0  0  0  0  0  0
    5.9930    2.9570  -23.8750 C   0  0  0  0  0  0
   -4.6650    3.6720  -25.3340 C   0  0  0  0  0  0
    2.2120    3.5230  -23.7580 C   0  0  0  0  0  0
    1.4080    4.6410  -23.4480 C   0  0  0  0  0  0
    3.2360    5.8400  -22.8600 C   0  0  0  0  0  0
    3.6240    3.7130  -23.5020 C   0  0  0  0  0  0
    1.6360    2.3970  -24.3770 C   0  0  0  0  0  0
   -0.4820    3.2220  -24.2000 C   0  0  0  0  0  0
    0.0730    4.4510  -23.6440 C   0  0  0  0  0  0
   -1.9470    3.2290  -24.4990 C   0  0  0  0  0  0
    4.2300    1.2180  -23.1870 C   0  0  0  0  0  0
    5.2060    0.8790  -22.0700 C   0  0  2  0  0  0
    6.7830    2.4020  -22.6960 C   0  0  2  0  0  0
    5.2370    1.9020  -20.9220 C   0  0  0  0  0  0
   -2.3270    3.3630  -25.9160 C   0  0  0  0  0  0
   -1.4190    2.6810  -21.5610 C   0  0  0  0  0  0
   -0.3710    2.3380  -21.0890 C   0  0  0  0  0  0
   -0.7510    5.5060  -23.2880 F   0  0  0  0  0  0
   -3.5430    3.0090  -19.9560 F   0  0  0  0  0  0
    1.9100    5.8070  -22.9570 N   0  0  0  0  0  0
    4.1190    4.8700  -23.0960 N   0  0  0  0  0  0
    0.3190    2.3080  -24.6300 N   0  0  0  0  0  0
    4.5310    2.6580  -23.6950 N   0  0  0  0  0  0
    6.5930    0.9300  -22.6080 N   0  0  1  0  0  0
   -3.9180    3.5350  -27.6150 O   0  0  0  0  0  0
   -5.8279    3.5593  -20.8752 H   0  0  0  0  0  0
   -6.3966    3.8387  -23.2510 H   0  0  0  0  0  0
    5.7576    3.8502  -21.4410 H   0  0  0  0  0  0
    7.0431    2.8822  -20.5926 H   0  0  0  0  0  0
    6.3494    2.4936  -24.8068 H   0  0  0  0  0  0
    6.1383    4.0458  -23.9335 H   0  0  0  0  0  0
   -5.6870    3.8557  -25.6452 H   0  0  0  0  0  0
    2.2604    1.5598  -24.6671 H   0  0  0  0  0  0
    3.2012    1.1726  -22.8003 H   0  0  0  0  0  0
    4.3572    0.5040  -24.0141 H   0  0  0  0  0  0
    4.9920   -0.1252  -21.6754 H   0  0  0  0  0  0
    7.8499    2.6531  -22.7888 H   0  0  0  0  0  0
    4.2581    2.3985  -20.8503 H   0  0  0  0  0  0
    5.5700    1.4035  -19.9997 H   0  0  0  0  0  0
   -1.5864    3.3259  -26.7067 H   0  0  0  0  0  0
    0.5513    2.0352  -20.6733 H   0  0  0  0  0  0
    7.2653    0.4426  -21.9175 H   0  0  0  0  0  0
   -3.0907    3.4351  -28.0712 H   0  0  0  0  0  0
   10.7110    8.4320  -21.4390 O   0  0  0  0  0  0
    4.5340    7.0760  -21.1180 N   0  0  1  0  0  0
    8.5910    8.3060  -22.3330 N   0  0  0  0  0  0
    6.7010    8.3570  -20.8450 C   0  0  0  0  0  0
    3.8180    7.1850  -22.4390 C   0  0  0  0  0  0
    5.1920    8.3480  -20.6390 C   0  0  0  0  0  0
    8.8840    8.4630  -19.9470 C   0  0  0  0  0  0
    7.5340    8.4420  -19.7530 C   0  0  0  0  0  0
    7.2610    8.2920  -22.0970 C   0  0  0  0  0  0
    9.3730    8.3980  -21.2380 C   0  0  0  0  0  0
    3.8326    6.7838  -20.3505 H   0  0  0  0  0  0
    8.9419    8.2480  -23.2997 H   0  0  0  0  0  0
    4.5212    7.5371  -23.2082 H   0  0  0  0  0  0
    3.0087    7.9253  -22.3560 H   0  0  0  0  0  0
    4.9681    8.4960  -19.5723 H   0  0  0  0  0  0
    4.7470    9.2080  -21.1610 H   0  0  0  0  0  0
    9.5526    8.5310  -19.0965 H   0  0  0  0  0  0
    7.1160    8.4900  -18.7540 H   0  0  0  0  0  0
    6.5631    8.2270  -22.9239 H   0  0  0  0  0  0
  1  2  2  0  0  0
  1  3  1  0  0  0
  1 34  1  0  0  0
  2  6  1  0  0  0
  2 35  1  0  0  0
  3  5  2  0  0  0
  3 27  1  0  0  0
  4  5  1  0  0  0
  4  6  2  0  0  0
  4 18  1  0  0  0
  5 24  1  0  0  0
  6 10  1  0  0  0
  7 10  2  0  0  0
  7 23  1  0  0  0
  7 33  1  0  0  0
  8 21  1  0  0  0
  8 22  1  0  0  0
  8 36  1  0  0  0
  8 37  1  0  0  0
  9 21  1  0  0  0
  9 31  1  0  0  0
  9 38  1  0  0  0
  9 39  1  0  0  0
 10 40  1  0  0  0
 11 12  1  0  0  0
 11 14  2  0  0  0
 11 15  1  0  0  0
 12 17  1  0  0  0
 12 28  2  0  0  0
 13 28  1  0  0  0
 13 29  2  0  0  0
 13 56  1  0  0  0
 14 29  1  0  0  0
 14 31  1  0  0  0
 15 30  2  0  0  0
 15 41  1  0  0  0
 16 17  2  0  0  0
 16 18  1  0  0  0
 16 30  1  0  0  0
 17 26  1  0  0  0
 18 23  2  0  0  0
 19 20  1  0  0  0
 19 31  1  0  0  0
 19 42  1  0  0  0
 19 43  1  0  0  0
 20 22  1  0  0  0
 20 32  1  0  0  0
 20 44  1  0  0  0
 21 32  1  0  0  0
 21 45  1  0  0  0
 22 46  1  0  0  0
 22 47  1  0  0  0
 23 48  1  0  0  0
 24 25  3  0  0  0
 25 49  1  0  0  0
 32 50  1  0  0  0
 33 51  1  0  0  0
 52 61  2  0  0  0
 53 56  1  0  0  0
 53 57  1  0  0  0
 53 62  1  0  0  0
 54 60  1  0  0  0
 54 61  1  0  0  0
 54 63  1  0  0  0
 55 57  1  0  0  0
 55 59  1  0  0  0
 55 60  2  0  0  0
 56 64  1  0  0  0
 56 65  1  0  0  0
 57 66  1  0  0  0
 57 67  1  0  0  0
 58 59  2  0  0  0
 58 61  1  0  0  0
 58 68  1  0  0  0
 59 69  1  0  0  0
 60 70  1  0  0  0
M  END
> <s_m_entry_id>
588

> <s_m_entry_name>
000000430.1

> <s_m_Source_Path>
/Users/zaksoul/Documents/3r_UNI/2nd_SEMESTER/BSC/FRAG_RECON/RESULTS/2

> <s_m_Source_File>
000000430.mol2

> <i_m_Source_File_Index>
1

$$$$
No_0_452
                    3D
 Schrodinger Suite 2022-4.
 70 76  0  0  1  0            999 V2000
   -5.2820    3.4880  -21.8170 C   0  0  0  0  0  0
   -5.5530    3.6870  -23.1500 C   0  0  0  0  0  0
   -4.0430    3.2280  -21.4830 C   0  0  0  0  0  0
   -3.1600    3.3660  -23.6510 C   0  0  0  0  0  0
   -2.9940    3.1110  -22.2330 C   0  0  0  0  0  0
   -4.5090    3.6370  -24.1650 C   0  0  0  0  0  0
   -3.7630    3.6720  -26.3660 C   0  0  0  0  0  0
    5.9850    2.8650  -21.1470 C   0  0  0  0  0  0
    5.8370    3.0260  -23.6950 C   0  0  0  0  0  0
   -4.7650    3.7750  -25.4980 C   0  0  0  0  0  0
    2.0540    3.5880  -23.6920 C   0  0  0  0  0  0
    1.2380    4.6970  -23.3820 C   0  0  0  0  0  0
    3.0440    5.8810  -22.7010 C   0  0  0  0  0  0
    3.4560    3.7710  -23.3830 C   0  0  0  0  0  0
    1.5010    2.4770  -24.3590 C   0  0  0  0  0  0
   -0.6230    3.2970  -24.2340 C   0  0  0  0  0  0
   -0.0890    4.5120  -23.6280 C   0  0  0  0  0  0
   -2.0780    3.3110  -24.5820 C   0  0  0  0  0  0
    4.0540    1.2690  -23.1120 C   0  0  0  0  0  0
    4.9910    0.9020  -21.9720 C   0  0  2  0  0  0
    6.5870    2.4400  -22.5040 C   0  0  2  0  0  0
    4.9820    1.8950  -20.7970 C   0  0  0  0  0  0
   -2.4080    3.4820  -26.0070 C   0  0  0  0  0  0
   -1.6490    2.6890  -21.6430 C   0  0  0  0  0  0
   -0.6180    2.3340  -21.1440 C   0  0  0  0  0  0
   -0.9260    5.5570  -23.2730 F   0  0  0  0  0  0
   -3.8280    2.9750  -20.1030 F   0  0  0  0  0  0
    1.7220    5.8500  -22.8440 N   0  0  0  0  0  0
    3.9360    4.9170  -22.9320 N   0  0  0  0  0  0
    0.1930    2.3950  -24.6590 N   0  0  0  0  0  0
    4.3700    2.7210  -23.5720 N   0  0  0  0  0  0
    6.3960    0.9670  -22.4600 N   0  0  1  0  0  0
   -3.9420    3.6970  -27.7550 O   0  0  0  0  0  0
   -6.0802    3.5482  -21.0861 H   0  0  0  0  0  0
   -6.5683    3.8878  -23.4724 H   0  0  0  0  0  0
    5.5175    3.8556  -21.2480 H   0  0  0  0  0  0
    6.7748    2.8670  -20.3814 H   0  0  0  0  0  0
    6.2258    2.5857  -24.6251 H   0  0  0  0  0  0
    5.9833    4.1159  -23.7202 H   0  0  0  0  0  0
   -5.7764    3.9656  -25.8382 H   0  0  0  0  0  0
    2.1357    1.6475  -24.6492 H   0  0  0  0  0  0
    3.0127    1.2135  -22.7619 H   0  0  0  0  0  0
    4.2105    0.5763  -23.9521 H   0  0  0  0  0  0
    4.7650   -0.1118  -21.6099 H   0  0  0  0  0  0
    7.6561    2.6942  -22.5534 H   0  0  0  0  0  0
    4.0002    2.3884  -20.7465 H   0  0  0  0  0  0
    5.2839    1.3729  -19.8771 H   0  0  0  0  0  0
   -1.6421    3.4649  -26.7739 H   0  0  0  0  0  0
    0.2900    2.0210  -20.7050 H   0  0  0  0  0  0
    7.0450    0.4623  -21.7597 H   0  0  0  0  0  0
   -3.0991    3.6090  -28.1843 H   0  0  0  0  0  0
   10.4970    8.8330  -22.1110 O   0  0  0  0  0  0
    4.5230    7.0260  -21.0430 N   0  0  1  0  0  0
    8.2750    8.6500  -22.6960 N   0  0  0  0  0  0
    6.6340    8.4210  -20.9510 C   0  0  0  0  0  0
    3.6100    7.2150  -22.2260 C   0  0  0  0  0  0
    5.1770    8.2870  -20.5300 C   0  0  0  0  0  0
    8.9190    8.5900  -20.3750 C   0  0  0  0  0  0
    7.6180    8.4550  -19.9900 C   0  0  0  0  0  0
    6.9990    8.5200  -22.2710 C   0  0  0  0  0  0
    9.2090    8.6870  -21.7230 C   0  0  0  0  0  0
    3.9630    6.6110  -20.2180 H   0  0  0  0  0  0
    8.4780    8.7120  -23.7039 H   0  0  0  0  0  0
    4.1670    7.6900  -23.0470 H   0  0  0  0  0  0
    2.7834    7.8847  -21.9461 H   0  0  0  0  0  0
    5.1100    8.3120  -19.4323 H   0  0  0  0  0  0
    4.6118    9.1613  -20.8851 H   0  0  0  0  0  0
    9.7050    8.6190  -19.6290 H   0  0  0  0  0  0
    7.3549    8.3750  -18.9415 H   0  0  0  0  0  0
    6.1887    8.4880  -22.9903 H   0  0  0  0  0  0
  1  2  2  0  0  0
  1  3  1  0  0  0
  1 34  1  0  0  0
  2  6  1  0  0  0
  2 35  1  0  0  0
  3  5  2  0  0  0
  3 27  1  0  0  0
  4  5  1  0  0  0
  4  6  2  0  0  0
  4 18  1  0  0  0
  5 24  1  0  0  0
  6 10  1  0  0  0
  7 10  2  0  0  0
  7 23  1  0  0  0
  7 33  1  0  0  0
  8 21  1  0  0  0
  8 22  1  0  0  0
  8 36  1  0  0  0
  8 37  1  0  0  0
  9 21  1  0  0  0
  9 31  1  0  0  0
  9 38  1  0  0  0
  9 39  1  0  0  0
 10 40  1  0  0  0
 11 12  1  0  0  0
 11 14  2  0  0  0
 11 15  1  0  0  0
 12 17  1  0  0  0
 12 28  2  0  0  0
 13 28  1  0  0  0
 13 29  2  0  0  0
 13 56  1  0  0  0
 14 29  1  0  0  0
 14 31  1  0  0  0
 15 30  2  0  0  0
 15 41  1  0  0  0
 16 17  2  0  0  0
 16 18  1  0  0  0
 16 30  1  0  0  0
 17 26  1  0  0  0
 18 23  2  0  0  0
 19 20  1  0  0  0
 19 31  1  0  0  0
 19 42  1  0  0  0
 19 43  1  0  0  0
 20 22  1  0  0  0
 20 32  1  0  0  0
 20 44  1  0  0  0
 21 32  1  0  0  0
 21 45  1  0  0  0
 22 46  1  0  0  0
 22 47  1  0  0  0
 23 48  1  0  0  0
 24 25  3  0  0  0
 25 49  1  0  0  0
 32 50  1  0  0  0
 33 51  1  0  0  0
 52 61  2  0  0  0
 53 56  1  0  0  0
 53 57  1  0  0  0
 53 62  1  0  0  0
 54 60  1  0  0  0
 54 61  1  0  0  0
 54 63  1  0  0  0
 55 57  1  0  0  0
 55 59  1  0  0  0
 55 60  2  0  0  0
 56 64  1  0  0  0
 56 65  1  0  0  0
 57 66  1  0  0  0
 57 67  1  0  0  0
 58 59  2  0  0  0
 58 61  1  0  0  0
 58 68  1  0  0  0
 59 69  1  0  0  0
 60 70  1  0  0  0
M  END
> <s_m_entry_id>
589

> <s_m_entry_name>
000000431.1

> <s_m_Source_Path>
/Users/zaksoul/Documents/3r_UNI/2nd_SEMESTER/BSC/FRAG_RECON/RESULTS/2

> <s_m_Source_File>
000000431.mol2

> <i_m_Source_File_Index>
1

$$$$
No_0_453
                    3D
 Schrodinger Suite 2022-4.
 70 76  0  0  1  0            999 V2000
   -5.2040    3.5550  -21.8170 C   0  0  0  0  0  0
   -5.4740    3.7500  -23.1500 C   0  0  0  0  0  0
   -3.9650    3.2970  -21.4820 C   0  0  0  0  0  0
   -3.0810    3.4310  -23.6500 C   0  0  0  0  0  0
   -2.9160    3.1800  -22.2310 C   0  0  0  0  0  0
   -4.4300    3.6990  -24.1650 C   0  0  0  0  0  0
   -3.6830    3.7290  -26.3660 C   0  0  0  0  0  0
    6.0640    2.9500  -21.1400 C   0  0  0  0  0  0
    5.9160    3.1040  -23.6880 C   0  0  0  0  0  0
   -4.6860    3.8330  -25.4990 C   0  0  0  0  0  0
    2.1330    3.6600  -23.6890 C   0  0  0  0  0  0
    1.3150    4.7690  -23.3820 C   0  0  0  0  0  0
    3.1190    5.9580  -22.7030 C   0  0  0  0  0  0
    3.5340    3.8470  -23.3800 C   0  0  0  0  0  0
    1.5810    2.5470  -24.3530 C   0  0  0  0  0  0
   -0.5440    3.3650  -24.2310 C   0  0  0  0  0  0
   -0.0120    4.5810  -23.6280 C   0  0  0  0  0  0
   -1.9980    3.3760  -24.5800 C   0  0  0  0  0  0
    4.1360    1.3460  -23.1020 C   0  0  0  0  0  0
    5.0730    0.9830  -21.9600 C   0  0  2  0  0  0
    6.6670    2.5230  -22.4960 C   0  0  2  0  0  0
    5.0610    1.9790  -20.7880 C   0  0  0  0  0  0
   -2.3280    3.5420  -26.0060 C   0  0  0  0  0  0
   -1.5700    2.7610  -21.6400 C   0  0  0  0  0  0
   -0.5380    2.4090  -21.1390 C   0  0  0  0  0  0
   -0.8500    5.6270  -23.2760 F   0  0  0  0  0  0
   -3.7500    3.0480  -20.1020 F   0  0  0  0  0  0
    1.7970    5.9250  -22.8470 N   0  0  0  0  0  0
    4.0120    4.9940  -22.9310 N   0  0  0  0  0  0
    0.2740    2.4620  -24.6540 N   0  0  0  0  0  0
    4.4500    2.7970  -23.5650 N   0  0  0  0  0  0
    6.4780    1.0490  -22.4470 N   0  0  1  0  0  0
   -3.8610    3.7510  -27.7550 O   0  0  0  0  0  0
   -6.0031    3.6162  -21.0871 H   0  0  0  0  0  0
   -6.4892    3.9486  -23.4740 H   0  0  0  0  0  0
    5.5945    3.9394  -21.2430 H   0  0  0  0  0  0
    6.8528    2.9550  -20.3734 H   0  0  0  0  0  0
    6.3055    2.6630  -24.6174 H   0  0  0  0  0  0
    6.0613    4.1940  -23.7163 H   0  0  0  0  0  0
   -5.6975    4.0216  -25.8402 H   0  0  0  0  0  0
    2.2173    1.7180  -24.6410 H   0  0  0  0  0  0
    3.0943    1.2905  -22.7531 H   0  0  0  0  0  0
    4.2935    0.6512  -23.9402 H   0  0  0  0  0  0
    4.8480   -0.0302  -21.5957 H   0  0  0  0  0  0
    7.7360    2.7774  -22.5455 H   0  0  0  0  0  0
    4.0787    2.4716  -20.7385 H   0  0  0  0  0  0
    5.3638    1.4602  -19.8665 H   0  0  0  0  0  0
   -1.5611    3.5239  -26.7719 H   0  0  0  0  0  0
    0.3704    2.0989  -20.6988 H   0  0  0  0  0  0
    7.1272    0.5463  -21.7454 H   0  0  0  0  0  0
   -3.0177    3.6629  -28.1836 H   0  0  0  0  0  0
   10.4960    9.1510  -22.6790 O   0  0  0  0  0  0
    4.7060    7.0960  -21.1440 N   0  0  1  0  0  0
    8.2370    8.9090  -23.0670 N   0  0  0  0  0  0
    6.7700    8.5610  -21.1910 C   0  0  0  0  0  0
    3.6830    7.2940  -22.2310 C   0  0  0  0  0  0
    5.3630    8.3610  -20.6450 C   0  0  0  0  0  0
    9.0920    8.7910  -20.8170 C   0  0  0  0  0  0
    7.8370    8.5970  -20.3220 C   0  0  0  0  0  0
    7.0100    8.7190  -22.5330 C   0  0  0  0  0  0
    9.2540    8.9450  -22.1810 C   0  0  0  0  0  0
    4.2379    6.6329  -20.2879 H   0  0  0  0  0  0
    8.3440    9.0130  -24.0861 H   0  0  0  0  0  0
    4.1469    7.8159  -23.0809 H   0  0  0  0  0  0
    2.8642    7.9239  -21.8531 H   0  0  0  0  0  0
    5.3960    8.3460  -19.5456 H   0  0  0  0  0  0
    4.7401    9.2268  -20.9139 H   0  0  0  0  0  0
    9.9420    8.8230  -20.1450 H   0  0  0  0  0  0
    7.6740    8.4710  -19.2578 H   0  0  0  0  0  0
    6.1385    8.6830  -23.1766 H   0  0  0  0  0  0
  1  2  2  0  0  0
  1  3  1  0  0  0
  1 34  1  0  0  0
  2  6  1  0  0  0
  2 35  1  0  0  0
  3  5  2  0  0  0
  3 27  1  0  0  0
  4  5  1  0  0  0
  4  6  2  0  0  0
  4 18  1  0  0  0
  5 24  1  0  0  0
  6 10  1  0  0  0
  7 10  2  0  0  0
  7 23  1  0  0  0
  7 33  1  0  0  0
  8 21  1  0  0  0
  8 22  1  0  0  0
  8 36  1  0  0  0
  8 37  1  0  0  0
  9 21  1  0  0  0
  9 31  1  0  0  0
  9 38  1  0  0  0
  9 39  1  0  0  0
 10 40  1  0  0  0
 11 12  1  0  0  0
 11 14  2  0  0  0
 11 15  1  0  0  0
 12 17  1  0  0  0
 12 28  2  0  0  0
 13 28  1  0  0  0
 13 29  2  0  0  0
 13 56  1  0  0  0
 14 29  1  0  0  0
 14 31  1  0  0  0
 15 30  2  0  0  0
 15 41  1  0  0  0
 16 17  2  0  0  0
 16 18  1  0  0  0
 16 30  1  0  0  0
 17 26  1  0  0  0
 18 23  2  0  0  0
 19 20  1  0  0  0
 19 31  1  0  0  0
 19 42  1  0  0  0
 19 43  1  0  0  0
 20 22  1  0  0  0
 20 32  1  0  0  0
 20 44  1  0  0  0
 21 32  1  0  0  0
 21 45  1  0  0  0
 22 46  1  0  0  0
 22 47  1  0  0  0
 23 48  1  0  0  0
 24 25  3  0  0  0
 25 49  1  0  0  0
 32 50  1  0  0  0
 33 51  1  0  0  0
 52 61  2  0  0  0
 53 56  1  0  0  0
 53 57  1  0  0  0
 53 62  1  0  0  0
 54 60  1  0  0  0
 54 61  1  0  0  0
 54 63  1  0  0  0
 55 57  1  0  0  0
 55 59  1  0  0  0
 55 60  2  0  0  0
 56 64  1  0  0  0
 56 65  1  0  0  0
 57 66  1  0  0  0
 57 67  1  0  0  0
 58 59  2  0  0  0
 58 61  1  0  0  0
 58 68  1  0  0  0
 59 69  1  0  0  0
 60 70  1  0  0  0
M  END
> <s_m_entry_id>
590

> <s_m_entry_name>
000000432.1

> <s_m_Source_Path>
/Users/zaksoul/Documents/3r_UNI/2nd_SEMESTER/BSC/FRAG_RECON/RESULTS/2

> <s_m_Source_File>
000000432.mol2

> <i_m_Source_File_Index>
1

$$$$
No_0_454
                    3D
 Schrodinger Suite 2022-4.
 74 80  0  0  1  0            999 V2000
   -5.3740    3.5930  -21.9500 C   0  0  0  0  0  0
   -5.6510    3.7300  -23.2900 C   0  0  0  0  0  0
   -4.1340    3.3520  -21.6090 C   0  0  0  0  0  0
   -3.2590    3.3950  -23.7840 C   0  0  0  0  0  0
   -3.0870    3.2050  -22.3570 C   0  0  0  0  0  0
   -4.6100    3.6380  -24.3050 C   0  0  0  0  0  0
   -3.8710    3.5750  -26.5080 C   0  0  0  0  0  0
    5.8970    3.0400  -21.2910 C   0  0  0  0  0  0
    5.7390    3.0840  -23.8430 C   0  0  0  0  0  0
   -4.8710    3.7140  -25.6420 C   0  0  0  0  0  0
    1.9550    3.6320  -23.8530 C   0  0  0  0  0  0
    1.1360    4.7520  -23.5910 C   0  0  0  0  0  0
    2.9390    5.9720  -22.9710 C   0  0  0  0  0  0
    3.3570    3.8340  -23.5580 C   0  0  0  0  0  0
    1.4030    2.4910  -24.4670 C   0  0  0  0  0  0
   -0.7230    3.3090  -24.3720 C   0  0  0  0  0  0
   -0.1920    4.5510  -23.8240 C   0  0  0  0  0  0
   -2.1790    3.3020  -24.7150 C   0  0  0  0  0  0
    3.9650    1.3490  -23.1750 C   0  0  0  0  0  0
    4.9070    1.0380  -22.0220 C   0  0  2  0  0  0
    6.4960    2.5560  -22.6300 C   0  0  2  0  0  0
    4.8980    2.0830  -20.8950 C   0  0  0  0  0  0
   -2.5150    3.4060  -26.1460 C   0  0  0  0  0  0
   -1.7390    2.8150  -21.7530 C   0  0  0  0  0  0
   -0.7040    2.4860  -21.2420 C   0  0  0  0  0  0
   -1.0310    5.6090  -23.5130 F   0  0  0  0  0  0
   -3.9130    3.1630  -20.2200 F   0  0  0  0  0  0
    1.6170    5.9300  -23.1080 N   0  0  0  0  0  0
    3.8340    5.0010  -23.1600 N   0  0  0  0  0  0
    0.0940    2.3900  -24.7590 N   0  0  0  0  0  0
    4.2740    2.7800  -23.7020 N   0  0  0  0  0  0
    6.3100    1.0860  -22.5180 N   0  0  1  0  0  0
   -4.0550    3.5360  -27.8960 O   0  0  0  0  0  0
   -6.1707    3.6843  -21.2206 H   0  0  0  0  0  0
   -6.6681    3.9127  -23.6173 H   0  0  0  0  0  0
    5.4255    4.0233  -21.4354 H   0  0  0  0  0  0
    6.6893    3.0794  -20.5290 H   0  0  0  0  0  0
    6.1263    2.6039  -24.7538 H   0  0  0  0  0  0
    5.8823    4.1720  -23.9187 H   0  0  0  0  0  0
   -5.8842    3.8855  -25.9871 H   0  0  0  0  0  0
    2.0398    1.6516  -24.7217 H   0  0  0  0  0  0
    2.9248    1.3066  -22.8198 H   0  0  0  0  0  0
    4.1204    0.6194  -23.9834 H   0  0  0  0  0  0
    4.6849    0.0408  -21.6142 H   0  0  0  0  0  0
    7.5642    2.8104  -22.6946 H   0  0  0  0  0  0
    3.9150    2.5755  -20.8627 H   0  0  0  0  0  0
    5.2046    1.6049  -19.9530 H   0  0  0  0  0  0
   -1.7508    3.3568  -26.9132 H   0  0  0  0  0  0
    0.2064    2.1969  -20.7918 H   0  0  0  0  0  0
    6.9627    0.6149  -21.7980 H   0  0  0  0  0  0
   -3.2135    3.4312  -28.3242 H   0  0  0  0  0  0
    4.1140    7.2640  -21.1820 N   0  0  1  0  0  0
    7.0370    8.9400  -20.9070 N   0  0  0  0  0  0
    7.0510   10.3030  -22.6170 N   0  0  0  0  0  0
    4.5370    8.5860  -20.5970 C   0  0  0  0  0  0
    5.7540    9.1800  -21.2860 C   0  0  0  0  0  0
    3.5020    7.3280  -22.5580 C   0  0  0  0  0  0
    7.4890    8.0860  -19.8000 C   0  0  0  0  0  0
    7.8140    9.6630  -21.7520 C   0  0  3  0  0  0
    5.7470   10.0060  -22.3310 C   0  0  0  0  0  0
    9.3270    9.7390  -21.7180 C   0  0  0  0  0  0
    4.9726    6.6135  -21.2601 H   0  0  0  0  0  0
    7.4803   10.8974  -23.3404 H   0  0  0  0  0  0
    4.7490    8.4600  -19.5250 H   0  0  0  0  0  0
    3.6999    9.2971  -20.6570 H   0  0  0  0  0  0
    4.2660    7.6430  -23.2840 H   0  0  0  0  0  0
    2.6967    8.0773  -22.5670 H   0  0  0  0  0  0
    8.5878    8.0990  -19.7510 H   0  0  0  0  0  0
    7.0759    8.4631  -18.8528 H   0  0  0  0  0  0
    7.1430    7.0551  -19.9660 H   0  0  0  0  0  0
    4.9502   10.4349  -22.9278 H   0  0  0  0  0  0
    9.6790   10.4010  -22.5229 H   0  0  0  0  0  0
    9.6530   10.1380  -20.7461 H   0  0  0  0  0  0
    9.7480    8.7329  -21.8610 H   0  0  0  0  0  0
  1  2  2  0  0  0
  1  3  1  0  0  0
  1 34  1  0  0  0
  2  6  1  0  0  0
  2 35  1  0  0  0
  3  5  2  0  0  0
  3 27  1  0  0  0
  4  5  1  0  0  0
  4  6  2  0  0  0
  4 18  1  0  0  0
  5 24  1  0  0  0
  6 10  1  0  0  0
  7 10  2  0  0  0
  7 23  1  0  0  0
  7 33  1  0  0  0
  8 21  1  0  0  0
  8 22  1  0  0  0
  8 36  1  0  0  0
  8 37  1  0  0  0
  9 21  1  0  0  0
  9 31  1  0  0  0
  9 38  1  0  0  0
  9 39  1  0  0  0
 10 40  1  0  0  0
 11 12  2  0  0  0
 11 14  1  0  0  0
 11 15  1  0  0  0
 12 17  1  0  0  0
 12 28  1  0  0  0
 13 28  2  0  0  0
 13 29  1  0  0  0
 13 57  1  0  0  0
 14 29  2  0  0  0
 14 31  1  0  0  0
 15 30  2  0  0  0
 15 41  1  0  0  0
 16 17  2  0  0  0
 16 18  1  0  0  0
 16 30  1  0  0  0
 17 26  1  0  0  0
 18 23  2  0  0  0
 19 20  1  0  0  0
 19 31  1  0  0  0
 19 42  1  0  0  0
 19 43  1  0  0  0
 20 22  1  0  0  0
 20 32  1  0  0  0
 20 44  1  0  0  0
 21 32  1  0  0  0
 21 45  1  0  0  0
 22 46  1  0  0  0
 22 47  1  0  0  0
 23 48  1  0  0  0
 24 25  3  0  0  0
 25 49  1  0  0  0
 32 50  1  0  0  0
 33 51  1  0  0  0
 52 55  1  0  0  0
 52 57  1  0  0  0
 52 62  1  0  0  0
 53 56  1  0  0  0
 53 58  1  0  0  0
 53 59  1  0  0  0
 54 59  1  0  0  0
 54 60  1  0  0  0
 54 63  1  0  0  0
 55 56  1  0  0  0
 55 64  1  0  0  0
 55 65  1  0  0  0
 56 60  2  0  0  0
 57 66  1  0  0  0
 57 67  1  0  0  0
 58 68  1  0  0  0
 58 69  1  0  0  0
 58 70  1  0  0  0
 59 61  1  0  0  0
 60 71  1  0  0  0
 61 72  1  0  0  0
 61 73  1  0  0  0
 61 74  1  0  0  0
M  END
> <s_m_entry_id>
591

> <s_m_entry_name>
000000433.1

> <s_m_Source_Path>
/Users/zaksoul/Documents/3r_UNI/2nd_SEMESTER/BSC/FRAG_RECON/RESULTS/2

> <s_m_Source_File>
000000433.mol2

> <i_m_Source_File_Index>
1

$$$$
No_0_455
                    3D
 Schrodinger Suite 2022-4.
 74 80  0  0  1  0            999 V2000
   -5.2510    3.4610  -21.7140 C   0  0  0  0  0  0
   -5.5610    3.6600  -23.0380 C   0  0  0  0  0  0
   -3.9990    3.2230  -21.4140 C   0  0  0  0  0  0
   -3.1770    3.3880  -23.6040 C   0  0  0  0  0  0
   -2.9690    3.1300  -22.1920 C   0  0  0  0  0  0
   -4.5440    3.6350  -24.0810 C   0  0  0  0  0  0
   -3.8570    3.6940  -26.3000 C   0  0  0  0  0  0
    6.0400    3.0530  -21.3440 C   0  0  0  0  0  0
    5.8210    3.2220  -23.8860 C   0  0  0  0  0  0
   -4.8380    3.7740  -25.4060 C   0  0  0  0  0  0
    2.0290    3.7110  -23.7810 C   0  0  0  0  0  0
    1.2010    4.8030  -23.4440 C   0  0  0  0  0  0
    3.0000    6.0190  -22.8050 C   0  0  0  0  0  0
    3.4350    3.9200  -23.5080 C   0  0  0  0  0  0
    1.4800    2.5930  -24.4380 C   0  0  0  0  0  0
   -0.6550    3.3710  -24.2530 C   0  0  0  0  0  0
   -0.1290    4.5930  -23.6560 C   0  0  0  0  0  0
   -2.1180    3.3580  -24.5630 C   0  0  0  0  0  0
    4.0880    1.4290  -23.2650 C   0  0  0  0  0  0
    5.0620    1.0750  -22.1520 C   0  0  2  0  0  0
    6.6140    2.6460  -22.7180 C   0  0  2  0  0  0
    5.0640    2.0620  -20.9730 C   0  0  0  0  0  0
   -2.4900    3.5290  -25.9780 C   0  0  0  0  0  0
   -1.6010    2.7310  -21.6400 C   0  0  0  0  0  0
   -0.5500    2.3940  -21.1700 C   0  0  0  0  0  0
   -0.9760    5.6200  -23.2740 F   0  0  0  0  0  0
   -3.7430    2.9680  -20.0420 F   0  0  0  0  0  0
    1.6760    5.9630  -22.9130 N   0  0  0  0  0  0
    3.9040    5.0730  -23.0640 N   0  0  0  0  0  0
    0.1660    2.4860  -24.7050 N   0  0  0  0  0  0
    4.3640    2.8890  -23.7260 N   0  0  0  0  0  0
    6.4520    1.1690  -22.6760 N   0  0  1  0  0  0
   -4.0720    3.7220  -27.6840 O   0  0  0  0  0  0
   -6.0308    3.5032  -20.9623 H   0  0  0  0  0  0
   -6.5879    3.8427  -23.3331 H   0  0  0  0  0  0
    5.5507    4.0347  -21.4267 H   0  0  0  0  0  0
    6.8484    3.0671  -20.5982 H   0  0  0  0  0  0
    6.1934    2.7941  -24.8285 H   0  0  0  0  0  0
    5.9461    4.3146  -23.9102 H   0  0  0  0  0  0
   -5.8613    3.9467  -25.7193 H   0  0  0  0  0  0
    2.1223    1.7771  -24.7491 H   0  0  0  0  0  0
    3.0573    1.3523  -22.8885 H   0  0  0  0  0  0
    4.2354    0.7426  -24.1119 H   0  0  0  0  0  0
    4.8644    0.0556  -21.7890 H   0  0  0  0  0  0
    7.6764    2.9207  -22.7948 H   0  0  0  0  0  0
    4.0748    2.5364  -20.8933 H   0  0  0  0  0  0
    5.4010    1.5424  -20.0639 H   0  0  0  0  0  0
   -1.7438    3.5300  -26.7643 H   0  0  0  0  0  0
    0.3752    2.0973  -20.7564 H   0  0  0  0  0  0
    7.1291    0.6738  -21.9957 H   0  0  0  0  0  0
   -3.2396    3.6517  -28.1363 H   0  0  0  0  0  0
    3.9370    7.3270  -20.8810 N   0  0  1  0  0  0
    7.5980    9.9040  -22.1520 N   0  0  0  0  0  0
    8.2540    8.3880  -20.4000 N   0  0  0  0  0  0
    3.5530    7.3610  -22.3380 C   0  0  0  0  0  0
    4.5190    8.6010  -20.3190 C   0  0  0  0  0  0
    5.9500    8.8690  -20.7800 C   0  0  0  0  0  0
    6.3150    9.7080  -21.8080 C   0  0  0  0  0  0
    8.4930    9.2290  -21.4160 C   0  0  0  0  0  0
    6.9570    8.2290  -20.1060 C   0  0  0  0  0  0
    5.2910   10.4900  -22.6100 C   0  0  0  0  0  0
    9.9460    9.4510  -21.7720 C   0  0  0  0  0  0
    3.0643    7.1091  -20.2832 H   0  0  0  0  0  0
    4.4339    7.6240  -22.9420 H   0  0  0  0  0  0
    2.7978    8.1442  -22.5000 H   0  0  0  0  0  0
    4.4910    8.5630  -19.2200 H   0  0  0  0  0  0
    3.8802    9.4507  -20.6019 H   0  0  0  0  0  0
    6.6612    7.5665  -19.3006 H   0  0  0  0  0  0
    4.2806   10.2531  -22.2452 H   0  0  0  0  0  0
    5.4791   11.5677  -22.4949 H   0  0  0  0  0  0
    5.3700   10.2161  -23.6724 H   0  0  0  0  0  0
   10.5829    8.8501  -21.1061 H   0  0  0  0  0  0
   10.1190    9.1479  -22.8152 H   0  0  0  0  0  0
   10.1950   10.5158  -21.6530 H   0  0  0  0  0  0
  1  2  2  0  0  0
  1  3  1  0  0  0
  1 34  1  0  0  0
  2  6  1  0  0  0
  2 35  1  0  0  0
  3  5  2  0  0  0
  3 27  1  0  0  0
  4  5  1  0  0  0
  4  6  2  0  0  0
  4 18  1  0  0  0
  5 24  1  0  0  0
  6 10  1  0  0  0
  7 10  2  0  0  0
  7 23  1  0  0  0
  7 33  1  0  0  0
  8 21  1  0  0  0
  8 22  1  0  0  0
  8 36  1  0  0  0
  8 37  1  0  0  0
  9 21  1  0  0  0
  9 31  1  0  0  0
  9 38  1  0  0  0
  9 39  1  0  0  0
 10 40  1  0  0  0
 11 12  1  0  0  0
 11 14  2  0  0  0
 11 15  1  0  0  0
 12 17  1  0  0  0
 12 28  2  0  0  0
 13 28  1  0  0  0
 13 29  2  0  0  0
 13 55  1  0  0  0
 14 29  1  0  0  0
 14 31  1  0  0  0
 15 30  2  0  0  0
 15 41  1  0  0  0
 16 17  2  0  0  0
 16 18  1  0  0  0
 16 30  1  0  0  0
 17 26  1  0  0  0
 18 23  2  0  0  0
 19 20  1  0  0  0
 19 31  1  0  0  0
 19 42  1  0  0  0
 19 43  1  0  0  0
 20 22  1  0  0  0
 20 32  1  0  0  0
 20 44  1  0  0  0
 21 32  1  0  0  0
 21 45  1  0  0  0
 22 46  1  0  0  0
 22 47  1  0  0  0
 23 48  1  0  0  0
 24 25  3  0  0  0
 25 49  1  0  0  0
 32 50  1  0  0  0
 33 51  1  0  0  0
 52 55  1  0  0  0
 52 56  1  0  0  0
 52 63  1  0  0  0
 53 58  2  0  0  0
 53 59  1  0  0  0
 54 59  2  0  0  0
 54 60  1  0  0  0
 55 64  1  0  0  0
 55 65  1  0  0  0
 56 57  1  0  0  0
 56 66  1  0  0  0
 56 67  1  0  0  0
 57 58  1  0  0  0
 57 60  2  0  0  0
 58 61  1  0  0  0
 59 62  1  0  0  0
 60 68  1  0  0  0
 61 69  1  0  0  0
 61 70  1  0  0  0
 61 71  1  0  0  0
 62 72  1  0  0  0
 62 73  1  0  0  0
 62 74  1  0  0  0
M  END
> <s_m_entry_id>
592

> <s_m_entry_name>
000000434.1

> <s_m_Source_Path>
/Users/zaksoul/Documents/3r_UNI/2nd_SEMESTER/BSC/FRAG_RECON/RESULTS/2

> <s_m_Source_File>
000000434.mol2

> <i_m_Source_File_Index>
1

$$$$
No_0_456
                    3D
 Schrodinger Suite 2022-4.
 73 79  0  0  1  0            999 V2000
   -5.3300    3.4790  -21.8760 C   0  0  0  0  0  0
   -5.5960    3.6450  -23.2140 C   0  0  0  0  0  0
   -4.0920    3.2290  -21.5310 C   0  0  0  0  0  0
   -3.2010    3.3150  -23.6990 C   0  0  0  0  0  0
   -3.0400    3.0960  -22.2750 C   0  0  0  0  0  0
   -4.5490    3.5720  -24.2240 C   0  0  0  0  0  0
   -3.7950    3.5530  -26.4230 C   0  0  0  0  0  0
    5.9360    2.8910  -21.1490 C   0  0  0  0  0  0
    5.7960    2.9880  -23.7010 C   0  0  0  0  0  0
   -4.8000    3.6760  -25.5610 C   0  0  0  0  0  0
    2.0130    3.5440  -23.7260 C   0  0  0  0  0  0
    1.1940    4.6590  -23.4460 C   0  0  0  0  0  0
    2.9950    5.8630  -22.7880 C   0  0  0  0  0  0
    3.4130    3.7370  -23.4170 C   0  0  0  0  0  0
    1.4630    2.4170  -24.3670 C   0  0  0  0  0  0
   -0.6620    3.2360  -24.2700 C   0  0  0  0  0  0
   -0.1320    4.4660  -23.6930 C   0  0  0  0  0  0
   -2.1150    3.2390  -24.6240 C   0  0  0  0  0  0
    4.0140    1.2440  -23.0820 C   0  0  0  0  0  0
    4.9470    0.9060  -21.9290 C   0  0  2  0  0  0
    6.5430    2.4340  -22.4940 C   0  0  2  0  0  0
    4.9320    1.9280  -20.7800 C   0  0  0  0  0  0
   -2.4410    3.3740  -26.0540 C   0  0  0  0  0  0
   -1.6970    2.6900  -21.6690 C   0  0  0  0  0  0
   -0.6670    2.3490  -21.1580 C   0  0  0  0  0  0
   -0.9720    5.5190  -23.3670 F   0  0  0  0  0  0
   -3.8810    3.0110  -20.1450 F   0  0  0  0  0  0
    1.6740    5.8270  -22.9350 N   0  0  0  0  0  0
    3.8890    4.8950  -22.9920 N   0  0  0  0  0  0
    0.1570    2.3250  -24.6700 N   0  0  0  0  0  0
    4.3290    2.6840  -23.5760 N   0  0  0  0  0  0
    6.3540    0.9620  -22.4130 N   0  0  1  0  0  0
   -3.9680    3.5440  -27.8120 O   0  0  0  0  0  0
   -6.1313    3.5563  -21.1500 H   0  0  0  0  0  0
   -6.6104    3.8356  -23.5451 H   0  0  0  0  0  0
    5.4668    3.8778  -21.2761 H   0  0  0  0  0  0
    6.7227    2.9132  -20.3805 H   0  0  0  0  0  0
    6.1888    2.5265  -24.6190 H   0  0  0  0  0  0
    5.9413    4.0771  -23.7535 H   0  0  0  0  0  0
   -5.8101    3.8576  -25.9101 H   0  0  0  0  0  0
    2.1003    1.5820  -24.6350 H   0  0  0  0  0  0
    2.9713    1.1956  -22.7351 H   0  0  0  0  0  0
    4.1745    0.5304  -23.9036 H   0  0  0  0  0  0
    4.7209   -0.0991  -21.5435 H   0  0  0  0  0  0
    7.6122    2.6874  -22.5455 H   0  0  0  0  0  0
    3.9496    2.4217  -20.7447 H   0  0  0  0  0  0
    5.2318    1.4294  -19.8464 H   0  0  0  0  0  0
   -1.6724    3.3399  -26.8176 H   0  0  0  0  0  0
    0.2400    2.0490  -20.7080 H   0  0  0  0  0  0
    7.0009    0.4744  -21.6987 H   0  0  0  0  0  0
   -3.1238    3.4460  -28.2366 H   0  0  0  0  0  0
    3.8890    7.1910  -20.8750 N   0  0  1  0  0  0
    7.4160    9.9200  -22.2100 N   0  0  0  0  0  0
    8.1780    8.4950  -20.4000 N   0  0  0  0  0  0
    5.1560   10.2100  -22.6250 N   0  0  0  0  0  0
    9.6670    9.6140  -21.7720 N   0  0  0  0  0  0
    5.8430    8.8060  -20.7780 C   0  0  0  0  0  0
    3.5580    7.2090  -22.3440 C   0  0  0  0  0  0
    4.4320    8.4770  -20.3020 C   0  0  0  0  0  0
    6.1500    9.6300  -21.8540 C   0  0  0  0  0  0
    6.8880    8.2610  -20.0920 C   0  0  0  0  0  0
    8.3570    9.3270  -21.4450 C   0  0  3  0  0  0
    2.9991    6.9630  -20.3071 H   0  0  0  0  0  0
    8.9269    8.0491  -19.8511 H   0  0  0  0  0  0
    4.1653   10.0301  -22.4081 H   0  0  0  0  0  0
    5.4081   10.8203  -23.4154 H   0  0  0  0  0  0
   10.4357    9.1952  -21.2292 H   0  0  0  0  0  0
    9.8760   10.2460  -22.5580 H   0  0  0  0  0  0
    4.4661    7.4350  -22.9221 H   0  0  0  0  0  0
    2.8184    7.9986  -22.5429 H   0  0  0  0  0  0
    4.4210    8.4210  -19.2035 H   0  0  0  0  0  0
    3.7560    9.3049  -20.5620 H   0  0  0  0  0  0
    6.6379    7.6118  -19.2607 H   0  0  0  0  0  0
  1  2  2  0  0  0
  1  3  1  0  0  0
  1 34  1  0  0  0
  2  6  1  0  0  0
  2 35  1  0  0  0
  3  5  2  0  0  0
  3 27  1  0  0  0
  4  5  1  0  0  0
  4  6  2  0  0  0
  4 18  1  0  0  0
  5 24  1  0  0  0
  6 10  1  0  0  0
  7 10  2  0  0  0
  7 23  1  0  0  0
  7 33  1  0  0  0
  8 21  1  0  0  0
  8 22  1  0  0  0
  8 36  1  0  0  0
  8 37  1  0  0  0
  9 21  1  0  0  0
  9 31  1  0  0  0
  9 38  1  0  0  0
  9 39  1  0  0  0
 10 40  1  0  0  0
 11 12  2  0  0  0
 11 14  1  0  0  0
 11 15  1  0  0  0
 12 17  1  0  0  0
 12 28  1  0  0  0
 13 28  2  0  0  0
 13 29  1  0  0  0
 13 58  1  0  0  0
 14 29  2  0  0  0
 14 31  1  0  0  0
 15 30  2  0  0  0
 15 41  1  0  0  0
 16 17  2  0  0  0
 16 18  1  0  0  0
 16 30  1  0  0  0
 17 26  1  0  0  0
 18 23  2  0  0  0
 19 20  1  0  0  0
 19 31  1  0  0  0
 19 42  1  0  0  0
 19 43  1  0  0  0
 20 22  1  0  0  0
 20 32  1  0  0  0
 20 44  1  0  0  0
 21 32  1  0  0  0
 21 45  1  0  0  0
 22 46  1  0  0  0
 22 47  1  0  0  0
 23 48  1  0  0  0
 24 25  3  0  0  0
 25 49  1  0  0  0
 32 50  1  0  0  0
 33 51  1  0  0  0
 52 58  1  0  0  0
 52 59  1  0  0  0
 52 63  1  0  0  0
 53 60  2  0  0  0
 53 62  1  0  0  0
 54 61  1  0  0  0
 54 62  1  0  0  0
 54 64  1  0  0  0
 55 60  1  0  0  0
 55 65  1  0  0  0
 55 66  1  0  0  0
 56 62  1  0  0  0
 56 67  1  0  0  0
 56 68  1  0  0  0
 57 59  1  0  0  0
 57 60  1  0  0  0
 57 61  2  0  0  0
 58 69  1  0  0  0
 58 70  1  0  0  0
 59 71  1  0  0  0
 59 72  1  0  0  0
 61 73  1  0  0  0
M  END
> <s_m_entry_id>
593

> <s_m_entry_name>
000000435.1

> <s_m_Source_Path>
/Users/zaksoul/Documents/3r_UNI/2nd_SEMESTER/BSC/FRAG_RECON/RESULTS/2

> <s_m_Source_File>
000000435.mol2

> <i_m_Source_File_Index>
1

$$$$
No_0_457
                    3D
 Schrodinger Suite 2022-4.
 73 79  0  0  1  0            999 V2000
   -5.1810    3.6090  -21.8530 C   0  0  0  0  0  0
   -5.4520    3.8050  -23.1860 C   0  0  0  0  0  0
   -3.9420    3.3510  -21.5190 C   0  0  0  0  0  0
   -3.0590    3.4860  -23.6870 C   0  0  0  0  0  0
   -2.8930    3.2340  -22.2690 C   0  0  0  0  0  0
   -4.4090    3.7540  -24.2010 C   0  0  0  0  0  0
   -3.6630    3.7850  -26.4030 C   0  0  0  0  0  0
    6.0870    3.0010  -21.1820 C   0  0  0  0  0  0
    5.9380    3.1560  -23.7310 C   0  0  0  0  0  0
   -4.6650    3.8890  -25.5350 C   0  0  0  0  0  0
    2.1540    3.7130  -23.7290 C   0  0  0  0  0  0
    1.3370    4.8230  -23.4210 C   0  0  0  0  0  0
    3.1410    6.0110  -22.7430 C   0  0  0  0  0  0
    3.5570    3.8990  -23.4210 C   0  0  0  0  0  0
    1.6030    2.6010  -24.3930 C   0  0  0  0  0  0
   -0.5220    3.4190  -24.2700 C   0  0  0  0  0  0
    0.0100    4.6350  -23.6670 C   0  0  0  0  0  0
   -1.9770    3.4300  -24.6180 C   0  0  0  0  0  0
    4.1570    1.3990  -23.1440 C   0  0  0  0  0  0
    5.0950    1.0350  -22.0030 C   0  0  2  0  0  0
    6.6890    2.5740  -22.5390 C   0  0  2  0  0  0
    5.0840    2.0310  -20.8310 C   0  0  0  0  0  0
   -2.3080    3.5970  -26.0440 C   0  0  0  0  0  0
   -1.5470    2.8150  -21.6780 C   0  0  0  0  0  0
   -0.5150    2.4620  -21.1780 C   0  0  0  0  0  0
   -0.8280    5.6800  -23.3140 F   0  0  0  0  0  0
   -3.7260    3.1020  -20.1390 F   0  0  0  0  0  0
    1.8200    5.9780  -22.8860 N   0  0  0  0  0  0
    4.0350    5.0470  -22.9720 N   0  0  0  0  0  0
    0.2950    2.5160  -24.6930 N   0  0  0  0  0  0
    4.4710    2.8500  -23.6070 N   0  0  0  0  0  0
    6.5000    1.1010  -22.4910 N   0  0  1  0  0  0
   -3.8410    3.8060  -27.7920 O   0  0  0  0  0  0
   -5.9796    3.6712  -21.1226 H   0  0  0  0  0  0
   -6.4675    4.0037  -23.5091 H   0  0  0  0  0  0
    5.6179    3.9906  -21.2849 H   0  0  0  0  0  0
    6.8763    3.0060  -20.4159 H   0  0  0  0  0  0
    6.3275    2.7150  -24.6604 H   0  0  0  0  0  0
    6.0833    4.2460  -23.7593 H   0  0  0  0  0  0
   -5.6765    4.0776  -25.8762 H   0  0  0  0  0  0
    2.2385    1.7718  -24.6821 H   0  0  0  0  0  0
    3.1157    1.3435  -22.7939 H   0  0  0  0  0  0
    4.3144    0.7047  -23.9826 H   0  0  0  0  0  0
    4.8700    0.0218  -21.6387 H   0  0  0  0  0  0
    7.7578    2.8293  -22.5885 H   0  0  0  0  0  0
    4.1018    2.5236  -20.7805 H   0  0  0  0  0  0
    5.3877    1.5123  -19.9097 H   0  0  0  0  0  0
   -1.5411    3.5789  -26.8099 H   0  0  0  0  0  0
    0.3934    2.1519  -20.7378 H   0  0  0  0  0  0
    7.1492    0.5983  -21.7894 H   0  0  0  0  0  0
   -2.9984    3.7179  -28.2217 H   0  0  0  0  0  0
    4.3750    7.1990  -20.9290 N   0  0  1  0  0  0
    7.3070   10.3670  -22.6720 N   0  0  0  0  0  0
    8.5630    8.8300  -21.2770 N   0  0  0  0  0  0
    4.9990   10.4930  -22.5240 N   0  0  0  0  0  0
    9.6130   10.2220  -22.7970 N   0  0  0  0  0  0
    6.1900    8.9660  -21.0740 C   0  0  0  0  0  0
    3.7060    7.3460  -22.2710 C   0  0  0  0  0  0
    4.9540    8.4600  -20.3360 C   0  0  0  0  0  0
    6.1820    9.9270  -22.0780 C   0  0  0  0  0  0
    7.4000    8.4480  -20.7170 C   0  0  0  0  0  0
    8.4370    9.7840  -22.2210 C   0  0  3  0  0  0
    3.6601    6.8306  -20.2081 H   0  0  0  0  0  0
    9.4468    8.3971  -20.9731 H   0  0  0  0  0  0
    4.1009   10.2010  -22.1129 H   0  0  0  0  0  0
    5.0180   11.2060  -23.2670 H   0  0  0  0  0  0
   10.5134    9.8188  -22.5009 H   0  0  0  0  0  0
    9.5900   10.9516  -23.5236 H   0  0  0  0  0  0
    4.4368    7.7149  -23.0058 H   0  0  0  0  0  0
    2.8920    8.0820  -22.1960 H   0  0  0  0  0  0
    5.2060    8.2840  -19.2798 H   0  0  0  0  0  0
    4.1853    9.2468  -20.3290 H   0  0  0  0  0  0
    7.3940    7.6916  -19.9406 H   0  0  0  0  0  0
  1  2  2  0  0  0
  1  3  1  0  0  0
  1 34  1  0  0  0
  2  6  1  0  0  0
  2 35  1  0  0  0
  3  5  2  0  0  0
  3 27  1  0  0  0
  4  5  1  0  0  0
  4  6  2  0  0  0
  4 18  1  0  0  0
  5 24  1  0  0  0
  6 10  1  0  0  0
  7 10  2  0  0  0
  7 23  1  0  0  0
  7 33  1  0  0  0
  8 21  1  0  0  0
  8 22  1  0  0  0
  8 36  1  0  0  0
  8 37  1  0  0  0
  9 21  1  0  0  0
  9 31  1  0  0  0
  9 38  1  0  0  0
  9 39  1  0  0  0
 10 40  1  0  0  0
 11 12  2  0  0  0
 11 14  1  0  0  0
 11 15  1  0  0  0
 12 17  1  0  0  0
 12 28  1  0  0  0
 13 28  2  0  0  0
 13 29  1  0  0  0
 13 58  1  0  0  0
 14 29  2  0  0  0
 14 31  1  0  0  0
 15 30  2  0  0  0
 15 41  1  0  0  0
 16 17  2  0  0  0
 16 18  1  0  0  0
 16 30  1  0  0  0
 17 26  1  0  0  0
 18 23  2  0  0  0
 19 20  1  0  0  0
 19 31  1  0  0  0
 19 42  1  0  0  0
 19 43  1  0  0  0
 20 22  1  0  0  0
 20 32  1  0  0  0
 20 44  1  0  0  0
 21 32  1  0  0  0
 21 45  1  0  0  0
 22 46  1  0  0  0
 22 47  1  0  0  0
 23 48  1  0  0  0
 24 25  3  0  0  0
 25 49  1  0  0  0
 32 50  1  0  0  0
 33 51  1  0  0  0
 52 58  1  0  0  0
 52 59  1  0  0  0
 52 63  1  0  0  0
 53 60  2  0  0  0
 53 62  1  0  0  0
 54 61  1  0  0  0
 54 62  1  0  0  0
 54 64  1  0  0  0
 55 60  1  0  0  0
 55 65  1  0  0  0
 55 66  1  0  0  0
 56 62  1  0  0  0
 56 67  1  0  0  0
 56 68  1  0  0  0
 57 59  1  0  0  0
 57 60  1  0  0  0
 57 61  2  0  0  0
 58 69  1  0  0  0
 58 70  1  0  0  0
 59 71  1  0  0  0
 59 72  1  0  0  0
 61 73  1  0  0  0
M  END
> <s_m_entry_id>
594

> <s_m_entry_name>
000000436.1

> <s_m_Source_Path>
/Users/zaksoul/Documents/3r_UNI/2nd_SEMESTER/BSC/FRAG_RECON/RESULTS/2

> <s_m_Source_File>
000000436.mol2

> <i_m_Source_File_Index>
1

$$$$
No_0_458
                    3D
 Schrodinger Suite 2022-4.
 69 75  0  0  1  0            999 V2000
   -5.3450    3.7830  -21.9690 C   0  0  0  0  0  0
   -5.6060    3.9540  -23.3080 C   0  0  0  0  0  0
   -4.1130    3.5040  -21.6230 C   0  0  0  0  0  0
   -3.2200    3.5650  -23.7910 C   0  0  0  0  0  0
   -3.0650    3.3430  -22.3660 C   0  0  0  0  0  0
   -4.5600    3.8540  -24.3170 C   0  0  0  0  0  0
   -3.8060    3.8140  -26.5150 C   0  0  0  0  0  0
    5.9030    2.9190  -21.2360 C   0  0  0  0  0  0
    5.7670    3.0170  -23.7880 C   0  0  0  0  0  0
   -4.8090    3.9630  -25.6550 C   0  0  0  0  0  0
    1.9980    3.6660  -23.8160 C   0  0  0  0  0  0
    1.2070    4.8010  -23.5380 C   0  0  0  0  0  0
    3.0370    5.9610  -22.8800 C   0  0  0  0  0  0
    3.4030    3.8250  -23.5060 C   0  0  0  0  0  0
    1.4220    2.5510  -24.4560 C   0  0  0  0  0  0
   -0.6830    3.4230  -24.3610 C   0  0  0  0  0  0
   -0.1240    4.6400  -23.7850 C   0  0  0  0  0  0
   -2.1360    3.4610  -24.7150 C   0  0  0  0  0  0
    3.9420    1.3180  -23.1670 C   0  0  0  0  0  0
    4.8660    0.9590  -22.0140 C   0  0  2  0  0  0
    6.4990    2.4460  -22.5790 C   0  0  2  0  0  0
    4.8760    1.9820  -20.8660 C   0  0  0  0  0  0
   -2.4570    3.6030  -26.1460 C   0  0  0  0  0  0
   -1.7320    2.9060  -21.7600 C   0  0  0  0  0  0
   -0.7110    2.5400  -21.2480 C   0  0  0  0  0  0
   -0.9370    5.7130  -23.4600 F   0  0  0  0  0  0
   -3.9090    3.2820  -20.2370 F   0  0  0  0  0  0
    1.7150    5.9570  -23.0280 N   0  0  0  0  0  0
    3.9070    4.9710  -23.0820 N   0  0  0  0  0  0
    0.1130    2.4910  -24.7590 N   0  0  0  0  0  0
    4.2930    2.7500  -23.6640 N   0  0  0  0  0  0
    6.2740    0.9790  -22.4980 N   0  0  1  0  0  0
   -3.9790    3.8070  -27.9050 O   0  0  0  0  0  0
   -6.1446    3.8814  -21.2437 H   0  0  0  0  0  0
   -6.6151    4.1697  -23.6400 H   0  0  0  0  0  0
    5.4581    3.9168  -21.3641 H   0  0  0  0  0  0
    6.6893    2.9230  -20.4668 H   0  0  0  0  0  0
    6.1485    2.5447  -24.7053 H   0  0  0  0  0  0
    5.9386    4.1022  -23.8415 H   0  0  0  0  0  0
   -5.8144    4.1679  -26.0045 H   0  0  0  0  0  0
    2.0387    1.7002  -24.7222 H   0  0  0  0  0  0
    2.8982    1.2958  -22.8207 H   0  0  0  0  0  0
    4.0852    0.6000  -23.9879 H   0  0  0  0  0  0
    4.6149   -0.0395  -21.6267 H   0  0  0  0  0  0
    7.5741    2.6729  -22.6314 H   0  0  0  0  0  0
    3.9059    2.4993  -20.8317 H   0  0  0  0  0  0
    5.1626    1.4774  -19.9315 H   0  0  0  0  0  0
   -1.6890    3.5478  -26.9090 H   0  0  0  0  0  0
    0.1879    2.2180  -20.7970 H   0  0  0  0  0  0
    6.9080    0.4776  -21.7817 H   0  0  0  0  0  0
   -3.1369    3.6883  -28.3285 H   0  0  0  0  0  0
    6.9580    8.8810  -19.8310 O   0  0  0  0  0  0
    3.9700    7.2880  -20.9680 N   0  0  1  0  0  0
    7.8170    9.3460  -21.7270 N   0  0  0  0  0  0
    4.4960    8.5900  -20.4190 C   0  0  0  0  0  0
    3.6320    7.2930  -22.4370 C   0  0  0  0  0  0
    5.9470    8.8730  -20.7700 C   0  0  0  0  0  0
    6.4830    9.1640  -21.9500 C   0  0  0  0  0  0
    9.3840    9.3020  -19.7810 C   0  0  0  0  0  0
    8.0300    9.1690  -20.4450 C   0  0  0  0  0  0
    4.7090    6.5130  -20.8280 H   0  0  0  0  0  0
    4.3769    8.5990  -19.3255 H   0  0  0  0  0  0
    3.8662    9.4178  -20.7769 H   0  0  0  0  0  0
    4.5409    7.5000  -23.0210 H   0  0  0  0  0  0
    2.9162    8.1017  -22.6459 H   0  0  0  0  0  0
    6.0787    9.2681  -22.9558 H   0  0  0  0  0  0
   10.1406    9.5572  -20.5376 H   0  0  0  0  0  0
    9.3430   10.0961  -19.0209 H   0  0  0  0  0  0
    9.6520    8.3492  -19.3011 H   0  0  0  0  0  0
  1  2  2  0  0  0
  1  3  1  0  0  0
  1 34  1  0  0  0
  2  6  1  0  0  0
  2 35  1  0  0  0
  3  5  2  0  0  0
  3 27  1  0  0  0
  4  5  1  0  0  0
  4  6  2  0  0  0
  4 18  1  0  0  0
  5 24  1  0  0  0
  6 10  1  0  0  0
  7 10  2  0  0  0
  7 23  1  0  0  0
  7 33  1  0  0  0
  8 21  1  0  0  0
  8 22  1  0  0  0
  8 36  1  0  0  0
  8 37  1  0  0  0
  9 21  1  0  0  0
  9 31  1  0  0  0
  9 38  1  0  0  0
  9 39  1  0  0  0
 10 40  1  0  0  0
 11 12  1  0  0  0
 11 14  2  0  0  0
 11 15  1  0  0  0
 12 17  1  0  0  0
 12 28  2  0  0  0
 13 28  1  0  0  0
 13 29  2  0  0  0
 13 56  1  0  0  0
 14 29  1  0  0  0
 14 31  1  0  0  0
 15 30  2  0  0  0
 15 41  1  0  0  0
 16 17  2  0  0  0
 16 18  1  0  0  0
 16 30  1  0  0  0
 17 26  1  0  0  0
 18 23  2  0  0  0
 19 20  1  0  0  0
 19 31  1  0  0  0
 19 42  1  0  0  0
 19 43  1  0  0  0
 20 22  1  0  0  0
 20 32  1  0  0  0
 20 44  1  0  0  0
 21 32  1  0  0  0
 21 45  1  0  0  0
 22 46  1  0  0  0
 22 47  1  0  0  0
 23 48  1  0  0  0
 24 25  3  0  0  0
 25 49  1  0  0  0
 32 50  1  0  0  0
 33 51  1  0  0  0
 52 57  1  0  0  0
 52 60  1  0  0  0
 53 55  1  0  0  0
 53 56  1  0  0  0
 53 61  1  0  0  0
 54 58  1  0  0  0
 54 60  2  0  0  0
 55 57  1  0  0  0
 55 62  1  0  0  0
 55 63  1  0  0  0
 56 64  1  0  0  0
 56 65  1  0  0  0
 57 58  2  0  0  0
 58 66  1  0  0  0
 59 60  1  0  0  0
 59 67  1  0  0  0
 59 68  1  0  0  0
 59 69  1  0  0  0
M  END
> <s_m_entry_id>
595

> <s_m_entry_name>
000000437.1

> <s_m_Source_Path>
/Users/zaksoul/Documents/3r_UNI/2nd_SEMESTER/BSC/FRAG_RECON/RESULTS/2

> <s_m_Source_File>
000000437.mol2

> <i_m_Source_File_Index>
1

$$$$
No_0_459
                    3D
 Schrodinger Suite 2022-4.
 69 75  0  0  1  0            999 V2000
   -5.1810    3.6090  -21.8530 C   0  0  0  0  0  0
   -5.4520    3.8050  -23.1860 C   0  0  0  0  0  0
   -3.9420    3.3510  -21.5190 C   0  0  0  0  0  0
   -3.0590    3.4860  -23.6870 C   0  0  0  0  0  0
   -2.8930    3.2340  -22.2690 C   0  0  0  0  0  0
   -4.4090    3.7540  -24.2010 C   0  0  0  0  0  0
   -3.6630    3.7850  -26.4030 C   0  0  0  0  0  0
    6.0870    3.0010  -21.1820 C   0  0  0  0  0  0
    5.9380    3.1560  -23.7310 C   0  0  0  0  0  0
   -4.6650    3.8890  -25.5350 C   0  0  0  0  0  0
    2.1540    3.7130  -23.7290 C   0  0  0  0  0  0
    1.3370    4.8230  -23.4210 C   0  0  0  0  0  0
    3.1410    6.0110  -22.7430 C   0  0  0  0  0  0
    3.5570    3.8990  -23.4210 C   0  0  0  0  0  0
    1.6030    2.6010  -24.3930 C   0  0  0  0  0  0
   -0.5220    3.4190  -24.2700 C   0  0  0  0  0  0
    0.0100    4.6350  -23.6670 C   0  0  0  0  0  0
   -1.9770    3.4300  -24.6180 C   0  0  0  0  0  0
    4.1570    1.3990  -23.1440 C   0  0  0  0  0  0
    5.0950    1.0350  -22.0030 C   0  0  2  0  0  0
    6.6890    2.5740  -22.5390 C   0  0  2  0  0  0
    5.0840    2.0310  -20.8310 C   0  0  0  0  0  0
   -2.3080    3.5970  -26.0440 C   0  0  0  0  0  0
   -1.5470    2.8150  -21.6780 C   0  0  0  0  0  0
   -0.5150    2.4620  -21.1780 C   0  0  0  0  0  0
   -0.8280    5.6800  -23.3140 F   0  0  0  0  0  0
   -3.7260    3.1020  -20.1390 F   0  0  0  0  0  0
    1.8200    5.9780  -22.8860 N   0  0  0  0  0  0
    4.0350    5.0470  -22.9720 N   0  0  0  0  0  0
    0.2950    2.5160  -24.6930 N   0  0  0  0  0  0
    4.4710    2.8500  -23.6070 N   0  0  0  0  0  0
    6.5000    1.1010  -22.4910 N   0  0  1  0  0  0
   -3.8410    3.8060  -27.7920 O   0  0  0  0  0  0
   -5.9796    3.6712  -21.1226 H   0  0  0  0  0  0
   -6.4675    4.0037  -23.5091 H   0  0  0  0  0  0
    5.6179    3.9906  -21.2849 H   0  0  0  0  0  0
    6.8763    3.0060  -20.4159 H   0  0  0  0  0  0
    6.3275    2.7150  -24.6604 H   0  0  0  0  0  0
    6.0833    4.2460  -23.7593 H   0  0  0  0  0  0
   -5.6765    4.0776  -25.8762 H   0  0  0  0  0  0
    2.2385    1.7718  -24.6821 H   0  0  0  0  0  0
    3.1157    1.3435  -22.7939 H   0  0  0  0  0  0
    4.3144    0.7047  -23.9826 H   0  0  0  0  0  0
    4.8700    0.0218  -21.6387 H   0  0  0  0  0  0
    7.7578    2.8293  -22.5885 H   0  0  0  0  0  0
    4.1018    2.5236  -20.7805 H   0  0  0  0  0  0
    5.3877    1.5123  -19.9097 H   0  0  0  0  0  0
   -1.5411    3.5789  -26.8099 H   0  0  0  0  0  0
    0.3934    2.1519  -20.7378 H   0  0  0  0  0  0
    7.1492    0.5983  -21.7894 H   0  0  0  0  0  0
   -2.9984    3.7179  -28.2217 H   0  0  0  0  0  0
    7.3360    8.9930  -20.1510 O   0  0  0  0  0  0
    4.3160    7.2350  -20.8970 N   0  0  1  0  0  0
    7.7800    9.7150  -22.1080 N   0  0  0  0  0  0
    4.8360    8.5240  -20.3120 C   0  0  0  0  0  0
    3.7060    7.3460  -22.2710 C   0  0  0  0  0  0
    6.1670    8.9770  -20.8870 C   0  0  0  0  0  0
    6.4460    9.4270  -22.1040 C   0  0  0  0  0  0
    9.6870    9.6370  -20.4950 C   0  0  0  0  0  0
    8.2460    9.4390  -20.9140 C   0  0  0  0  0  0
    5.1258    6.5252  -20.9790 H   0  0  0  0  0  0
    4.9270    8.4180  -19.2209 H   0  0  0  0  0  0
    4.0877    9.3173  -20.4561 H   0  0  0  0  0  0
    4.4692    7.6931  -22.9831 H   0  0  0  0  0  0
    2.9036    8.0983  -22.2560 H   0  0  0  0  0  0
    5.8522    9.5870  -23.0027 H   0  0  0  0  0  0
   10.2641   10.0341  -21.3431 H   0  0  0  0  0  0
    9.7310   10.3492  -19.6578 H   0  0  0  0  0  0
   10.1142    8.6736  -20.1799 H   0  0  0  0  0  0
  1  2  2  0  0  0
  1  3  1  0  0  0
  1 34  1  0  0  0
  2  6  1  0  0  0
  2 35  1  0  0  0
  3  5  2  0  0  0
  3 27  1  0  0  0
  4  5  1  0  0  0
  4  6  2  0  0  0
  4 18  1  0  0  0
  5 24  1  0  0  0
  6 10  1  0  0  0
  7 10  2  0  0  0
  7 23  1  0  0  0
  7 33  1  0  0  0
  8 21  1  0  0  0
  8 22  1  0  0  0
  8 36  1  0  0  0
  8 37  1  0  0  0
  9 21  1  0  0  0
  9 31  1  0  0  0
  9 38  1  0  0  0
  9 39  1  0  0  0
 10 40  1  0  0  0
 11 12  1  0  0  0
 11 14  2  0  0  0
 11 15  1  0  0  0
 12 17  1  0  0  0
 12 28  2  0  0  0
 13 28  1  0  0  0
 13 29  2  0  0  0
 13 56  1  0  0  0
 14 29  1  0  0  0
 14 31  1  0  0  0
 15 30  2  0  0  0
 15 41  1  0  0  0
 16 17  2  0  0  0
 16 18  1  0  0  0
 16 30  1  0  0  0
 17 26  1  0  0  0
 18 23  2  0  0  0
 19 20  1  0  0  0
 19 31  1  0  0  0
 19 42  1  0  0  0
 19 43  1  0  0  0
 20 22  1  0  0  0
 20 32  1  0  0  0
 20 44  1  0  0  0
 21 32  1  0  0  0
 21 45  1  0  0  0
 22 46  1  0  0  0
 22 47  1  0  0  0
 23 48  1  0  0  0
 24 25  3  0  0  0
 25 49  1  0  0  0
 32 50  1  0  0  0
 33 51  1  0  0  0
 52 57  1  0  0  0
 52 60  1  0  0  0
 53 55  1  0  0  0
 53 56  1  0  0  0
 53 61  1  0  0  0
 54 58  1  0  0  0
 54 60  2  0  0  0
 55 57  1  0  0  0
 55 62  1  0  0  0
 55 63  1  0  0  0
 56 64  1  0  0  0
 56 65  1  0  0  0
 57 58  2  0  0  0
 58 66  1  0  0  0
 59 60  1  0  0  0
 59 67  1  0  0  0
 59 68  1  0  0  0
 59 69  1  0  0  0
M  END
> <s_m_entry_id>
596

> <s_m_entry_name>
000000438.1

> <s_m_Source_Path>
/Users/zaksoul/Documents/3r_UNI/2nd_SEMESTER/BSC/FRAG_RECON/RESULTS/2

> <s_m_Source_File>
000000438.mol2

> <i_m_Source_File_Index>
1

$$$$
No_0_460
                    3D
 Schrodinger Suite 2022-4.
 69 75  0  0  1  0            999 V2000
   -5.2980    3.4820  -22.2390 C   0  0  0  0  0  0
   -5.5240    3.6850  -23.5800 C   0  0  0  0  0  0
   -4.0690    3.2320  -21.8640 C   0  0  0  0  0  0
   -3.1130    3.3880  -24.0000 C   0  0  0  0  0  0
   -2.9940    3.1280  -22.5790 C   0  0  0  0  0  0
   -4.4460    3.6490  -24.5590 C   0  0  0  0  0  0
   -3.6250    3.7000  -26.7330 C   0  0  0  0  0  0
    5.9450    2.9570  -21.1850 C   0  0  0  0  0  0
    5.8820    3.1280  -23.7360 C   0  0  0  0  0  0
   -4.6580    3.7910  -25.9000 C   0  0  0  0  0  0
    2.0970    3.6560  -23.8610 C   0  0  0  0  0  0
    1.2610    4.7570  -23.5740 C   0  0  0  0  0  0
    3.0310    5.9540  -22.8270 C   0  0  0  0  0  0
    3.4860    3.8510  -23.5030 C   0  0  0  0  0  0
    1.5770    2.5440  -24.5510 C   0  0  0  0  0  0
   -0.5570    3.3450  -24.4950 C   0  0  0  0  0  0
   -0.0560    4.5610  -23.8670 C   0  0  0  0  0  0
   -1.9990    3.3470  -24.8930 C   0  0  0  0  0  0
    4.0970    1.3530  -23.2220 C   0  0  0  0  0  0
    4.9980    0.9890  -22.0520 C   0  0  2  0  0  0
    6.5970    2.5440  -22.5220 C   0  0  2  0  0  0
    4.9390    1.9770  -20.8740 C   0  0  0  0  0  0
   -2.2820    3.5210  -26.3290 C   0  0  0  0  0  0
   -1.6660    2.7150  -21.9440 C   0  0  0  0  0  0
   -0.6490    2.3670  -21.4120 C   0  0  0  0  0  0
   -0.9130    5.5970  -23.5360 F   0  0  0  0  0  0
   -3.8990    2.9750  -20.4790 F   0  0  0  0  0  0
    1.7150    5.9120  -23.0150 N   0  0  0  0  0  0
    3.9390    4.9990  -23.0310 N   0  0  0  0  0  0
    0.2810    2.4510  -24.8960 N   0  0  0  0  0  0
    4.4150    2.8100  -23.6650 N   0  0  0  0  0  0
    6.4180    1.0690  -22.4910 N   0  0  1  0  0  0
   -3.7560    3.7300  -28.1270 O   0  0  0  0  0  0
   -6.1215    3.5332  -21.5360 H   0  0  0  0  0  0
   -6.5293    3.8786  -23.9362 H   0  0  0  0  0  0
    5.4719    3.9436  -21.2980 H   0  0  0  0  0  0
    6.7080    2.9631  -20.3927 H   0  0  0  0  0  0
    6.3069    2.6970  -24.6545 H   0  0  0  0  0  0
    6.0202    4.2192  -23.7521 H   0  0  0  0  0  0
   -5.6586    3.9747  -26.2743 H   0  0  0  0  0  0
    2.2293    1.7221  -24.8230 H   0  0  0  0  0  0
    3.0447    1.2874  -22.9082 H   0  0  0  0  0  0
    4.2878    0.6654  -24.0591 H   0  0  0  0  0  0
    4.7679   -0.0281  -21.7019 H   0  0  0  0  0  0
    7.6649    2.8074  -22.5341 H   0  0  0  0  0  0
    3.9517    2.4616  -20.8548 H   0  0  0  0  0  0
    5.2146    1.4541  -19.9463 H   0  0  0  0  0  0
   -1.4899    3.5140  -27.0689 H   0  0  0  0  0  0
    0.2462    2.0609  -20.9429 H   0  0  0  0  0  0
    7.0465    0.5666  -21.7706 H   0  0  0  0  0  0
   -2.8984    3.6518  -28.5281 H   0  0  0  0  0  0
    7.3050    9.0260  -20.4800 O   0  0  0  0  0  0
    4.3240    7.1350  -21.0310 N   0  0  1  0  0  0
    7.5010    9.8900  -22.4200 N   0  0  0  0  0  0
    4.8310    8.4150  -20.4180 C   0  0  0  0  0  0
    3.5690    7.2910  -22.3270 C   0  0  0  0  0  0
    6.0690    8.9820  -21.0930 C   0  0  0  0  0  0
    6.1930    9.5210  -22.3000 C   0  0  0  0  0  0
    9.5680    9.8320  -21.0170 C   0  0  0  0  0  0
    8.1050    9.5710  -21.3000 C   0  0  0  0  0  0
    5.1575    6.4814  -21.2419 H   0  0  0  0  0  0
    5.0410    8.2500  -19.3509 H   0  0  0  0  0  0
    4.0301    9.1689  -20.4330 H   0  0  0  0  0  0
    4.2332    7.7261  -23.0882 H   0  0  0  0  0  0
    2.7323    7.9898  -22.1800 H   0  0  0  0  0  0
    5.4999    9.6980  -23.1211 H   0  0  0  0  0  0
   10.0311   10.3131  -21.8911 H   0  0  0  0  0  0
    9.6610   10.4927  -20.1424 H   0  0  0  0  0  0
   10.0778    8.8793  -20.8111 H   0  0  0  0  0  0
  1  2  2  0  0  0
  1  3  1  0  0  0
  1 34  1  0  0  0
  2  6  1  0  0  0
  2 35  1  0  0  0
  3  5  2  0  0  0
  3 27  1  0  0  0
  4  5  1  0  0  0
  4  6  2  0  0  0
  4 18  1  0  0  0
  5 24  1  0  0  0
  6 10  1  0  0  0
  7 10  2  0  0  0
  7 23  1  0  0  0
  7 33  1  0  0  0
  8 21  1  0  0  0
  8 22  1  0  0  0
  8 36  1  0  0  0
  8 37  1  0  0  0
  9 21  1  0  0  0
  9 31  1  0  0  0
  9 38  1  0  0  0
  9 39  1  0  0  0
 10 40  1  0  0  0
 11 12  1  0  0  0
 11 14  2  0  0  0
 11 15  1  0  0  0
 12 17  1  0  0  0
 12 28  2  0  0  0
 13 28  1  0  0  0
 13 29  2  0  0  0
 13 56  1  0  0  0
 14 29  1  0  0  0
 14 31  1  0  0  0
 15 30  2  0  0  0
 15 41  1  0  0  0
 16 17  2  0  0  0
 16 18  1  0  0  0
 16 30  1  0  0  0
 17 26  1  0  0  0
 18 23  2  0  0  0
 19 20  1  0  0  0
 19 31  1  0  0  0
 19 42  1  0  0  0
 19 43  1  0  0  0
 20 22  1  0  0  0
 20 32  1  0  0  0
 20 44  1  0  0  0
 21 32  1  0  0  0
 21 45  1  0  0  0
 22 46  1  0  0  0
 22 47  1  0  0  0
 23 48  1  0  0  0
 24 25  3  0  0  0
 25 49  1  0  0  0
 32 50  1  0  0  0
 33 51  1  0  0  0
 52 57  1  0  0  0
 52 60  1  0  0  0
 53 55  1  0  0  0
 53 56  1  0  0  0
 53 61  1  0  0  0
 54 58  1  0  0  0
 54 60  2  0  0  0
 55 57  1  0  0  0
 55 62  1  0  0  0
 55 63  1  0  0  0
 56 64  1  0  0  0
 56 65  1  0  0  0
 57 58  2  0  0  0
 58 66  1  0  0  0
 59 60  1  0  0  0
 59 67  1  0  0  0
 59 68  1  0  0  0
 59 69  1  0  0  0
M  END
> <s_m_entry_id>
597

> <s_m_entry_name>
000000439.1

> <s_m_Source_Path>
/Users/zaksoul/Documents/3r_UNI/2nd_SEMESTER/BSC/FRAG_RECON/RESULTS/2

> <s_m_Source_File>
000000439.mol2

> <i_m_Source_File_Index>
1

$$$$
No_0_461
                    3D
 Schrodinger Suite 2022-4.
 72 78  0  0  1  0            999 V2000
   -5.3200    3.5670  -21.7930 C   0  0  0  0  0  0
   -5.6010    3.7620  -23.1250 C   0  0  0  0  0  0
   -4.0800    3.3040  -21.4680 C   0  0  0  0  0  0
   -3.2140    3.4310  -23.6440 C   0  0  0  0  0  0
   -3.0380    3.1810  -22.2260 C   0  0  0  0  0  0
   -4.5650    3.7050  -24.1480 C   0  0  0  0  0  0
   -3.8370    3.7280  -26.3550 C   0  0  0  0  0  0
    5.9490    2.9070  -21.2090 C   0  0  0  0  0  0
    5.7810    3.0580  -23.7560 C   0  0  0  0  0  0
   -4.8320    3.8380  -25.4790 C   0  0  0  0  0  0
    2.0010    3.6340  -23.7260 C   0  0  0  0  0  0
    1.1910    4.7470  -23.4140 C   0  0  0  0  0  0
    3.0060    5.9280  -22.7520 C   0  0  0  0  0  0
    3.4060    3.8130  -23.4290 C   0  0  0  0  0  0
    1.4380    2.5230  -24.3840 C   0  0  0  0  0  0
   -0.6810    3.3510  -24.2450 C   0  0  0  0  0  0
   -0.1390    4.5660  -23.6490 C   0  0  0  0  0  0
   -2.1380    3.3690  -24.5820 C   0  0  0  0  0  0
    3.9970    1.3100  -23.1520 C   0  0  0  0  0  0
    4.9420    0.9440  -22.0180 C   0  0  2  0  0  0
    6.5390    2.4750  -22.5690 C   0  0  2  0  0  0
    4.9450    1.9420  -20.8470 C   0  0  0  0  0  0
   -2.4800    3.5350  -26.0060 C   0  0  0  0  0  0
   -1.6890    2.7560  -21.6450 C   0  0  0  0  0  0
   -0.6550    2.3990  -21.1520 C   0  0  0  0  0  0
   -0.9690    5.6160  -23.2910 F   0  0  0  0  0  0
   -3.8550    3.0560  -20.0890 F   0  0  0  0  0  0
    1.6830    5.9010  -22.8840 N   0  0  0  0  0  0
    3.8930    4.9590  -22.9860 N   0  0  0  0  0  0
    0.1280    2.4440  -24.6740 N   0  0  0  0  0  0
    4.3140    2.7590  -23.6200 N   0  0  0  0  0  0
    6.3430    1.0030  -22.5170 N   0  0  1  0  0  0
   -4.0260    3.7480  -27.7420 O   0  0  0  0  0  0
   -6.1126    3.6342  -21.0566 H   0  0  0  0  0  0
   -6.6179    3.9658  -23.4402 H   0  0  0  0  0  0
    5.4847    3.8991  -21.3099 H   0  0  0  0  0  0
    6.7448    2.9090  -20.4495 H   0  0  0  0  0  0
    6.1615    2.6139  -24.6876 H   0  0  0  0  0  0
    5.9313    4.1472  -23.7873 H   0  0  0  0  0  0
   -5.8448    4.0317  -25.8133 H   0  0  0  0  0  0
    2.0679    1.6905  -24.6759 H   0  0  0  0  0  0
    2.9582    1.2605  -22.7936 H   0  0  0  0  0  0
    4.1443    0.6136  -23.9907 H   0  0  0  0  0  0
    4.7149   -0.0673  -21.6496 H   0  0  0  0  0  0
    7.6088    2.7243  -22.6275 H   0  0  0  0  0  0
    3.9657    2.4397  -20.7905 H   0  0  0  0  0  0
    5.2529    1.4231  -19.9273 H   0  0  0  0  0  0
   -1.7192    3.5119  -26.7778 H   0  0  0  0  0  0
    0.2554    2.0849  -20.7188 H   0  0  0  0  0  0
    6.9953    0.4983  -21.8198 H   0  0  0  0  0  0
   -3.1871    3.6560  -28.1783 H   0  0  0  0  0  0
    8.8080    9.8840  -22.9470 Br  0  0  0  0  0  0
    3.5940    7.3550  -20.7820 N   0  0  1  0  0  0
    7.8960    7.2970  -19.8890 N   0  0  0  0  0  0
    3.5810    7.2610  -22.2860 C   0  0  0  0  0  0
    4.3580    8.5230  -20.2080 C   0  0  0  0  0  0
    5.8520    8.4170  -20.4920 C   0  0  0  0  0  0
    6.4990    9.1510  -21.4600 C   0  0  0  0  0  0
    6.5770    7.5200  -19.7410 C   0  0  0  0  0  0
    7.8450    8.9380  -21.6360 C   0  0  0  0  0  0
    5.7870   10.1770  -22.3290 C   0  0  0  0  0  0
    8.5000    8.0220  -20.8480 C   0  0  0  0  0  0
    2.5813    7.4470  -20.4181 H   0  0  0  0  0  0
    4.6066    7.3720  -22.6679 H   0  0  0  0  0  0
    2.9791    8.0839  -22.6989 H   0  0  0  0  0  0
    4.1940    8.5690  -19.1213 H   0  0  0  0  0  0
    3.9693    9.4594  -20.6347 H   0  0  0  0  0  0
    6.0158    6.9748  -18.9907 H   0  0  0  0  0  0
    6.5070   10.6320  -23.0250 H   0  0  0  0  0  0
    4.9870    9.6830  -22.9000 H   0  0  0  0  0  0
    5.3510   10.9590  -21.6900 H   0  0  0  0  0  0
    9.5605    7.8979  -21.0351 H   0  0  0  0  0  0
  1  2  2  0  0  0
  1  3  1  0  0  0
  1 34  1  0  0  0
  2  6  1  0  0  0
  2 35  1  0  0  0
  3  5  2  0  0  0
  3 27  1  0  0  0
  4  5  1  0  0  0
  4  6  2  0  0  0
  4 18  1  0  0  0
  5 24  1  0  0  0
  6 10  1  0  0  0
  7 10  2  0  0  0
  7 23  1  0  0  0
  7 33  1  0  0  0
  8 21  1  0  0  0
  8 22  1  0  0  0
  8 36  1  0  0  0
  8 37  1  0  0  0
  9 21  1  0  0  0
  9 31  1  0  0  0
  9 38  1  0  0  0
  9 39  1  0  0  0
 10 40  1  0  0  0
 11 12  1  0  0  0
 11 14  2  0  0  0
 11 15  1  0  0  0
 12 17  1  0  0  0
 12 28  2  0  0  0
 13 28  1  0  0  0
 13 29  2  0  0  0
 13 55  1  0  0  0
 14 29  1  0  0  0
 14 31  1  0  0  0
 15 30  2  0  0  0
 15 41  1  0  0  0
 16 17  2  0  0  0
 16 18  1  0  0  0
 16 30  1  0  0  0
 17 26  1  0  0  0
 18 23  2  0  0  0
 19 20  1  0  0  0
 19 31  1  0  0  0
 19 42  1  0  0  0
 19 43  1  0  0  0
 20 22  1  0  0  0
 20 32  1  0  0  0
 20 44  1  0  0  0
 21 32  1  0  0  0
 21 45  1  0  0  0
 22 46  1  0  0  0
 22 47  1  0  0  0
 23 48  1  0  0  0
 24 25  3  0  0  0
 25 49  1  0  0  0
 32 50  1  0  0  0
 33 51  1  0  0  0
 52 60  1  0  0  0
 53 55  1  0  0  0
 53 56  1  0  0  0
 53 63  1  0  0  0
 54 59  2  0  0  0
 54 62  1  0  0  0
 55 64  1  0  0  0
 55 65  1  0  0  0
 56 57  1  0  0  0
 56 66  1  0  0  0
 56 67  1  0  0  0
 57 58  2  0  0  0
 57 59  1  0  0  0
 58 60  1  0  0  0
 58 61  1  0  0  0
 59 68  1  0  0  0
 60 62  2  0  0  0
 61 69  1  0  0  0
 61 70  1  0  0  0
 61 71  1  0  0  0
 62 72  1  0  0  0
M  END
> <s_m_entry_id>
598

> <s_m_entry_name>
000000440.1

> <s_m_Source_Path>
/Users/zaksoul/Documents/3r_UNI/2nd_SEMESTER/BSC/FRAG_RECON/RESULTS/2

> <s_m_Source_File>
000000440.mol2

> <i_m_Source_File_Index>
1

$$$$
No_0_462
                    3D
 Schrodinger Suite 2022-4.
 71 77  0  0  1  0            999 V2000
   -5.0930    3.5490  -22.0330 C   0  0  0  0  0  0
   -5.3400    3.7630  -23.3680 C   0  0  0  0  0  0
   -3.8650    3.2650  -21.6820 C   0  0  0  0  0  0
   -2.9460    3.4070  -23.8350 C   0  0  0  0  0  0
   -2.8070    3.1370  -22.4170 C   0  0  0  0  0  0
   -4.2820    3.7050  -24.3670 C   0  0  0  0  0  0
   -3.5010    3.7450  -26.5560 C   0  0  0  0  0  0
    6.1500    2.7310  -21.1940 C   0  0  0  0  0  0
    6.0430    2.9150  -23.7430 C   0  0  0  0  0  0
   -4.5150    3.8580  -25.7030 C   0  0  0  0  0  0
    2.2710    3.5410  -23.7940 C   0  0  0  0  0  0
    1.4690    4.6610  -23.4870 C   0  0  0  0  0  0
    3.2830    5.8090  -22.7680 C   0  0  0  0  0  0
    3.6710    3.6980  -23.4620 C   0  0  0  0  0  0
    1.7100    2.4450  -24.4780 C   0  0  0  0  0  0
   -0.4020    3.3000  -24.3790 C   0  0  0  0  0  0
    0.1430    4.5000  -23.7550 C   0  0  0  0  0  0
   -1.8500    3.3410  -24.7490 C   0  0  0  0  0  0
    4.2230    1.1840  -23.2020 C   0  0  0  0  0  0
    5.1360    0.7920  -22.0510 C   0  0  2  0  0  0
    6.7660    2.3080  -22.5460 C   0  0  2  0  0  0
    5.1250    1.7750  -20.8690 C   0  0  0  0  0  0
   -2.1560    3.5290  -26.1780 C   0  0  0  0  0  0
   -1.4780    2.6870  -21.8100 C   0  0  0  0  0  0
   -0.4600    2.3110  -21.2980 C   0  0  0  0  0  0
   -0.6820    5.5570  -23.4040 F   0  0  0  0  0  0
   -3.6750    2.9970  -20.3010 F   0  0  0  0  0  0
    1.9640    5.8020  -22.9320 N   0  0  0  0  0  0
    4.1630    4.8320  -22.9930 N   0  0  0  0  0  0
    0.4050    2.3870  -24.7990 N   0  0  0  0  0  0
    4.5700    2.6340  -23.6450 N   0  0  0  0  0  0
    6.5490    0.8380  -22.5170 N   0  0  1  0  0  0
   -3.6580    3.7840  -27.9470 O   0  0  0  0  0  0
   -5.9018    3.6172  -21.3145 H   0  0  0  0  0  0
   -6.3466    3.9838  -23.7042 H   0  0  0  0  0  0
    5.7009    3.7302  -21.2939 H   0  0  0  0  0  0
    6.9272    2.7138  -20.4158 H   0  0  0  0  0  0
    6.4397    2.4769  -24.6707 H   0  0  0  0  0  0
    6.2084    4.0024  -23.7571 H   0  0  0  0  0  0
   -5.5176    4.0687  -26.0573 H   0  0  0  0  0  0
    2.3354    1.6078  -24.7661 H   0  0  0  0  0  0
    3.1754    1.1436  -22.8689 H   0  0  0  0  0  0
    4.3804    0.4958  -24.0456 H   0  0  0  0  0  0
    4.8869   -0.2206  -21.7010 H   0  0  0  0  0  0
    7.8399    2.5442  -22.5763 H   0  0  0  0  0  0
    4.1515    2.2855  -20.8286 H   0  0  0  0  0  0
    5.4036    1.2411  -19.9485 H   0  0  0  0  0  0
   -1.3782    3.5059  -26.9327 H   0  0  0  0  0  0
    0.4355    1.9798  -20.8468 H   0  0  0  0  0  0
    7.1782    0.3167  -21.8108 H   0  0  0  0  0  0
   -2.8104    3.6851  -28.3644 H   0  0  0  0  0  0
    4.5740    6.9490  -20.9580 N   0  0  1  0  0  0
    7.8550    7.3930  -20.1800 N   0  0  0  0  0  0
    8.7400    7.9160  -22.1080 N   0  0  0  0  0  0
    5.4390    8.1130  -20.5430 C   0  0  0  0  0  0
    6.8870    7.9290  -20.9720 C   0  0  0  0  0  0
    3.8640    7.1290  -22.2730 C   0  0  0  0  0  0
    7.7270    6.9230  -18.7950 C   0  0  0  0  0  0
    8.9900    7.4050  -20.9190 C   0  0  0  0  0  0
    7.4140    8.2500  -22.1530 C   0  0  0  0  0  0
    5.1837    6.0625  -21.0519 H   0  0  0  0  0  0
    9.4964    7.9980  -22.8023 H   0  0  0  0  0  0
    5.3940    8.2310  -19.4503 H   0  0  0  0  0  0
    5.0418    9.0395  -20.9832 H   0  0  0  0  0  0
    4.5703    7.5216  -23.0193 H   0  0  0  0  0  0
    3.0546    7.8643  -22.1539 H   0  0  0  0  0  0
    8.6990    6.5460  -18.4440 H   0  0  0  0  0  0
    7.4029    7.7552  -18.1528 H   0  0  0  0  0  0
    6.9835    6.1136  -18.7490 H   0  0  0  0  0  0
    9.9139    7.0251  -20.4981 H   0  0  0  0  0  0
    6.9971    8.6899  -23.0518 H   0  0  0  0  0  0
  1  2  2  0  0  0
  1  3  1  0  0  0
  1 34  1  0  0  0
  2  6  1  0  0  0
  2 35  1  0  0  0
  3  5  2  0  0  0
  3 27  1  0  0  0
  4  5  1  0  0  0
  4  6  2  0  0  0
  4 18  1  0  0  0
  5 24  1  0  0  0
  6 10  1  0  0  0
  7 10  2  0  0  0
  7 23  1  0  0  0
  7 33  1  0  0  0
  8 21  1  0  0  0
  8 22  1  0  0  0
  8 36  1  0  0  0
  8 37  1  0  0  0
  9 21  1  0  0  0
  9 31  1  0  0  0
  9 38  1  0  0  0
  9 39  1  0  0  0
 10 40  1  0  0  0
 11 12  2  0  0  0
 11 14  1  0  0  0
 11 15  1  0  0  0
 12 17  1  0  0  0
 12 28  1  0  0  0
 13 28  2  0  0  0
 13 29  1  0  0  0
 13 57  1  0  0  0
 14 29  2  0  0  0
 14 31  1  0  0  0
 15 30  2  0  0  0
 15 41  1  0  0  0
 16 17  2  0  0  0
 16 18  1  0  0  0
 16 30  1  0  0  0
 17 26  1  0  0  0
 18 23  2  0  0  0
 19 20  1  0  0  0
 19 31  1  0  0  0
 19 42  1  0  0  0
 19 43  1  0  0  0
 20 22  1  0  0  0
 20 32  1  0  0  0
 20 44  1  0  0  0
 21 32  1  0  0  0
 21 45  1  0  0  0
 22 46  1  0  0  0
 22 47  1  0  0  0
 23 48  1  0  0  0
 24 25  3  0  0  0
 25 49  1  0  0  0
 32 50  1  0  0  0
 33 51  1  0  0  0
 52 55  1  0  0  0
 52 57  1  0  0  0
 52 61  1  0  0  0
 53 56  1  0  0  0
 53 58  1  0  0  0
 53 59  1  0  0  0
 54 59  1  0  0  0
 54 60  1  0  0  0
 54 62  1  0  0  0
 55 56  1  0  0  0
 55 63  1  0  0  0
 55 64  1  0  0  0
 56 60  2  0  0  0
 57 65  1  0  0  0
 57 66  1  0  0  0
 58 67  1  0  0  0
 58 68  1  0  0  0
 58 69  1  0  0  0
 59 70  1  0  0  0
 60 71  1  0  0  0
M  END
> <s_m_entry_id>
599

> <s_m_entry_name>
000000441.1

> <s_m_Source_Path>
/Users/zaksoul/Documents/3r_UNI/2nd_SEMESTER/BSC/FRAG_RECON/RESULTS/2

> <s_m_Source_File>
000000441.mol2

> <i_m_Source_File_Index>
1

$$$$
No_0_463
                    3D
 Schrodinger Suite 2022-4.
 71 77  0  0  1  0            999 V2000
   -5.3960    3.5570  -22.2690 C   0  0  0  0  0  0
   -5.6060    3.7520  -23.6130 C   0  0  0  0  0  0
   -4.1740    3.2920  -21.8790 C   0  0  0  0  0  0
   -3.1950    3.4190  -24.0060 C   0  0  0  0  0  0
   -3.0940    3.1680  -22.5820 C   0  0  0  0  0  0
   -4.5180    3.6950  -24.5810 C   0  0  0  0  0  0
   -3.6740    3.7180  -26.7460 C   0  0  0  0  0  0
    5.8270    2.8870  -21.0940 C   0  0  0  0  0  0
    5.7930    3.0390  -23.6460 C   0  0  0  0  0  0
   -4.7140    3.8290  -25.9250 C   0  0  0  0  0  0
    2.0170    3.6180  -23.8150 C   0  0  0  0  0  0
    1.1930    4.7320  -23.5450 C   0  0  0  0  0  0
    2.9720    5.9110  -22.7880 C   0  0  0  0  0  0
    3.4050    3.7960  -23.4440 C   0  0  0  0  0  0
    1.4890    2.5080  -24.5020 C   0  0  0  0  0  0
   -0.6350    3.3380  -24.4750 C   0  0  0  0  0  0
   -0.1230    4.5510  -23.8500 C   0  0  0  0  0  0
   -2.0720    3.3570  -24.8870 C   0  0  0  0  0  0
    3.9780    1.2930  -23.1380 C   0  0  0  0  0  0
    4.8620    0.9250  -21.9560 C   0  0  2  0  0  0
    6.4870    2.4550  -22.4220 C   0  0  2  0  0  0
    4.8050    1.9220  -20.7870 C   0  0  0  0  0  0
   -2.3380    3.5240  -26.3270 C   0  0  0  0  0  0
   -1.7780    2.7420  -21.9310 C   0  0  0  0  0  0
   -0.7720    2.3840  -21.3850 C   0  0  0  0  0  0
   -0.9700    5.6020  -23.5360 F   0  0  0  0  0  0
   -4.0220    3.0430  -20.4910 F   0  0  0  0  0  0
    1.6570    5.8850  -22.9900 N   0  0  0  0  0  0
    3.8690    4.9420  -22.9750 N   0  0  0  0  0  0
    0.1950    2.4300  -24.8600 N   0  0  0  0  0  0
    4.3210    2.7420  -23.5880 N   0  0  0  0  0  0
    6.2880    0.9830  -22.3810 N   0  0  1  0  0  0
   -3.7910    3.7390  -28.1420 O   0  0  0  0  0  0
   -6.2263    3.6233  -21.5753 H   0  0  0  0  0  0
   -6.6047    3.9568  -23.9814 H   0  0  0  0  0  0
    5.3688    3.8792  -21.2192 H   0  0  0  0  0  0
    6.5818    2.8880  -20.2938 H   0  0  0  0  0  0
    6.2208    2.5951  -24.5570 H   0  0  0  0  0  0
    5.9463    4.1280  -23.6692 H   0  0  0  0  0  0
   -5.7082    4.0238  -26.3106 H   0  0  0  0  0  0
    2.1324    1.6749  -24.7610 H   0  0  0  0  0  0
    2.9217    1.2435  -22.8350 H   0  0  0  0  0  0
    4.1686    0.5970  -23.9682 H   0  0  0  0  0  0
    4.6147   -0.0863  -21.6007 H   0  0  0  0  0  0
    7.5586    2.7032  -22.4240 H   0  0  0  0  0  0
    3.8244    2.4204  -20.7809 H   0  0  0  0  0  0
    5.0633    1.4023  -19.8526 H   0  0  0  0  0  0
   -1.5378    3.5009  -27.0579 H   0  0  0  0  0  0
    0.1141    2.0693  -20.9045 H   0  0  0  0  0  0
    6.9019    0.4771  -21.6505 H   0  0  0  0  0  0
   -2.9301    3.6460  -28.5329 H   0  0  0  0  0  0
    4.4950    7.0400  -21.1610 N   0  0  1  0  0  0
    7.8130    7.7660  -20.9910 N   0  0  0  0  0  0
    8.2430    8.5210  -22.9960 N   0  0  0  0  0  0
    5.3200    8.2540  -20.8130 C   0  0  0  0  0  0
    6.6620    8.2550  -21.5290 C   0  0  0  0  0  0
    3.5220    7.2440  -22.2920 C   0  0  0  0  0  0
    8.0080    7.1820  -19.6580 C   0  0  0  0  0  0
    8.7710    7.9510  -21.9310 C   0  0  0  0  0  0
    6.9110    8.7170  -22.7540 C   0  0  0  0  0  0
    5.1490    6.2320  -21.4540 H   0  0  0  0  0  0
    8.8349    8.7330  -23.8119 H   0  0  0  0  0  0
    5.4850    8.2850  -19.7259 H   0  0  0  0  0  0
    4.7622    9.1637  -21.0799 H   0  0  0  0  0  0
    4.0269    7.7619  -23.1208 H   0  0  0  0  0  0
    2.6915    7.8794  -21.9508 H   0  0  0  0  0  0
    9.0603    6.8849  -19.5380 H   0  0  0  0  0  0
    7.7470    7.9260  -18.8910 H   0  0  0  0  0  0
    7.3618    6.2988  -19.5470 H   0  0  0  0  0  0
    9.7905    7.6398  -21.7339 H   0  0  0  0  0  0
    6.2846    9.1773  -23.5095 H   0  0  0  0  0  0
  1  2  2  0  0  0
  1  3  1  0  0  0
  1 34  1  0  0  0
  2  6  1  0  0  0
  2 35  1  0  0  0
  3  5  2  0  0  0
  3 27  1  0  0  0
  4  5  1  0  0  0
  4  6  2  0  0  0
  4 18  1  0  0  0
  5 24  1  0  0  0
  6 10  1  0  0  0
  7 10  2  0  0  0
  7 23  1  0  0  0
  7 33  1  0  0  0
  8 21  1  0  0  0
  8 22  1  0  0  0
  8 36  1  0  0  0
  8 37  1  0  0  0
  9 21  1  0  0  0
  9 31  1  0  0  0
  9 38  1  0  0  0
  9 39  1  0  0  0
 10 40  1  0  0  0
 11 12  2  0  0  0
 11 14  1  0  0  0
 11 15  1  0  0  0
 12 17  1  0  0  0
 12 28  1  0  0  0
 13 28  2  0  0  0
 13 29  1  0  0  0
 13 57  1  0  0  0
 14 29  2  0  0  0
 14 31  1  0  0  0
 15 30  2  0  0  0
 15 41  1  0  0  0
 16 17  2  0  0  0
 16 18  1  0  0  0
 16 30  1  0  0  0
 17 26  1  0  0  0
 18 23  2  0  0  0
 19 20  1  0  0  0
 19 31  1  0  0  0
 19 42  1  0  0  0
 19 43  1  0  0  0
 20 22  1  0  0  0
 20 32  1  0  0  0
 20 44  1  0  0  0
 21 32  1  0  0  0
 21 45  1  0  0  0
 22 46  1  0  0  0
 22 47  1  0  0  0
 23 48  1  0  0  0
 24 25  3  0  0  0
 25 49  1  0  0  0
 32 50  1  0  0  0
 33 51  1  0  0  0
 52 55  1  0  0  0
 52 57  1  0  0  0
 52 61  1  0  0  0
 53 56  1  0  0  0
 53 58  1  0  0  0
 53 59  1  0  0  0
 54 59  1  0  0  0
 54 60  1  0  0  0
 54 62  1  0  0  0
 55 56  1  0  0  0
 55 63  1  0  0  0
 55 64  1  0  0  0
 56 60  2  0  0  0
 57 65  1  0  0  0
 57 66  1  0  0  0
 58 67  1  0  0  0
 58 68  1  0  0  0
 58 69  1  0  0  0
 59 70  1  0  0  0
 60 71  1  0  0  0
M  END
> <s_m_entry_id>
600

> <s_m_entry_name>
000000442.1

> <s_m_Source_Path>
/Users/zaksoul/Documents/3r_UNI/2nd_SEMESTER/BSC/FRAG_RECON/RESULTS/2

> <s_m_Source_File>
000000442.mol2

> <i_m_Source_File_Index>
1

$$$$
No_0_464
                    3D
 Schrodinger Suite 2022-4.
 71 77  0  0  1  0            999 V2000
   -5.1810    3.6090  -21.8530 C   0  0  0  0  0  0
   -5.4520    3.8050  -23.1860 C   0  0  0  0  0  0
   -3.9420    3.3510  -21.5190 C   0  0  0  0  0  0
   -3.0590    3.4860  -23.6870 C   0  0  0  0  0  0
   -2.8930    3.2340  -22.2690 C   0  0  0  0  0  0
   -4.4090    3.7540  -24.2010 C   0  0  0  0  0  0
   -3.6630    3.7850  -26.4030 C   0  0  0  0  0  0
    6.0870    3.0010  -21.1820 C   0  0  0  0  0  0
    5.9380    3.1560  -23.7310 C   0  0  0  0  0  0
   -4.6650    3.8890  -25.5350 C   0  0  0  0  0  0
    2.1540    3.7130  -23.7290 C   0  0  0  0  0  0
    1.3370    4.8230  -23.4210 C   0  0  0  0  0  0
    3.1410    6.0110  -22.7430 C   0  0  0  0  0  0
    3.5570    3.8990  -23.4210 C   0  0  0  0  0  0
    1.6030    2.6010  -24.3930 C   0  0  0  0  0  0
   -0.5220    3.4190  -24.2700 C   0  0  0  0  0  0
    0.0100    4.6350  -23.6670 C   0  0  0  0  0  0
   -1.9770    3.4300  -24.6180 C   0  0  0  0  0  0
    4.1570    1.3990  -23.1440 C   0  0  0  0  0  0
    5.0950    1.0350  -22.0030 C   0  0  2  0  0  0
    6.6890    2.5740  -22.5390 C   0  0  2  0  0  0
    5.0840    2.0310  -20.8310 C   0  0  0  0  0  0
   -2.3080    3.5970  -26.0440 C   0  0  0  0  0  0
   -1.5470    2.8150  -21.6780 C   0  0  0  0  0  0
   -0.5150    2.4620  -21.1780 C   0  0  0  0  0  0
   -0.8280    5.6800  -23.3140 F   0  0  0  0  0  0
   -3.7260    3.1020  -20.1390 F   0  0  0  0  0  0
    1.8200    5.9780  -22.8860 N   0  0  0  0  0  0
    4.0350    5.0470  -22.9720 N   0  0  0  0  0  0
    0.2950    2.5160  -24.6930 N   0  0  0  0  0  0
    4.4710    2.8500  -23.6070 N   0  0  0  0  0  0
    6.5000    1.1010  -22.4910 N   0  0  1  0  0  0
   -3.8410    3.8060  -27.7920 O   0  0  0  0  0  0
   -5.9796    3.6712  -21.1226 H   0  0  0  0  0  0
   -6.4675    4.0037  -23.5091 H   0  0  0  0  0  0
    5.6179    3.9906  -21.2849 H   0  0  0  0  0  0
    6.8763    3.0060  -20.4159 H   0  0  0  0  0  0
    6.3275    2.7150  -24.6604 H   0  0  0  0  0  0
    6.0833    4.2460  -23.7593 H   0  0  0  0  0  0
   -5.6765    4.0776  -25.8762 H   0  0  0  0  0  0
    2.2385    1.7718  -24.6821 H   0  0  0  0  0  0
    3.1157    1.3435  -22.7939 H   0  0  0  0  0  0
    4.3144    0.7047  -23.9826 H   0  0  0  0  0  0
    4.8700    0.0218  -21.6387 H   0  0  0  0  0  0
    7.7578    2.8293  -22.5885 H   0  0  0  0  0  0
    4.1018    2.5236  -20.7805 H   0  0  0  0  0  0
    5.3877    1.5123  -19.9097 H   0  0  0  0  0  0
   -1.5411    3.5789  -26.8099 H   0  0  0  0  0  0
    0.3934    2.1519  -20.7378 H   0  0  0  0  0  0
    7.1492    0.5983  -21.7894 H   0  0  0  0  0  0
   -2.9984    3.7179  -28.2217 H   0  0  0  0  0  0
    4.9640    7.1480  -21.4680 N   0  0  1  0  0  0
    8.1380    8.1870  -22.1070 N   0  0  0  0  0  0
    7.9460    9.1460  -24.0610 N   0  0  0  0  0  0
    5.7600    8.4060  -21.2220 C   0  0  0  0  0  0
    6.8510    8.6010  -22.2640 C   0  0  0  0  0  0
    3.7060    7.3460  -22.2710 C   0  0  0  0  0  0
    8.7330    7.5170  -20.9440 C   0  0  0  0  0  0
    8.7850    8.5450  -23.2410 C   0  0  0  0  0  0
    6.7200    9.1860  -23.4540 C   0  0  0  0  0  0
    5.5712    6.4367  -22.0082 H   0  0  0  0  0  0
    8.2731    9.4841  -24.9773 H   0  0  0  0  0  0
    6.2140    8.3620  -20.2210 H   0  0  0  0  0  0
    5.0848    9.2743  -21.2320 H   0  0  0  0  0  0
    3.9250    7.9799  -23.1429 H   0  0  0  0  0  0
    2.9557    7.8642  -21.6558 H   0  0  0  0  0  0
    9.7970    7.3180  -21.1400 H   0  0  0  0  0  0
    8.6380    8.1642  -20.0597 H   0  0  0  0  0  0
    8.2099    6.5668  -20.7610 H   0  0  0  0  0  0
    9.8397    8.3231  -23.3570 H   0  0  0  0  0  0
    5.8787    9.6426  -23.9626 H   0  0  0  0  0  0
  1  2  2  0  0  0
  1  3  1  0  0  0
  1 34  1  0  0  0
  2  6  1  0  0  0
  2 35  1  0  0  0
  3  5  2  0  0  0
  3 27  1  0  0  0
  4  5  1  0  0  0
  4  6  2  0  0  0
  4 18  1  0  0  0
  5 24  1  0  0  0
  6 10  1  0  0  0
  7 10  2  0  0  0
  7 23  1  0  0  0
  7 33  1  0  0  0
  8 21  1  0  0  0
  8 22  1  0  0  0
  8 36  1  0  0  0
  8 37  1  0  0  0
  9 21  1  0  0  0
  9 31  1  0  0  0
  9 38  1  0  0  0
  9 39  1  0  0  0
 10 40  1  0  0  0
 11 12  2  0  0  0
 11 14  1  0  0  0
 11 15  1  0  0  0
 12 17  1  0  0  0
 12 28  1  0  0  0
 13 28  2  0  0  0
 13 29  1  0  0  0
 13 57  1  0  0  0
 14 29  2  0  0  0
 14 31  1  0  0  0
 15 30  2  0  0  0
 15 41  1  0  0  0
 16 17  2  0  0  0
 16 18  1  0  0  0
 16 30  1  0  0  0
 17 26  1  0  0  0
 18 23  2  0  0  0
 19 20  1  0  0  0
 19 31  1  0  0  0
 19 42  1  0  0  0
 19 43  1  0  0  0
 20 22  1  0  0  0
 20 32  1  0  0  0
 20 44  1  0  0  0
 21 32  1  0  0  0
 21 45  1  0  0  0
 22 46  1  0  0  0
 22 47  1  0  0  0
 23 48  1  0  0  0
 24 25  3  0  0  0
 25 49  1  0  0  0
 32 50  1  0  0  0
 33 51  1  0  0  0
 52 55  1  0  0  0
 52 57  1  0  0  0
 52 61  1  0  0  0
 53 56  1  0  0  0
 53 58  1  0  0  0
 53 59  1  0  0  0
 54 59  1  0  0  0
 54 60  1  0  0  0
 54 62  1  0  0  0
 55 56  1  0  0  0
 55 63  1  0  0  0
 55 64  1  0  0  0
 56 60  2  0  0  0
 57 65  1  0  0  0
 57 66  1  0  0  0
 58 67  1  0  0  0
 58 68  1  0  0  0
 58 69  1  0  0  0
 59 70  1  0  0  0
 60 71  1  0  0  0
M  END
> <s_m_entry_id>
601

> <s_m_entry_name>
000000443.1

> <s_m_Source_Path>
/Users/zaksoul/Documents/3r_UNI/2nd_SEMESTER/BSC/FRAG_RECON/RESULTS/2

> <s_m_Source_File>
000000443.mol2

> <i_m_Source_File_Index>
1

$$$$
No_0_465
                    3D
 Schrodinger Suite 2022-4.
 68 74  0  0  1  0            999 V2000
   -5.4430    3.5330  -21.9920 C   0  0  0  0  0  0
   -5.7040    3.7030  -23.3310 C   0  0  0  0  0  0
   -4.2110    3.2580  -21.6450 C   0  0  0  0  0  0
   -3.3160    3.3240  -23.8110 C   0  0  0  0  0  0
   -3.1610    3.1020  -22.3860 C   0  0  0  0  0  0
   -4.6560    3.6070  -24.3390 C   0  0  0  0  0  0
   -3.9000    3.5710  -26.5360 C   0  0  0  0  0  0
    5.8070    2.7130  -21.2470 C   0  0  0  0  0  0
    5.6730    2.8110  -23.7990 C   0  0  0  0  0  0
   -4.9040    3.7150  -25.6760 C   0  0  0  0  0  0
    1.9020    3.4440  -23.8310 C   0  0  0  0  0  0
    1.1060    4.5770  -23.5530 C   0  0  0  0  0  0
    2.9310    5.7440  -22.8940 C   0  0  0  0  0  0
    3.3060    3.6090  -23.5190 C   0  0  0  0  0  0
    1.3310    2.3280  -24.4710 C   0  0  0  0  0  0
   -0.7770    3.1910  -24.3780 C   0  0  0  0  0  0
   -0.2230    4.4100  -23.8020 C   0  0  0  0  0  0
   -2.2300    3.2240  -24.7340 C   0  0  0  0  0  0
    3.8540    1.1040  -23.1800 C   0  0  0  0  0  0
    4.7790    0.7480  -22.0260 C   0  0  2  0  0  0
    6.4070    2.2420  -22.5900 C   0  0  2  0  0  0
    4.7830    1.7710  -20.8780 C   0  0  0  0  0  0
   -2.5500    3.3640  -26.1650 C   0  0  0  0  0  0
   -1.8270    2.6690  -21.7790 C   0  0  0  0  0  0
   -0.8050    2.3080  -21.2650 C   0  0  0  0  0  0
   -1.0410    5.4810  -23.4780 F   0  0  0  0  0  0
   -4.0070    3.0370  -20.2580 F   0  0  0  0  0  0
    1.6090    5.7340  -23.0430 N   0  0  0  0  0  0
    3.8050    4.7570  -23.0950 N   0  0  0  0  0  0
    0.0230    2.2630  -24.7760 N   0  0  0  0  0  0
    4.2000    2.5370  -23.6760 N   0  0  0  0  0  0
    6.1870    0.7740  -22.5080 N   0  0  1  0  0  0
   -4.0710    3.5630  -27.9260 O   0  0  0  0  0  0
   -6.2437    3.6283  -21.2675 H   0  0  0  0  0  0
   -6.7138    3.9148  -23.6633 H   0  0  0  0  0  0
    5.3588    3.7092  -21.3762 H   0  0  0  0  0  0
    6.5923    2.7191  -20.4768 H   0  0  0  0  0  0
    6.0576    2.3396  -24.7155 H   0  0  0  0  0  0
    5.8415    3.8967  -23.8525 H   0  0  0  0  0  0
   -5.9095    3.9167  -26.0272 H   0  0  0  0  0  0
    1.9513    1.4798  -24.7370 H   0  0  0  0  0  0
    2.8099    1.0777  -22.8347 H   0  0  0  0  0  0
    4.0013    0.3869  -24.0010 H   0  0  0  0  0  0
    4.5316   -0.2516  -21.6393 H   0  0  0  0  0  0
    7.4810    2.4742  -22.6405 H   0  0  0  0  0  0
    3.8109    2.2848  -20.8447 H   0  0  0  0  0  0
    5.0708    1.2681  -19.9430 H   0  0  0  0  0  0
   -1.7808    3.3128  -26.9271 H   0  0  0  0  0  0
    0.0946    1.9891  -20.8132 H   0  0  0  0  0  0
    6.8227    0.2742  -21.7921 H   0  0  0  0  0  0
   -3.2279    3.4482  -28.3485 H   0  0  0  0  0  0
    3.8510    7.0590  -20.9800 N   0  0  1  0  0  0
    7.6680    9.6790  -21.7230 N   0  0  0  0  0  0
    8.1220    7.9410  -20.1150 N   0  0  0  0  0  0
    4.3870    8.3490  -20.4130 C   0  0  0  0  0  0
    3.5210    7.0780  -22.4500 C   0  0  0  0  0  0
    6.3570    9.4780  -21.5190 C   0  0  0  0  0  0
    6.7980    7.7920  -19.9560 C   0  0  0  0  0  0
    8.4740    8.8870  -20.9990 C   0  0  0  0  0  0
    5.8790    8.5430  -20.6400 C   0  0  0  0  0  0
    4.5806    6.2744  -20.8441 H   0  0  0  0  0  0
    4.1751    8.3900  -19.3344 H   0  0  0  0  0  0
    3.8379    9.1961  -20.8500 H   0  0  0  0  0  0
    4.4333    7.2861  -23.0282 H   0  0  0  0  0  0
    2.7985    7.8825  -22.6519 H   0  0  0  0  0  0
    5.6273   10.0698  -22.0598 H   0  0  0  0  0  0
    6.4151    7.0523  -19.2623 H   0  0  0  0  0  0
    9.5500    8.9759  -21.0959 H   0  0  0  0  0  0
  1  2  2  0  0  0
  1  3  1  0  0  0
  1 34  1  0  0  0
  2  6  1  0  0  0
  2 35  1  0  0  0
  3  5  2  0  0  0
  3 27  1  0  0  0
  4  5  1  0  0  0
  4  6  2  0  0  0
  4 18  1  0  0  0
  5 24  1  0  0  0
  6 10  1  0  0  0
  7 10  2  0  0  0
  7 23  1  0  0  0
  7 33  1  0  0  0
  8 21  1  0  0  0
  8 22  1  0  0  0
  8 36  1  0  0  0
  8 37  1  0  0  0
  9 21  1  0  0  0
  9 31  1  0  0  0
  9 38  1  0  0  0
  9 39  1  0  0  0
 10 40  1  0  0  0
 11 12  1  0  0  0
 11 14  2  0  0  0
 11 15  1  0  0  0
 12 17  1  0  0  0
 12 28  2  0  0  0
 13 28  1  0  0  0
 13 29  2  0  0  0
 13 56  1  0  0  0
 14 29  1  0  0  0
 14 31  1  0  0  0
 15 30  2  0  0  0
 15 41  1  0  0  0
 16 17  2  0  0  0
 16 18  1  0  0  0
 16 30  1  0  0  0
 17 26  1  0  0  0
 18 23  2  0  0  0
 19 20  1  0  0  0
 19 31  1  0  0  0
 19 42  1  0  0  0
 19 43  1  0  0  0
 20 22  1  0  0  0
 20 32  1  0  0  0
 20 44  1  0  0  0
 21 32  1  0  0  0
 21 45  1  0  0  0
 22 46  1  0  0  0
 22 47  1  0  0  0
 23 48  1  0  0  0
 24 25  3  0  0  0
 25 49  1  0  0  0
 32 50  1  0  0  0
 33 51  1  0  0  0
 52 55  1  0  0  0
 52 56  1  0  0  0
 52 61  1  0  0  0
 53 57  2  0  0  0
 53 59  1  0  0  0
 54 58  1  0  0  0
 54 59  2  0  0  0
 55 60  1  0  0  0
 55 62  1  0  0  0
 55 63  1  0  0  0
 56 64  1  0  0  0
 56 65  1  0  0  0
 57 60  1  0  0  0
 57 66  1  0  0  0
 58 60  2  0  0  0
 58 67  1  0  0  0
 59 68  1  0  0  0
M  END
> <s_m_entry_id>
602

> <s_m_entry_name>
000000444.1

> <s_m_Source_Path>
/Users/zaksoul/Documents/3r_UNI/2nd_SEMESTER/BSC/FRAG_RECON/RESULTS/2

> <s_m_Source_File>
000000444.mol2

> <i_m_Source_File_Index>
1

$$$$
No_0_466
                    3D
 Schrodinger Suite 2022-4.
 68 74  0  0  1  0            999 V2000
   -5.1870    3.6380  -21.5680 C   0  0  0  0  0  0
   -5.4840    3.8430  -22.8940 C   0  0  0  0  0  0
   -3.9450    3.3610  -21.2620 C   0  0  0  0  0  0
   -3.1080    3.4910  -23.4490 C   0  0  0  0  0  0
   -2.9150    3.2310  -22.0350 C   0  0  0  0  0  0
   -4.4640    3.7810  -23.9320 C   0  0  0  0  0  0
   -3.7660    3.8100  -26.1490 C   0  0  0  0  0  0
    6.0830    2.8630  -21.1460 C   0  0  0  0  0  0
    5.8800    3.0310  -23.6900 C   0  0  0  0  0  0
   -4.7480    3.9250  -25.2590 C   0  0  0  0  0  0
    2.1070    3.6430  -23.6030 C   0  0  0  0  0  0
    1.3130    4.7630  -23.2740 C   0  0  0  0  0  0
    3.1480    5.9220  -22.6310 C   0  0  0  0  0  0
    3.5180    3.8070  -23.3250 C   0  0  0  0  0  0
    1.5240    2.5410  -24.2600 C   0  0  0  0  0  0
   -0.5850    3.3900  -24.0870 C   0  0  0  0  0  0
   -0.0220    4.5960  -23.4910 C   0  0  0  0  0  0
   -2.0470    3.4240  -24.4030 C   0  0  0  0  0  0
    4.0880    1.2970  -23.0710 C   0  0  0  0  0  0
    5.0440    0.9150  -21.9520 C   0  0  2  0  0  0
    6.6490    2.4330  -22.5170 C   0  0  2  0  0  0
    5.0740    1.9060  -20.7760 C   0  0  0  0  0  0
   -2.4060    3.6020  -25.8200 C   0  0  0  0  0  0
   -1.5620    2.7900  -21.4750 C   0  0  0  0  0  0
   -0.5250    2.4200  -21.0000 C   0  0  0  0  0  0
   -0.8370    5.6520  -23.1160 F   0  0  0  0  0  0
   -3.7020    3.1020  -19.8880 F   0  0  0  0  0  0
    1.8230    5.9090  -22.7450 N   0  0  0  0  0  0
    4.0220    4.9460  -22.8830 N   0  0  0  0  0  0
    0.2090    2.4770  -24.5310 N   0  0  0  0  0  0
    4.4130    2.7460  -23.5350 N   0  0  0  0  0  0
    6.4390    0.9630  -22.4710 N   0  0  1  0  0  0
   -3.9750    3.8400  -27.5330 O   0  0  0  0  0  0
   -5.9683    3.7083  -20.8199 H   0  0  0  0  0  0
   -6.5033    4.0577  -23.1940 H   0  0  0  0  0  0
    5.6269    3.8600  -21.2348 H   0  0  0  0  0  0
    6.8890    2.8539  -20.3975 H   0  0  0  0  0  0
    6.2432    2.5882  -24.6292 H   0  0  0  0  0  0
    6.0414    4.1187  -23.7172 H   0  0  0  0  0  0
   -5.7636    4.1307  -25.5771 H   0  0  0  0  0  0
    2.1413    1.7038  -24.5652 H   0  0  0  0  0  0
    3.0538    1.2556  -22.6987 H   0  0  0  0  0  0
    4.2161    0.6039  -23.9155 H   0  0  0  0  0  0
    4.8128   -0.0965  -21.5866 H   0  0  0  0  0  0
    7.7200    2.6730  -22.5896 H   0  0  0  0  0  0
    4.1009    2.4137  -20.7033 H   0  0  0  0  0  0
    5.3899    1.3791  -19.8635 H   0  0  0  0  0  0
   -1.6575    3.5759  -26.6036 H   0  0  0  0  0  0
    0.3882    2.0949  -20.5809 H   0  0  0  0  0  0
    7.0962    0.4479  -21.7860 H   0  0  0  0  0  0
   -3.1432    3.7411  -27.9811 H   0  0  0  0  0  0
    4.3760    7.1050  -20.8060 N   0  0  1  0  0  0
    7.7980   10.0790  -22.0050 N   0  0  0  0  0  0
    8.6770    8.2290  -20.7340 N   0  0  0  0  0  0
    4.9480    8.3700  -20.2160 C   0  0  0  0  0  0
    3.7430    7.2470  -22.1660 C   0  0  0  0  0  0
    6.5730    9.7570  -21.5620 C   0  0  0  0  0  0
    7.4270    7.9610  -20.3270 C   0  0  0  0  0  0
    8.7820    9.2840  -21.5560 C   0  0  0  0  0  0
    6.3450    8.7030  -20.7190 C   0  0  0  0  0  0
    5.1610    6.3710  -20.9130 H   0  0  0  0  0  0
    4.9650    8.2860  -19.1193 H   0  0  0  0  0  0
    4.2723    9.2107  -20.4319 H   0  0  0  0  0  0
    4.5002    7.5821  -22.8902 H   0  0  0  0  0  0
    2.9504    8.0086  -22.1230 H   0  0  0  0  0  0
    5.7136   10.3403  -21.8722 H   0  0  0  0  0  0
    7.2421    7.1273  -19.6593 H   0  0  0  0  0  0
    9.8066    9.4669  -21.8589 H   0  0  0  0  0  0
  1  2  2  0  0  0
  1  3  1  0  0  0
  1 34  1  0  0  0
  2  6  1  0  0  0
  2 35  1  0  0  0
  3  5  2  0  0  0
  3 27  1  0  0  0
  4  5  1  0  0  0
  4  6  2  0  0  0
  4 18  1  0  0  0
  5 24  1  0  0  0
  6 10  1  0  0  0
  7 10  2  0  0  0
  7 23  1  0  0  0
  7 33  1  0  0  0
  8 21  1  0  0  0
  8 22  1  0  0  0
  8 36  1  0  0  0
  8 37  1  0  0  0
  9 21  1  0  0  0
  9 31  1  0  0  0
  9 38  1  0  0  0
  9 39  1  0  0  0
 10 40  1  0  0  0
 11 12  1  0  0  0
 11 14  2  0  0  0
 11 15  1  0  0  0
 12 17  1  0  0  0
 12 28  2  0  0  0
 13 28  1  0  0  0
 13 29  2  0  0  0
 13 56  1  0  0  0
 14 29  1  0  0  0
 14 31  1  0  0  0
 15 30  2  0  0  0
 15 41  1  0  0  0
 16 17  2  0  0  0
 16 18  1  0  0  0
 16 30  1  0  0  0
 17 26  1  0  0  0
 18 23  2  0  0  0
 19 20  1  0  0  0
 19 31  1  0  0  0
 19 42  1  0  0  0
 19 43  1  0  0  0
 20 22  1  0  0  0
 20 32  1  0  0  0
 20 44  1  0  0  0
 21 32  1  0  0  0
 21 45  1  0  0  0
 22 46  1  0  0  0
 22 47  1  0  0  0
 23 48  1  0  0  0
 24 25  3  0  0  0
 25 49  1  0  0  0
 32 50  1  0  0  0
 33 51  1  0  0  0
 52 55  1  0  0  0
 52 56  1  0  0  0
 52 61  1  0  0  0
 53 57  2  0  0  0
 53 59  1  0  0  0
 54 58  1  0  0  0
 54 59  2  0  0  0
 55 60  1  0  0  0
 55 62  1  0  0  0
 55 63  1  0  0  0
 56 64  1  0  0  0
 56 65  1  0  0  0
 57 60  1  0  0  0
 57 66  1  0  0  0
 58 60  2  0  0  0
 58 67  1  0  0  0
 59 68  1  0  0  0
M  END
> <s_m_entry_id>
603

> <s_m_entry_name>
000000445.1

> <s_m_Source_Path>
/Users/zaksoul/Documents/3r_UNI/2nd_SEMESTER/BSC/FRAG_RECON/RESULTS/2

> <s_m_Source_File>
000000445.mol2

> <i_m_Source_File_Index>
1

$$$$
No_0_467
                    3D
 Schrodinger Suite 2022-4.
 68 74  0  0  1  0            999 V2000
   -5.3480    3.5080  -21.9200 C   0  0  0  0  0  0
   -5.6170    3.7010  -23.2540 C   0  0  0  0  0  0
   -4.1090    3.2560  -21.5820 C   0  0  0  0  0  0
   -3.2220    3.3890  -23.7490 C   0  0  0  0  0  0
   -3.0580    3.1400  -22.3290 C   0  0  0  0  0  0
   -4.5700    3.6510  -24.2670 C   0  0  0  0  0  0
   -3.8190    3.6800  -26.4660 C   0  0  0  0  0  0
    5.9200    2.9400  -21.2200 C   0  0  0  0  0  0
    5.7770    3.0890  -23.7680 C   0  0  0  0  0  0
   -4.8240    3.7820  -25.6010 C   0  0  0  0  0  0
    1.9910    3.6340  -23.7780 C   0  0  0  0  0  0
    1.1700    4.7410  -23.4740 C   0  0  0  0  0  0
    2.9680    5.9360  -22.7940 C   0  0  0  0  0  0
    3.3920    3.8250  -23.4660 C   0  0  0  0  0  0
    1.4450    2.5180  -24.4410 C   0  0  0  0  0  0
   -0.6830    3.3290  -24.3240 C   0  0  0  0  0  0
   -0.1560    4.5480  -23.7230 C   0  0  0  0  0  0
   -2.1370    3.3350  -24.6760 C   0  0  0  0  0  0
    4.0010    1.3270  -23.1820 C   0  0  0  0  0  0
    4.9360    0.9690  -22.0380 C   0  0  2  0  0  0
    6.5270    2.5120  -22.5730 C   0  0  2  0  0  0
    4.9200    1.9670  -20.8680 C   0  0  0  0  0  0
   -2.4650    3.4980  -26.1030 C   0  0  0  0  0  0
   -1.7130    2.7270  -21.7340 C   0  0  0  0  0  0
   -0.6810    2.3780  -21.2310 C   0  0  0  0  0  0
   -0.9980    5.5910  -23.3740 F   0  0  0  0  0  0
   -3.8960    3.0090  -20.2010 F   0  0  0  0  0  0
    1.6470    5.8990  -22.9400 N   0  0  0  0  0  0
    3.8650    4.9750  -23.0180 N   0  0  0  0  0  0
    0.1380    2.4280  -24.7440 N   0  0  0  0  0  0
    4.3110    2.7780  -23.6480 N   0  0  0  0  0  0
    6.3420    1.0380  -22.5230 N   0  0  1  0  0  0
   -3.9940    3.6980  -27.8550 O   0  0  0  0  0  0
   -6.1485    3.5692  -21.1917 H   0  0  0  0  0  0
   -6.6322    3.8958  -23.5803 H   0  0  0  0  0  0
    5.4478    3.9278  -21.3259 H   0  0  0  0  0  0
    6.7073    2.9491  -20.4519 H   0  0  0  0  0  0
    6.1696    2.6469  -24.6956 H   0  0  0  0  0  0
    5.9182    4.1795  -23.7983 H   0  0  0  0  0  0
   -5.8351    3.9676  -25.9450 H   0  0  0  0  0  0
    2.0842    1.6902  -24.7260 H   0  0  0  0  0  0
    2.9588    1.2685  -22.8349 H   0  0  0  0  0  0
    4.1614    0.6319  -24.0193 H   0  0  0  0  0  0
    4.7139   -0.0445  -21.6726 H   0  0  0  0  0  0
    7.5952    2.7702  -22.6214 H   0  0  0  0  0  0
    3.9360    2.4565  -20.8216 H   0  0  0  0  0  0
    5.2219    1.4501  -19.9452 H   0  0  0  0  0  0
   -1.6966    3.4809  -26.8674 H   0  0  0  0  0  0
    0.2276    2.0721  -20.7882 H   0  0  0  0  0  0
    6.9913    0.5385  -21.8192 H   0  0  0  0  0  0
   -3.1500    3.6119  -28.2825 H   0  0  0  0  0  0
    4.3200    7.1100  -21.0520 N   0  0  1  0  0  0
    7.3890   10.3680  -22.4500 N   0  0  0  0  0  0
    8.5220    8.5220  -21.3920 N   0  0  0  0  0  0
    4.8740    8.3800  -20.4570 C   0  0  0  0  0  0
    3.5270    7.2750  -22.3230 C   0  0  0  0  0  0
    6.2450    9.9400  -21.8940 C   0  0  0  0  0  0
    7.3460    8.1490  -20.8650 C   0  0  0  0  0  0
    8.4650    9.6220  -22.1590 C   0  0  0  0  0  0
    6.1810    8.8330  -21.0920 C   0  0  0  0  0  0
    5.1321    6.4379  -21.2870 H   0  0  0  0  0  0
    5.0220    8.2430  -19.3757 H   0  0  0  0  0  0
    4.1269    9.1821  -20.5490 H   0  0  0  0  0  0
    4.1741    7.6970  -23.1061 H   0  0  0  0  0  0
    2.6985    7.9774  -22.1489 H   0  0  0  0  0  0
    5.3211   10.4780  -22.0730 H   0  0  0  0  0  0
    7.2900    7.2722  -20.2301 H   0  0  0  0  0  0
    9.4349    9.8890  -22.5629 H   0  0  0  0  0  0
  1  2  2  0  0  0
  1  3  1  0  0  0
  1 34  1  0  0  0
  2  6  1  0  0  0
  2 35  1  0  0  0
  3  5  2  0  0  0
  3 27  1  0  0  0
  4  5  1  0  0  0
  4  6  2  0  0  0
  4 18  1  0  0  0
  5 24  1  0  0  0
  6 10  1  0  0  0
  7 10  2  0  0  0
  7 23  1  0  0  0
  7 33  1  0  0  0
  8 21  1  0  0  0
  8 22  1  0  0  0
  8 36  1  0  0  0
  8 37  1  0  0  0
  9 21  1  0  0  0
  9 31  1  0  0  0
  9 38  1  0  0  0
  9 39  1  0  0  0
 10 40  1  0  0  0
 11 12  1  0  0  0
 11 14  2  0  0  0
 11 15  1  0  0  0
 12 17  1  0  0  0
 12 28  2  0  0  0
 13 28  1  0  0  0
 13 29  2  0  0  0
 13 56  1  0  0  0
 14 29  1  0  0  0
 14 31  1  0  0  0
 15 30  2  0  0  0
 15 41  1  0  0  0
 16 17  2  0  0  0
 16 18  1  0  0  0
 16 30  1  0  0  0
 17 26  1  0  0  0
 18 23  2  0  0  0
 19 20  1  0  0  0
 19 31  1  0  0  0
 19 42  1  0  0  0
 19 43  1  0  0  0
 20 22  1  0  0  0
 20 32  1  0  0  0
 20 44  1  0  0  0
 21 32  1  0  0  0
 21 45  1  0  0  0
 22 46  1  0  0  0
 22 47  1  0  0  0
 23 48  1  0  0  0
 24 25  3  0  0  0
 25 49  1  0  0  0
 32 50  1  0  0  0
 33 51  1  0  0  0
 52 55  1  0  0  0
 52 56  1  0  0  0
 52 61  1  0  0  0
 53 57  2  0  0  0
 53 59  1  0  0  0
 54 58  1  0  0  0
 54 59  2  0  0  0
 55 60  1  0  0  0
 55 62  1  0  0  0
 55 63  1  0  0  0
 56 64  1  0  0  0
 56 65  1  0  0  0
 57 60  1  0  0  0
 57 66  1  0  0  0
 58 60  2  0  0  0
 58 67  1  0  0  0
 59 68  1  0  0  0
M  END
> <s_m_entry_id>
604

> <s_m_entry_name>
000000446.1

> <s_m_Source_Path>
/Users/zaksoul/Documents/3r_UNI/2nd_SEMESTER/BSC/FRAG_RECON/RESULTS/2

> <s_m_Source_File>
000000446.mol2

> <i_m_Source_File_Index>
1

$$$$
No_0_468
                    3D
 Schrodinger Suite 2022-4.
 68 74  0  0  1  0            999 V2000
   -5.4370    3.5300  -22.0020 C   0  0  0  0  0  0
   -5.6790    3.7110  -23.3430 C   0  0  0  0  0  0
   -4.2080    3.2640  -21.6390 C   0  0  0  0  0  0
   -3.2810    3.3590  -23.7910 C   0  0  0  0  0  0
   -3.1460    3.1250  -22.3660 C   0  0  0  0  0  0
   -4.6160    3.6350  -24.3360 C   0  0  0  0  0  0
   -3.8260    3.6270  -26.5210 C   0  0  0  0  0  0
    5.8070    2.8100  -21.0940 C   0  0  0  0  0  0
    5.7110    2.9320  -23.6460 C   0  0  0  0  0  0
   -4.8440    3.7540  -25.6760 C   0  0  0  0  0  0
    1.9350    3.5300  -23.7290 C   0  0  0  0  0  0
    1.1240    4.6520  -23.4530 C   0  0  0  0  0  0
    2.9270    5.8300  -22.7540 C   0  0  0  0  0  0
    3.3330    3.7050  -23.3950 C   0  0  0  0  0  0
    1.3850    2.4150  -24.3900 C   0  0  0  0  0  0
   -0.7330    3.2570  -24.3200 C   0  0  0  0  0  0
   -0.2000    4.4750  -23.7230 C   0  0  0  0  0  0
   -2.1800    3.2790  -24.6980 C   0  0  0  0  0  0
    3.9000    1.2020  -23.0720 C   0  0  0  0  0  0
    4.8110    0.8440  -21.9080 C   0  0  2  0  0  0
    6.4320    2.3590  -22.4320 C   0  0  2  0  0  0
    4.7870    1.8560  -20.7500 C   0  0  0  0  0  0
   -2.4800    3.4310  -26.1320 C   0  0  0  0  0  0
   -1.8170    2.6990  -21.7420 C   0  0  0  0  0  0
   -0.7990    2.3420  -21.2170 C   0  0  0  0  0  0
   -1.0330    5.5350  -23.4010 F   0  0  0  0  0  0
   -4.0230    3.0300  -20.2510 F   0  0  0  0  0  0
    1.6080    5.8090  -22.9240 N   0  0  0  0  0  0
    3.8140    4.8530  -22.9520 N   0  0  0  0  0  0
    0.0820    2.3400  -24.7150 N   0  0  0  0  0  0
    4.2400    2.6440  -23.5490 N   0  0  0  0  0  0
    6.2260    0.8880  -22.3680 N   0  0  1  0  0  0
   -3.9760    3.6320  -27.9140 O   0  0  0  0  0  0
   -6.2494    3.6102  -21.2889 H   0  0  0  0  0  0
   -6.6856    3.9157  -23.6892 H   0  0  0  0  0  0
    5.3520    3.8037  -21.2191 H   0  0  0  0  0  0
    6.5808    2.8171  -20.3122 H   0  0  0  0  0  0
    6.1147    2.4748  -24.5614 H   0  0  0  0  0  0
    5.8694    4.0198  -23.6864 H   0  0  0  0  0  0
   -5.8461    3.9496  -26.0401 H   0  0  0  0  0  0
    2.0173    1.5750  -24.6539 H   0  0  0  0  0  0
    2.8511    1.1626  -22.7429 H   0  0  0  0  0  0
    4.0664    0.4950  -23.8981 H   0  0  0  0  0  0
    4.5669   -0.1616  -21.5348 H   0  0  0  0  0  0
    7.5046    2.6012  -22.4633 H   0  0  0  0  0  0
    3.8095    2.3599  -20.7258 H   0  0  0  0  0  0
    5.0655    1.3465  -19.8157 H   0  0  0  0  0  0
   -1.6990    3.3939  -26.8828 H   0  0  0  0  0  0
    0.0967    2.0281  -20.7541 H   0  0  0  0  0  0
    6.8551    0.3873  -21.6469 H   0  0  0  0  0  0
   -3.1256    3.5290  -28.3248 H   0  0  0  0  0  0
    4.4970    6.9670  -21.1790 N   0  0  1  0  0  0
    7.1420   10.4700  -22.8280 N   0  0  0  0  0  0
    8.5160    8.6270  -22.1010 N   0  0  0  0  0  0
    5.0850    8.2270  -20.5950 C   0  0  0  0  0  0
    3.4970    7.1650  -22.2890 C   0  0  0  0  0  0
    6.1270    9.9460  -22.1240 C   0  0  0  0  0  0
    7.4620    8.1580  -21.4160 C   0  0  0  0  0  0
    8.2840    9.7680  -22.7700 C   0  0  0  0  0  0
    6.2470    8.7890  -21.4010 C   0  0  0  0  0  0
    5.2873    6.3558  -21.5892 H   0  0  0  0  0  0
    5.4171    8.0310  -19.5648 H   0  0  0  0  0  0
    4.2983    8.9907  -20.5069 H   0  0  0  0  0  0
    3.9852    7.6702  -23.1354 H   0  0  0  0  0  0
    2.6790    7.8090  -21.9340 H   0  0  0  0  0  0
    5.1628   10.4411  -22.1120 H   0  0  0  0  0  0
    7.5520    7.2422  -20.8431 H   0  0  0  0  0  0
    9.1607   10.1119  -23.3068 H   0  0  0  0  0  0
  1  2  2  0  0  0
  1  3  1  0  0  0
  1 34  1  0  0  0
  2  6  1  0  0  0
  2 35  1  0  0  0
  3  5  2  0  0  0
  3 27  1  0  0  0
  4  5  1  0  0  0
  4  6  2  0  0  0
  4 18  1  0  0  0
  5 24  1  0  0  0
  6 10  1  0  0  0
  7 10  2  0  0  0
  7 23  1  0  0  0
  7 33  1  0  0  0
  8 21  1  0  0  0
  8 22  1  0  0  0
  8 36  1  0  0  0
  8 37  1  0  0  0
  9 21  1  0  0  0
  9 31  1  0  0  0
  9 38  1  0  0  0
  9 39  1  0  0  0
 10 40  1  0  0  0
 11 12  1  0  0  0
 11 14  2  0  0  0
 11 15  1  0  0  0
 12 17  1  0  0  0
 12 28  2  0  0  0
 13 28  1  0  0  0
 13 29  2  0  0  0
 13 56  1  0  0  0
 14 29  1  0  0  0
 14 31  1  0  0  0
 15 30  2  0  0  0
 15 41  1  0  0  0
 16 17  2  0  0  0
 16 18  1  0  0  0
 16 30  1  0  0  0
 17 26  1  0  0  0
 18 23  2  0  0  0
 19 20  1  0  0  0
 19 31  1  0  0  0
 19 42  1  0  0  0
 19 43  1  0  0  0
 20 22  1  0  0  0
 20 32  1  0  0  0
 20 44  1  0  0  0
 21 32  1  0  0  0
 21 45  1  0  0  0
 22 46  1  0  0  0
 22 47  1  0  0  0
 23 48  1  0  0  0
 24 25  3  0  0  0
 25 49  1  0  0  0
 32 50  1  0  0  0
 33 51  1  0  0  0
 52 55  1  0  0  0
 52 56  1  0  0  0
 52 61  1  0  0  0
 53 57  2  0  0  0
 53 59  1  0  0  0
 54 58  1  0  0  0
 54 59  2  0  0  0
 55 60  1  0  0  0
 55 62  1  0  0  0
 55 63  1  0  0  0
 56 64  1  0  0  0
 56 65  1  0  0  0
 57 60  1  0  0  0
 57 66  1  0  0  0
 58 60  2  0  0  0
 58 67  1  0  0  0
 59 68  1  0  0  0
M  END
> <s_m_entry_id>
605

> <s_m_entry_name>
000000447.1

> <s_m_Source_Path>
/Users/zaksoul/Documents/3r_UNI/2nd_SEMESTER/BSC/FRAG_RECON/RESULTS/2

> <s_m_Source_File>
000000447.mol2

> <i_m_Source_File_Index>
1

$$$$
No_0_469
                    3D
 Schrodinger Suite 2022-4.
 66 72  0  0  1  0            999 V2000
   -5.3090    3.5960  -21.8920 C   0  0  0  0  0  0
   -5.5770    3.7780  -23.2280 C   0  0  0  0  0  0
   -4.0710    3.3410  -21.5520 C   0  0  0  0  0  0
   -3.1830    3.4520  -23.7190 C   0  0  0  0  0  0
   -3.0200    3.2150  -22.2980 C   0  0  0  0  0  0
   -4.5300    3.7160  -24.2400 C   0  0  0  0  0  0
   -3.7790    3.7240  -26.4390 C   0  0  0  0  0  0
    5.9570    2.9870  -21.1860 C   0  0  0  0  0  0
    5.8140    3.1160  -23.7350 C   0  0  0  0  0  0
   -4.7830    3.8370  -25.5750 C   0  0  0  0  0  0
    2.0310    3.6760  -23.7500 C   0  0  0  0  0  0
    1.2140    4.7890  -23.4550 C   0  0  0  0  0  0
    3.0180    5.9820  -22.7850 C   0  0  0  0  0  0
    3.4330    3.8640  -23.4400 C   0  0  0  0  0  0
    1.4800    2.5570  -24.4040 C   0  0  0  0  0  0
   -0.6440    3.3780  -24.2940 C   0  0  0  0  0  0
   -0.1120    4.6000  -23.7030 C   0  0  0  0  0  0
   -2.0980    3.3860  -24.6460 C   0  0  0  0  0  0
    4.0310    1.3660  -23.1350 C   0  0  0  0  0  0
    4.9650    1.0130  -21.9880 C   0  0  2  0  0  0
    6.5620    2.5460  -22.5360 C   0  0  2  0  0  0
    4.9530    2.0210  -20.8270 C   0  0  0  0  0  0
   -2.4250    3.5390  -26.0750 C   0  0  0  0  0  0
   -1.6760    2.8010  -21.6990 C   0  0  0  0  0  0
   -0.6460    2.4530  -21.1930 C   0  0  0  0  0  0
   -0.9500    5.6490  -23.3630 F   0  0  0  0  0  0
   -3.8590    3.1050  -20.1690 F   0  0  0  0  0  0
    1.6960    5.9490  -22.9310 N   0  0  0  0  0  0
    3.9110    5.0160  -23.0010 N   0  0  0  0  0  0
    0.1730    2.4700  -24.7060 N   0  0  0  0  0  0
    4.3470    2.8120  -23.6130 N   0  0  0  0  0  0
    6.3720    1.0730  -22.4730 N   0  0  1  0  0  0
   -3.9540    3.7310  -27.8290 O   0  0  0  0  0  0
   -6.1092    3.6653  -21.1641 H   0  0  0  0  0  0
   -6.5914    3.9749  -23.5554 H   0  0  0  0  0  0
    5.4888    3.9758  -21.3000 H   0  0  0  0  0  0
    6.7443    2.9991  -20.4179 H   0  0  0  0  0  0
    6.2053    2.6651  -24.6589 H   0  0  0  0  0  0
    5.9603    4.2055  -23.7743 H   0  0  0  0  0  0
   -5.7932    4.0236  -25.9211 H   0  0  0  0  0  0
    2.1160    1.7243  -24.6819 H   0  0  0  0  0  0
    2.9885    1.3145  -22.7878 H   0  0  0  0  0  0
    4.1894    0.6630  -23.9661 H   0  0  0  0  0  0
    4.7389    0.0037  -21.6136 H   0  0  0  0  0  0
    7.6313    2.7992  -22.5854 H   0  0  0  0  0  0
    3.9713    2.5154  -20.7836 H   0  0  0  0  0  0
    5.2528    1.5113  -19.8995 H   0  0  0  0  0  0
   -1.6562    3.5129  -26.8388 H   0  0  0  0  0  0
    0.2611    2.1460  -20.7480 H   0  0  0  0  0  0
    7.0191    0.5767  -21.7649 H   0  0  0  0  0  0
   -3.1102    3.6380  -28.2554 H   0  0  0  0  0  0
    7.1300    9.7340  -21.0420 O   0  0  0  0  0  0
    4.6050    7.1560  -21.2340 N   0  0  1  0  0  0
    6.5700   10.8140  -22.7940 N   0  0  0  0  0  0
    5.0040    8.4250  -20.5210 C   0  0  0  0  0  0
    3.5820    7.3220  -22.3250 C   0  0  0  0  0  0
    5.8280    9.3950  -21.3520 C   0  0  0  0  0  0
    5.4810   10.0720  -22.4410 C   0  0  0  0  0  0
    7.5150   10.5670  -21.9180 C   0  0  0  0  0  0
    5.4749    6.7130  -21.6960 H   0  0  0  0  0  0
    5.5570    8.1700  -19.6050 H   0  0  0  0  0  0
    4.1012    8.9359  -20.1551 H   0  0  0  0  0  0
    4.0409    7.8389  -23.1807 H   0  0  0  0  0  0
    2.7622    7.9599  -21.9631 H   0  0  0  0  0  0
    4.5691   10.1260  -23.0339 H   0  0  0  0  0  0
    8.4816   11.0608  -22.0060 H   0  0  0  0  0  0
  1  2  2  0  0  0
  1  3  1  0  0  0
  1 34  1  0  0  0
  2  6  1  0  0  0
  2 35  1  0  0  0
  3  5  2  0  0  0
  3 27  1  0  0  0
  4  5  1  0  0  0
  4  6  2  0  0  0
  4 18  1  0  0  0
  5 24  1  0  0  0
  6 10  1  0  0  0
  7 10  2  0  0  0
  7 23  1  0  0  0
  7 33  1  0  0  0
  8 21  1  0  0  0
  8 22  1  0  0  0
  8 36  1  0  0  0
  8 37  1  0  0  0
  9 21  1  0  0  0
  9 31  1  0  0  0
  9 38  1  0  0  0
  9 39  1  0  0  0
 10 40  1  0  0  0
 11 12  1  0  0  0
 11 14  2  0  0  0
 11 15  1  0  0  0
 12 17  1  0  0  0
 12 28  2  0  0  0
 13 28  1  0  0  0
 13 29  2  0  0  0
 13 56  1  0  0  0
 14 29  1  0  0  0
 14 31  1  0  0  0
 15 30  2  0  0  0
 15 41  1  0  0  0
 16 17  2  0  0  0
 16 18  1  0  0  0
 16 30  1  0  0  0
 17 26  1  0  0  0
 18 23  2  0  0  0
 19 20  1  0  0  0
 19 31  1  0  0  0
 19 42  1  0  0  0
 19 43  1  0  0  0
 20 22  1  0  0  0
 20 32  1  0  0  0
 20 44  1  0  0  0
 21 32  1  0  0  0
 21 45  1  0  0  0
 22 46  1  0  0  0
 22 47  1  0  0  0
 23 48  1  0  0  0
 24 25  3  0  0  0
 25 49  1  0  0  0
 32 50  1  0  0  0
 33 51  1  0  0  0
 52 57  1  0  0  0
 52 59  1  0  0  0
 53 55  1  0  0  0
 53 56  1  0  0  0
 53 60  1  0  0  0
 54 58  1  0  0  0
 54 59  2  0  0  0
 55 57  1  0  0  0
 55 61  1  0  0  0
 55 62  1  0  0  0
 56 63  1  0  0  0
 56 64  1  0  0  0
 57 58  2  0  0  0
 58 65  1  0  0  0
 59 66  1  0  0  0
M  END
> <s_m_entry_id>
606

> <s_m_entry_name>
000000448.1

> <s_m_Source_Path>
/Users/zaksoul/Documents/3r_UNI/2nd_SEMESTER/BSC/FRAG_RECON/RESULTS/2

> <s_m_Source_File>
000000448.mol2

> <i_m_Source_File_Index>
1

$$$$
No_0_470
                    3D
 Schrodinger Suite 2022-4.
 66 72  0  0  1  0            999 V2000
   -5.1810    3.6090  -21.8530 C   0  0  0  0  0  0
   -5.4520    3.8050  -23.1860 C   0  0  0  0  0  0
   -3.9420    3.3510  -21.5190 C   0  0  0  0  0  0
   -3.0590    3.4860  -23.6870 C   0  0  0  0  0  0
   -2.8930    3.2340  -22.2690 C   0  0  0  0  0  0
   -4.4090    3.7540  -24.2010 C   0  0  0  0  0  0
   -3.6630    3.7850  -26.4030 C   0  0  0  0  0  0
    6.0870    3.0010  -21.1820 C   0  0  0  0  0  0
    5.9380    3.1560  -23.7310 C   0  0  0  0  0  0
   -4.6650    3.8890  -25.5350 C   0  0  0  0  0  0
    2.1540    3.7130  -23.7290 C   0  0  0  0  0  0
    1.3370    4.8230  -23.4210 C   0  0  0  0  0  0
    3.1410    6.0110  -22.7430 C   0  0  0  0  0  0
    3.5570    3.8990  -23.4210 C   0  0  0  0  0  0
    1.6030    2.6010  -24.3930 C   0  0  0  0  0  0
   -0.5220    3.4190  -24.2700 C   0  0  0  0  0  0
    0.0100    4.6350  -23.6670 C   0  0  0  0  0  0
   -1.9770    3.4300  -24.6180 C   0  0  0  0  0  0
    4.1570    1.3990  -23.1440 C   0  0  0  0  0  0
    5.0950    1.0350  -22.0030 C   0  0  2  0  0  0
    6.6890    2.5740  -22.5390 C   0  0  2  0  0  0
    5.0840    2.0310  -20.8310 C   0  0  0  0  0  0
   -2.3080    3.5970  -26.0440 C   0  0  0  0  0  0
   -1.5470    2.8150  -21.6780 C   0  0  0  0  0  0
   -0.5150    2.4620  -21.1780 C   0  0  0  0  0  0
   -0.8280    5.6800  -23.3140 F   0  0  0  0  0  0
   -3.7260    3.1020  -20.1390 F   0  0  0  0  0  0
    1.8200    5.9780  -22.8860 N   0  0  0  0  0  0
    4.0350    5.0470  -22.9720 N   0  0  0  0  0  0
    0.2950    2.5160  -24.6930 N   0  0  0  0  0  0
    4.4710    2.8500  -23.6070 N   0  0  0  0  0  0
    6.5000    1.1010  -22.4910 N   0  0  1  0  0  0
   -3.8410    3.8060  -27.7920 O   0  0  0  0  0  0
   -5.9796    3.6712  -21.1226 H   0  0  0  0  0  0
   -6.4675    4.0037  -23.5091 H   0  0  0  0  0  0
    5.6179    3.9906  -21.2849 H   0  0  0  0  0  0
    6.8763    3.0060  -20.4159 H   0  0  0  0  0  0
    6.3275    2.7150  -24.6604 H   0  0  0  0  0  0
    6.0833    4.2460  -23.7593 H   0  0  0  0  0  0
   -5.6765    4.0776  -25.8762 H   0  0  0  0  0  0
    2.2385    1.7718  -24.6821 H   0  0  0  0  0  0
    3.1157    1.3435  -22.7939 H   0  0  0  0  0  0
    4.3144    0.7047  -23.9826 H   0  0  0  0  0  0
    4.8700    0.0218  -21.6387 H   0  0  0  0  0  0
    7.7578    2.8293  -22.5885 H   0  0  0  0  0  0
    4.1018    2.5236  -20.7805 H   0  0  0  0  0  0
    5.3877    1.5123  -19.9097 H   0  0  0  0  0  0
   -1.5411    3.5789  -26.8099 H   0  0  0  0  0  0
    0.3934    2.1519  -20.7378 H   0  0  0  0  0  0
    7.1492    0.5983  -21.7894 H   0  0  0  0  0  0
   -2.9984    3.7179  -28.2217 H   0  0  0  0  0  0
    7.2850    9.9390  -21.5510 O   0  0  0  0  0  0
    4.9650    7.1700  -21.4650 N   0  0  1  0  0  0
    6.2600   11.1270  -22.9960 N   0  0  0  0  0  0
    5.4330    8.3960  -20.7190 C   0  0  0  0  0  0
    3.7060    7.3460  -22.2710 C   0  0  0  0  0  0
    5.9720    9.5140  -21.5970 C   0  0  0  0  0  0
    5.3360   10.2570  -22.4940 C   0  0  0  0  0  0
    7.3980   10.8850  -22.3890 C   0  0  0  0  0  0
    5.7308    6.8561  -22.1588 H   0  0  0  0  0  0
    6.2011    8.1060  -19.9869 H   0  0  0  0  0  0
    4.6091    8.7840  -20.1021 H   0  0  0  0  0  0
    3.9159    7.9836  -23.1425 H   0  0  0  0  0  0
    2.9522    7.8679  -21.6632 H   0  0  0  0  0  0
    4.3096   10.2840  -22.8568 H   0  0  0  0  0  0
    8.2814   11.4723  -22.6351 H   0  0  0  0  0  0
  1  2  2  0  0  0
  1  3  1  0  0  0
  1 34  1  0  0  0
  2  6  1  0  0  0
  2 35  1  0  0  0
  3  5  2  0  0  0
  3 27  1  0  0  0
  4  5  1  0  0  0
  4  6  2  0  0  0
  4 18  1  0  0  0
  5 24  1  0  0  0
  6 10  1  0  0  0
  7 10  2  0  0  0
  7 23  1  0  0  0
  7 33  1  0  0  0
  8 21  1  0  0  0
  8 22  1  0  0  0
  8 36  1  0  0  0
  8 37  1  0  0  0
  9 21  1  0  0  0
  9 31  1  0  0  0
  9 38  1  0  0  0
  9 39  1  0  0  0
 10 40  1  0  0  0
 11 12  1  0  0  0
 11 14  2  0  0  0
 11 15  1  0  0  0
 12 17  1  0  0  0
 12 28  2  0  0  0
 13 28  1  0  0  0
 13 29  2  0  0  0
 13 56  1  0  0  0
 14 29  1  0  0  0
 14 31  1  0  0  0
 15 30  2  0  0  0
 15 41  1  0  0  0
 16 17  2  0  0  0
 16 18  1  0  0  0
 16 30  1  0  0  0
 17 26  1  0  0  0
 18 23  2  0  0  0
 19 20  1  0  0  0
 19 31  1  0  0  0
 19 42  1  0  0  0
 19 43  1  0  0  0
 20 22  1  0  0  0
 20 32  1  0  0  0
 20 44  1  0  0  0
 21 32  1  0  0  0
 21 45  1  0  0  0
 22 46  1  0  0  0
 22 47  1  0  0  0
 23 48  1  0  0  0
 24 25  3  0  0  0
 25 49  1  0  0  0
 32 50  1  0  0  0
 33 51  1  0  0  0
 52 57  1  0  0  0
 52 59  1  0  0  0
 53 55  1  0  0  0
 53 56  1  0  0  0
 53 60  1  0  0  0
 54 58  1  0  0  0
 54 59  2  0  0  0
 55 57  1  0  0  0
 55 61  1  0  0  0
 55 62  1  0  0  0
 56 63  1  0  0  0
 56 64  1  0  0  0
 57 58  2  0  0  0
 58 65  1  0  0  0
 59 66  1  0  0  0
M  END
> <s_m_entry_id>
607

> <s_m_entry_name>
000000449.1

> <s_m_Source_Path>
/Users/zaksoul/Documents/3r_UNI/2nd_SEMESTER/BSC/FRAG_RECON/RESULTS/2

> <s_m_Source_File>
000000449.mol2

> <i_m_Source_File_Index>
1

$$$$
No_0_471
                    3D
 Schrodinger Suite 2022-4.
 72 79  0  0  1  0            999 V2000
   -5.1580    3.9400  -22.2200 C   0  0  0  0  0  0
   -5.4070    4.1130  -23.5610 C   0  0  0  0  0  0
   -3.9300    3.6650  -21.8630 C   0  0  0  0  0  0
   -3.0140    3.7370  -24.0200 C   0  0  0  0  0  0
   -2.8730    3.5110  -22.5950 C   0  0  0  0  0  0
   -4.3500    4.0210  -24.5600 C   0  0  0  0  0  0
   -3.5720    3.9910  -26.7500 C   0  0  0  0  0  0
    6.0840    3.1240  -21.3720 C   0  0  0  0  0  0
    5.9750    3.2290  -23.9240 C   0  0  0  0  0  0
   -4.5850    4.1330  -25.8990 C   0  0  0  0  0  0
    2.2040    3.8610  -23.9900 C   0  0  0  0  0  0
    1.4050    4.9920  -23.7170 C   0  0  0  0  0  0
    3.2220    6.1580  -23.0370 C   0  0  0  0  0  0
    3.6050    4.0250  -23.6650 C   0  0  0  0  0  0
    1.6390    2.7460  -24.6390 C   0  0  0  0  0  0
   -0.4700    3.6080  -24.5640 C   0  0  0  0  0  0
    0.0770    4.8250  -23.9780 C   0  0  0  0  0  0
   -1.9190    3.6410  -24.9340 C   0  0  0  0  0  0
    4.1510    1.5190  -23.3280 C   0  0  0  0  0  0
    5.0650    1.1610  -22.1660 C   0  0  2  0  0  0
    6.6970    2.6570  -22.7100 C   0  0  2  0  0  0
    5.0580    2.1810  -21.0150 C   0  0  0  0  0  0
   -2.2270    3.7850  -26.3670 C   0  0  0  0  0  0
   -1.5440    3.0780  -21.9760 C   0  0  0  0  0  0
   -0.5270    2.7150  -21.4540 C   0  0  0  0  0  0
   -0.7440    5.8940  -23.6590 F   0  0  0  0  0  0
   -3.7390    3.4390  -20.4750 F   0  0  0  0  0  0
    1.9020    6.1480  -23.1980 N   0  0  0  0  0  0
    4.0990    5.1720  -23.2320 N   0  0  0  0  0  0
    0.3340    2.6800  -24.9570 N   0  0  0  0  0  0
    4.5010    2.9540  -23.8160 N   0  0  0  0  0  0
    6.4780    1.1890  -22.6350 N   0  0  1  0  0  0
   -3.7300    3.9880  -28.1410 O   0  0  0  0  0  0
   -5.9660    4.0323  -21.5033 H   0  0  0  0  0  0
   -6.4132    4.3259  -23.9034 H   0  0  0  0  0  0
    5.6367    4.1205  -21.5022 H   0  0  0  0  0  0
    6.8623    3.1290  -20.5947 H   0  0  0  0  0  0
    6.3687    2.7616  -24.8386 H   0  0  0  0  0  0
    6.1426    4.3151  -23.9725 H   0  0  0  0  0  0
   -5.5872    4.3348  -26.2595 H   0  0  0  0  0  0
    2.2622    1.8990  -24.9019 H   0  0  0  0  0  0
    3.1036    1.4918  -22.9930 H   0  0  0  0  0  0
    4.3064    0.8043  -24.1496 H   0  0  0  0  0  0
    4.8148    0.1600  -21.7846 H   0  0  0  0  0  0
    7.7713    2.8900  -22.7493 H   0  0  0  0  0  0
    4.0851    2.6937  -20.9898 H   0  0  0  0  0  0
    5.3365    1.6755  -20.0786 H   0  0  0  0  0  0
   -1.4503    3.7358  -27.1216 H   0  0  0  0  0  0
    0.3686    2.3961  -20.9942 H   0  0  0  0  0  0
    7.1071    0.6883  -21.9139 H   0  0  0  0  0  0
   -2.8835    3.8741  -28.5568 H   0  0  0  0  0  0
    4.1340    7.4980  -21.1130 N   0  0  1  0  0  0
    7.9590    9.6790  -22.1220 N   0  0  0  0  0  0
    5.9330    9.4520  -23.3590 N   0  0  0  0  0  0
    8.2530    9.5550  -20.8090 N   0  0  0  0  0  0
    6.0690    9.1410  -20.9470 C   0  0  0  0  0  0
    3.8070    7.4920  -22.5840 C   0  0  0  0  0  0
    4.6340    8.8130  -20.5660 C   0  0  0  0  0  0
    6.6200    9.4230  -22.1700 C   0  0  0  0  0  0
    8.0550   10.0050  -24.4070 C   0  0  0  0  0  0
    7.1680    9.2440  -20.1190 C   0  0  0  0  0  0
    8.6970    9.9750  -23.2290 C   0  0  0  0  0  0
    6.6710    9.7370  -24.4310 C   0  0  0  0  0  0
    3.2491    7.2490  -20.5461 H   0  0  0  0  0  0
    4.7176    7.7071  -23.1624 H   0  0  0  0  0  0
    3.0917    8.2984  -22.8031 H   0  0  0  0  0  0
    4.5390    8.8120  -19.4701 H   0  0  0  0  0  0
    3.9721    9.6239  -20.9040 H   0  0  0  0  0  0
    8.6005   10.2322  -25.3158 H   0  0  0  0  0  0
    7.2290    9.1071  -19.0454 H   0  0  0  0  0  0
    9.7587   10.1731  -23.1359 H   0  0  0  0  0  0
    6.2111    9.7740  -25.4119 H   0  0  0  0  0  0
  1  2  2  0  0  0
  1  3  1  0  0  0
  1 34  1  0  0  0
  2  6  1  0  0  0
  2 35  1  0  0  0
  3  5  2  0  0  0
  3 27  1  0  0  0
  4  5  1  0  0  0
  4  6  2  0  0  0
  4 18  1  0  0  0
  5 24  1  0  0  0
  6 10  1  0  0  0
  7 10  2  0  0  0
  7 23  1  0  0  0
  7 33  1  0  0  0
  8 21  1  0  0  0
  8 22  1  0  0  0
  8 36  1  0  0  0
  8 37  1  0  0  0
  9 21  1  0  0  0
  9 31  1  0  0  0
  9 38  1  0  0  0
  9 39  1  0  0  0
 10 40  1  0  0  0
 11 12  1  0  0  0
 11 14  2  0  0  0
 11 15  1  0  0  0
 12 17  1  0  0  0
 12 28  2  0  0  0
 13 28  1  0  0  0
 13 29  2  0  0  0
 13 57  1  0  0  0
 14 29  1  0  0  0
 14 31  1  0  0  0
 15 30  2  0  0  0
 15 41  1  0  0  0
 16 17  2  0  0  0
 16 18  1  0  0  0
 16 30  1  0  0  0
 17 26  1  0  0  0
 18 23  2  0  0  0
 19 20  1  0  0  0
 19 31  1  0  0  0
 19 42  1  0  0  0
 19 43  1  0  0  0
 20 22  1  0  0  0
 20 32  1  0  0  0
 20 44  1  0  0  0
 21 32  1  0  0  0
 21 45  1  0  0  0
 22 46  1  0  0  0
 22 47  1  0  0  0
 23 48  1  0  0  0
 24 25  3  0  0  0
 25 49  1  0  0  0
 32 50  1  0  0  0
 33 51  1  0  0  0
 52 57  1  0  0  0
 52 58  1  0  0  0
 52 64  1  0  0  0
 53 55  1  0  0  0
 53 59  1  0  0  0
 53 62  1  0  0  0
 54 59  1  0  0  0
 54 63  2  0  0  0
 55 61  2  0  0  0
 56 58  1  0  0  0
 56 59  2  0  0  0
 56 61  1  0  0  0
 57 65  1  0  0  0
 57 66  1  0  0  0
 58 67  1  0  0  0
 58 68  1  0  0  0
 60 62  2  0  0  0
 60 63  1  0  0  0
 60 69  1  0  0  0
 61 70  1  0  0  0
 62 71  1  0  0  0
 63 72  1  0  0  0
M  END
> <s_m_entry_id>
608

> <s_m_entry_name>
000000450.1

> <s_m_Source_Path>
/Users/zaksoul/Documents/3r_UNI/2nd_SEMESTER/BSC/FRAG_RECON/RESULTS/2

> <s_m_Source_File>
000000450.mol2

> <i_m_Source_File_Index>
1

$$$$
No_0_472
                    3D
 Schrodinger Suite 2022-4.
 73 79  0  0  1  0            999 V2000
   -5.1420    3.5850  -21.9430 C   0  0  0  0  0  0
   -5.4130    3.7820  -23.2770 C   0  0  0  0  0  0
   -3.9030    3.3270  -21.6090 C   0  0  0  0  0  0
   -3.0190    3.4650  -23.7770 C   0  0  0  0  0  0
   -2.8540    3.2120  -22.3580 C   0  0  0  0  0  0
   -4.3680    3.7330  -24.2910 C   0  0  0  0  0  0
   -3.6210    3.7660  -26.4920 C   0  0  0  0  0  0
    6.1260    2.9820  -21.2660 C   0  0  0  0  0  0
    5.9780    3.1400  -23.8140 C   0  0  0  0  0  0
   -4.6240    3.8680  -25.6250 C   0  0  0  0  0  0
    2.1940    3.6950  -23.8150 C   0  0  0  0  0  0
    1.3770    4.8030  -23.5060 C   0  0  0  0  0  0
    3.1800    5.9920  -22.8260 C   0  0  0  0  0  0
    3.5960    3.8810  -23.5050 C   0  0  0  0  0  0
    1.6430    2.5830  -24.4800 C   0  0  0  0  0  0
   -0.4820    3.4000  -24.3570 C   0  0  0  0  0  0
    0.0500    4.6150  -23.7530 C   0  0  0  0  0  0
   -1.9360    3.4100  -24.7060 C   0  0  0  0  0  0
    4.1980    1.3800  -23.2300 C   0  0  0  0  0  0
    5.1350    1.0160  -22.0890 C   0  0  2  0  0  0
    6.7290    2.5570  -22.6220 C   0  0  2  0  0  0
    5.1230    2.0110  -20.9160 C   0  0  0  0  0  0
   -2.2660    3.5790  -26.1320 C   0  0  0  0  0  0
   -1.5080    2.7920  -21.7670 C   0  0  0  0  0  0
   -0.4760    2.4400  -21.2670 C   0  0  0  0  0  0
   -0.7890    5.6600  -23.4000 F   0  0  0  0  0  0
   -3.6880    3.0770  -20.2290 F   0  0  0  0  0  0
    1.8580    5.9580  -22.9700 N   0  0  0  0  0  0
    4.0730    5.0280  -23.0550 N   0  0  0  0  0  0
    0.3360    2.4970  -24.7810 N   0  0  0  0  0  0
    4.5120    2.8320  -23.6920 N   0  0  0  0  0  0
    6.5400    1.0830  -22.5760 N   0  0  1  0  0  0
   -3.7990    3.7890  -27.8810 O   0  0  0  0  0  0
   -5.9412    3.6452  -21.2131 H   0  0  0  0  0  0
   -6.4283    3.9809  -23.6004 H   0  0  0  0  0  0
    5.6569    3.9716  -21.3689 H   0  0  0  0  0  0
    6.9148    2.9860  -20.4994 H   0  0  0  0  0  0
    6.3685    2.7000  -24.7434 H   0  0  0  0  0  0
    6.1233    4.2300  -23.8412 H   0  0  0  0  0  0
   -5.6353    4.0576  -25.9661 H   0  0  0  0  0  0
    2.2798    1.7547  -24.7688 H   0  0  0  0  0  0
    3.1564    1.3245  -22.8808 H   0  0  0  0  0  0
    4.3554    0.6868  -24.0695 H   0  0  0  0  0  0
    4.9099    0.0025  -21.7256 H   0  0  0  0  0  0
    7.7978    2.8123  -22.6715 H   0  0  0  0  0  0
    4.1407    2.5036  -20.8665 H   0  0  0  0  0  0
    5.4257    1.4914  -19.9949 H   0  0  0  0  0  0
   -1.4991    3.5619  -26.8979 H   0  0  0  0  0  0
    0.4321    2.1290  -20.8269 H   0  0  0  0  0  0
    7.1896    0.5800  -21.8750 H   0  0  0  0  0  0
   -2.9561    3.7019  -28.3104 H   0  0  0  0  0  0
    4.3510    7.2080  -20.9780 N   0  0  1  0  0  0
    8.5160    8.8600  -21.3960 N   0  0  0  0  0  0
    7.9000    9.7070  -22.2430 N   0  0  0  0  0  0
    4.9350    8.4790  -20.4190 C   0  0  0  0  0  0
    7.5230    8.3130  -20.6460 C   0  0  0  0  0  0
    3.7430    7.3270  -22.3520 C   0  0  0  0  0  0
    6.3130    8.7880  -20.9830 C   0  0  0  0  0  0
    9.9670    8.6580  -21.3360 C   0  0  0  0  0  0
    6.6140    9.6810  -22.0200 C   0  0  0  0  0  0
    7.8140    7.2870  -19.5650 C   0  0  0  0  0  0
    5.1235    6.4566  -21.0490 H   0  0  0  0  0  0
    4.9980    8.4020  -19.3235 H   0  0  0  0  0  0
    4.2560    9.3180  -20.6310 H   0  0  0  0  0  0
    4.5086    7.6738  -23.0616 H   0  0  0  0  0  0
    2.9397    8.0783  -22.3330 H   0  0  0  0  0  0
   10.2029    7.9155  -20.5595 H   0  0  0  0  0  0
   10.3279    8.2951  -22.3097 H   0  0  0  0  0  0
   10.4620    9.6100  -21.0940 H   0  0  0  0  0  0
    5.9486   10.3014  -22.6094 H   0  0  0  0  0  0
    6.8722    6.9811  -19.0861 H   0  0  0  0  0  0
    8.2999    6.4082  -20.0139 H   0  0  0  0  0  0
    8.4818    7.7279  -18.8102 H   0  0  0  0  0  0
  1  2  2  0  0  0
  1  3  1  0  0  0
  1 34  1  0  0  0
  2  6  1  0  0  0
  2 35  1  0  0  0
  3  5  2  0  0  0
  3 27  1  0  0  0
  4  5  1  0  0  0
  4  6  2  0  0  0
  4 18  1  0  0  0
  5 24  1  0  0  0
  6 10  1  0  0  0
  7 10  2  0  0  0
  7 23  1  0  0  0
  7 33  1  0  0  0
  8 21  1  0  0  0
  8 22  1  0  0  0
  8 36  1  0  0  0
  8 37  1  0  0  0
  9 21  1  0  0  0
  9 31  1  0  0  0
  9 38  1  0  0  0
  9 39  1  0  0  0
 10 40  1  0  0  0
 11 12  1  0  0  0
 11 14  2  0  0  0
 11 15  1  0  0  0
 12 17  1  0  0  0
 12 28  2  0  0  0
 13 28  1  0  0  0
 13 29  2  0  0  0
 13 57  1  0  0  0
 14 29  1  0  0  0
 14 31  1  0  0  0
 15 30  2  0  0  0
 15 41  1  0  0  0
 16 17  2  0  0  0
 16 18  1  0  0  0
 16 30  1  0  0  0
 17 26  1  0  0  0
 18 23  2  0  0  0
 19 20  1  0  0  0
 19 31  1  0  0  0
 19 42  1  0  0  0
 19 43  1  0  0  0
 20 22  1  0  0  0
 20 32  1  0  0  0
 20 44  1  0  0  0
 21 32  1  0  0  0
 21 45  1  0  0  0
 22 46  1  0  0  0
 22 47  1  0  0  0
 23 48  1  0  0  0
 24 25  3  0  0  0
 25 49  1  0  0  0
 32 50  1  0  0  0
 33 51  1  0  0  0
 52 55  1  0  0  0
 52 57  1  0  0  0
 52 62  1  0  0  0
 53 54  1  0  0  0
 53 56  1  0  0  0
 53 59  1  0  0  0
 54 60  2  0  0  0
 55 58  1  0  0  0
 55 63  1  0  0  0
 55 64  1  0  0  0
 56 58  2  0  0  0
 56 61  1  0  0  0
 57 65  1  0  0  0
 57 66  1  0  0  0
 58 60  1  0  0  0
 59 67  1  0  0  0
 59 68  1  0  0  0
 59 69  1  0  0  0
 60 70  1  0  0  0
 61 71  1  0  0  0
 61 72  1  0  0  0
 61 73  1  0  0  0
M  END
> <s_m_entry_id>
609

> <s_m_entry_name>
000000451.1

> <s_m_Source_Path>
/Users/zaksoul/Documents/3r_UNI/2nd_SEMESTER/BSC/FRAG_RECON/RESULTS/2

> <s_m_Source_File>
000000451.mol2

> <i_m_Source_File_Index>
1

$$$$
No_0_473
                    3D
 Schrodinger Suite 2022-4.
 73 79  0  0  1  0            999 V2000
   -5.2760    3.5770  -22.0640 C   0  0  0  0  0  0
   -5.5410    3.7770  -23.3980 C   0  0  0  0  0  0
   -4.0390    3.3190  -21.7250 C   0  0  0  0  0  0
   -3.1460    3.4610  -23.8890 C   0  0  0  0  0  0
   -2.9860    3.2040  -22.4700 C   0  0  0  0  0  0
   -4.4930    3.7310  -24.4080 C   0  0  0  0  0  0
   -3.7370    3.7690  -26.6060 C   0  0  0  0  0  0
    5.9880    2.9710  -21.3420 C   0  0  0  0  0  0
    5.8510    3.1350  -23.8900 C   0  0  0  0  0  0
   -4.7430    3.8690  -25.7430 C   0  0  0  0  0  0
    2.0680    3.6910  -23.9050 C   0  0  0  0  0  0
    1.2490    4.7980  -23.5970 C   0  0  0  0  0  0
    3.0490    5.9850  -22.9060 C   0  0  0  0  0  0
    3.4680    3.8760  -23.5890 C   0  0  0  0  0  0
    1.5200    2.5800  -24.5750 C   0  0  0  0  0  0
   -0.6060    3.3970  -24.4590 C   0  0  0  0  0  0
   -0.0770    4.6110  -23.8500 C   0  0  0  0  0  0
   -2.0590    3.4090  -24.8140 C   0  0  0  0  0  0
    4.0690    1.3740  -23.3180 C   0  0  0  0  0  0
    5.0010    1.0070  -22.1740 C   0  0  2  0  0  0
    6.5980    2.5490  -22.6970 C   0  0  2  0  0  0
    4.9850    1.9990  -20.9980 C   0  0  0  0  0  0
   -2.3830    3.5810  -26.2410 C   0  0  0  0  0  0
   -1.6430    2.7830  -21.8740 C   0  0  0  0  0  0
   -0.6140    2.4290  -21.3710 C   0  0  0  0  0  0
   -0.9170    5.6550  -23.4970 F   0  0  0  0  0  0
   -3.8290    3.0640  -20.3440 F   0  0  0  0  0  0
    1.7280    5.9520  -23.0560 N   0  0  0  0  0  0
    3.9440    5.0220  -23.1340 N   0  0  0  0  0  0
    0.2130    2.4960  -24.8820 N   0  0  0  0  0  0
    4.3850    2.8270  -23.7750 N   0  0  0  0  0  0
    6.4080    1.0750  -22.6550 N   0  0  1  0  0  0
   -3.9090    3.7950  -27.9950 O   0  0  0  0  0  0
   -6.0781    3.6362  -21.3372 H   0  0  0  0  0  0
   -6.5550    3.9766  -23.7250 H   0  0  0  0  0  0
    5.5197    3.9611  -21.4439 H   0  0  0  0  0  0
    6.7738    2.9730  -20.5723 H   0  0  0  0  0  0
    6.2454    2.6973  -24.8189 H   0  0  0  0  0  0
    5.9963    4.2251  -23.9142 H   0  0  0  0  0  0
   -5.7530    4.0598  -26.0874 H   0  0  0  0  0  0
    2.1572    1.7521  -24.8640 H   0  0  0  0  0  0
    3.0260    1.3175  -22.9730 H   0  0  0  0  0  0
    4.2296    0.6823  -24.1581 H   0  0  0  0  0  0
    4.7749   -0.0074  -21.8137 H   0  0  0  0  0  0
    7.6670    2.8044  -22.7414 H   0  0  0  0  0  0
    4.0024    2.4913  -20.9516 H   0  0  0  0  0  0
    5.2839    1.4769  -20.0771 H   0  0  0  0  0  0
   -1.6131    3.5659  -27.0039 H   0  0  0  0  0  0
    0.2928    2.1181  -20.9281 H   0  0  0  0  0  0
    7.0548    0.5704  -21.9526 H   0  0  0  0  0  0
   -3.0644    3.7090  -28.4213 H   0  0  0  0  0  0
    3.9480    7.2820  -20.9580 N   0  0  1  0  0  0
    8.2830    8.5000  -20.9800 N   0  0  0  0  0  0
    7.8570    9.1600  -22.0770 N   0  0  0  0  0  0
    6.0450    8.6570  -20.8840 C   0  0  0  0  0  0
    3.6110    7.3190  -22.4270 C   0  0  0  0  0  0
    4.6050    8.5260  -20.4240 C   0  0  0  0  0  0
    9.6830    8.1780  -20.6800 C   0  0  0  0  0  0
    7.1560    8.2090  -20.2850 C   0  0  0  0  0  0
   10.6060    9.3680  -20.9870 C   0  0  0  0  0  0
    6.5540    9.2660  -22.0390 C   0  0  0  0  0  0
    3.0438    7.1390  -20.3849 H   0  0  0  0  0  0
    4.5153    7.5638  -23.0035 H   0  0  0  0  0  0
    2.8746    8.1144  -22.6141 H   0  0  0  0  0  0
    4.5720    8.5140  -19.3246 H   0  0  0  0  0  0
    4.0358    9.4093  -20.7491 H   0  0  0  0  0  0
    9.9951    7.3086  -21.2773 H   0  0  0  0  0  0
    9.7760    7.9070  -19.6180 H   0  0  0  0  0  0
    7.2210    7.6660  -19.3490 H   0  0  0  0  0  0
   11.6457    9.0961  -20.7521 H   0  0  0  0  0  0
   10.5270    9.6280  -22.0529 H   0  0  0  0  0  0
   10.3069   10.2323  -20.3758 H   0  0  0  0  0  0
    6.0279    9.7741  -22.8391 H   0  0  0  0  0  0
  1  2  2  0  0  0
  1  3  1  0  0  0
  1 34  1  0  0  0
  2  6  1  0  0  0
  2 35  1  0  0  0
  3  5  2  0  0  0
  3 27  1  0  0  0
  4  5  1  0  0  0
  4  6  2  0  0  0
  4 18  1  0  0  0
  5 24  1  0  0  0
  6 10  1  0  0  0
  7 10  2  0  0  0
  7 23  1  0  0  0
  7 33  1  0  0  0
  8 21  1  0  0  0
  8 22  1  0  0  0
  8 36  1  0  0  0
  8 37  1  0  0  0
  9 21  1  0  0  0
  9 31  1  0  0  0
  9 38  1  0  0  0
  9 39  1  0  0  0
 10 40  1  0  0  0
 11 12  1  0  0  0
 11 14  2  0  0  0
 11 15  1  0  0  0
 12 17  1  0  0  0
 12 28  2  0  0  0
 13 28  1  0  0  0
 13 29  2  0  0  0
 13 56  1  0  0  0
 14 29  1  0  0  0
 14 31  1  0  0  0
 15 30  2  0  0  0
 15 41  1  0  0  0
 16 17  2  0  0  0
 16 18  1  0  0  0
 16 30  1  0  0  0
 17 26  1  0  0  0
 18 23  2  0  0  0
 19 20  1  0  0  0
 19 31  1  0  0  0
 19 42  1  0  0  0
 19 43  1  0  0  0
 20 22  1  0  0  0
 20 32  1  0  0  0
 20 44  1  0  0  0
 21 32  1  0  0  0
 21 45  1  0  0  0
 22 46  1  0  0  0
 22 47  1  0  0  0
 23 48  1  0  0  0
 24 25  3  0  0  0
 25 49  1  0  0  0
 32 50  1  0  0  0
 33 51  1  0  0  0
 52 56  1  0  0  0
 52 57  1  0  0  0
 52 62  1  0  0  0
 53 54  1  0  0  0
 53 58  1  0  0  0
 53 59  1  0  0  0
 54 61  2  0  0  0
 55 57  1  0  0  0
 55 59  2  0  0  0
 55 61  1  0  0  0
 56 63  1  0  0  0
 56 64  1  0  0  0
 57 65  1  0  0  0
 57 66  1  0  0  0
 58 60  1  0  0  0
 58 67  1  0  0  0
 58 68  1  0  0  0
 59 69  1  0  0  0
 60 70  1  0  0  0
 60 71  1  0  0  0
 60 72  1  0  0  0
 61 73  1  0  0  0
M  END
> <s_m_entry_id>
610

> <s_m_entry_name>
000000452.1

> <s_m_Source_Path>
/Users/zaksoul/Documents/3r_UNI/2nd_SEMESTER/BSC/FRAG_RECON/RESULTS/2

> <s_m_Source_File>
000000452.mol2

> <i_m_Source_File_Index>
1

$$$$
No_0_474
                    3D
 Schrodinger Suite 2022-4.
 72 78  0  0  1  0            999 V2000
   -5.1110    3.4500  -22.1250 C   0  0  0  0  0  0
   -5.3660    3.6340  -23.4640 C   0  0  0  0  0  0
   -3.8760    3.2010  -21.7720 C   0  0  0  0  0  0
   -2.9650    3.3220  -23.9300 C   0  0  0  0  0  0
   -2.8170    3.0820  -22.5070 C   0  0  0  0  0  0
   -4.3080    3.5800  -24.4640 C   0  0  0  0  0  0
   -3.5330    3.5960  -26.6560 C   0  0  0  0  0  0
    6.1490    2.8980  -21.3000 C   0  0  0  0  0  0
    6.0330    3.0320  -23.8510 C   0  0  0  0  0  0
   -4.5480    3.7030  -25.8020 C   0  0  0  0  0  0
    2.2480    3.5720  -23.9040 C   0  0  0  0  0  0
    1.4220    4.6800  -23.6160 C   0  0  0  0  0  0
    3.2120    5.8810  -22.9240 C   0  0  0  0  0  0
    3.6450    3.7670  -23.5790 C   0  0  0  0  0  0
    1.7100    2.4520  -24.5670 C   0  0  0  0  0  0
   -0.4200    3.2610  -24.4780 C   0  0  0  0  0  0
    0.0990    4.4850  -23.8780 C   0  0  0  0  0  0
   -1.8700    3.2640  -24.8460 C   0  0  0  0  0  0
    4.2530    1.2710  -23.2740 C   0  0  0  0  0  0
    5.1770    0.9210  -22.1170 C   0  0  2  0  0  0
    6.7710    2.4630  -22.6440 C   0  0  2  0  0  0
    5.1460    1.9260  -20.9540 C   0  0  0  0  0  0
   -2.1820    3.4180  -26.2770 C   0  0  0  0  0  0
   -1.4770    2.6730  -21.8950 C   0  0  0  0  0  0
   -0.4500    2.3290  -21.3790 C   0  0  0  0  0  0
   -0.7480    5.5290  -23.5450 F   0  0  0  0  0  0
   -3.6770    2.9630  -20.3880 F   0  0  0  0  0  0
    1.8920    5.8420  -23.0840 N   0  0  0  0  0  0
    4.1120    4.9200  -23.1330 N   0  0  0  0  0  0
    0.4060    2.3590  -24.8840 N   0  0  0  0  0  0
    4.5670    2.7200  -23.7440 N   0  0  0  0  0  0
    6.5880    0.9890  -22.5870 N   0  0  1  0  0  0
   -3.6930    3.6060  -28.0470 O   0  0  0  0  0  0
   -5.9200    3.5142  -21.4063 H   0  0  0  0  0  0
   -6.3780    3.8268  -23.8013 H   0  0  0  0  0  0
    5.6773    3.8848  -21.4172 H   0  0  0  0  0  0
    6.9278    2.9121  -20.5233 H   0  0  0  0  0  0
    6.4367    2.5849  -24.7714 H   0  0  0  0  0  0
    6.1743    4.1223  -23.8863 H   0  0  0  0  0  0
   -5.5554    3.8848  -26.1586 H   0  0  0  0  0  0
    2.3532    1.6232  -24.8399 H   0  0  0  0  0  0
    3.2075    1.2135  -22.9369 H   0  0  0  0  0  0
    4.4236    0.5705  -24.1048 H   0  0  0  0  0  0
    4.9511   -0.0903  -21.7480 H   0  0  0  0  0  0
    7.8396    2.7213  -22.6823 H   0  0  0  0  0  0
    4.1610    2.4145  -20.9207 H   0  0  0  0  0  0
    5.4386    1.4154  -20.0247 H   0  0  0  0  0  0
   -1.4057    3.3969  -27.0333 H   0  0  0  0  0  0
    0.4540    2.0260  -20.9250 H   0  0  0  0  0  0
    7.2301    0.4946  -21.8732 H   0  0  0  0  0  0
   -2.8443    3.5189  -28.4649 H   0  0  0  0  0  0
    3.3640    7.5270  -21.0360 N   0  0  1  0  0  0
    7.4130    8.5870  -20.4000 N   0  0  3  0  0  0
    6.1790    8.1690  -20.0850 N   0  0  0  0  0  0
    7.3450    9.7060  -21.1270 N   0  0  0  0  0  0
    3.7650    7.2230  -22.4550 C   0  0  0  0  0  0
    5.3290    9.0080  -20.6150 C   0  0  0  0  0  0
    3.8220    8.8660  -20.5190 C   0  0  0  0  0  0
    8.6580    7.9220  -20.0000 C   0  0  0  0  0  0
    8.4740    6.4130  -19.7650 C   0  0  0  0  0  0
    6.0790    9.9880  -21.2760 C   0  0  0  0  0  0
    2.2871    7.5160  -20.9550 H   0  0  0  0  0  0
    4.8623    7.2140  -22.5310 H   0  0  0  0  0  0
    3.3988    8.0213  -23.1173 H   0  0  0  0  0  0
    3.5089    8.9810  -19.4708 H   0  0  0  0  0  0
    3.3413    9.6664  -21.1006 H   0  0  0  0  0  0
    9.0448    8.3897  -19.0826 H   0  0  0  0  0  0
    9.4222    8.0800  -20.7752 H   0  0  0  0  0  0
    9.4347    5.9671  -19.4681 H   0  0  0  0  0  0
    7.7349    6.2540  -18.9659 H   0  0  0  0  0  0
    8.1198    5.9377  -20.6916 H   0  0  0  0  0  0
    5.7810   10.8639  -21.8409 H   0  0  0  0  0  0
  1  2  2  0  0  0
  1  3  1  0  0  0
  1 34  1  0  0  0
  2  6  1  0  0  0
  2 35  1  0  0  0
  3  5  2  0  0  0
  3 27  1  0  0  0
  4  5  1  0  0  0
  4  6  2  0  0  0
  4 18  1  0  0  0
  5 24  1  0  0  0
  6 10  1  0  0  0
  7 10  2  0  0  0
  7 23  1  0  0  0
  7 33  1  0  0  0
  8 21  1  0  0  0
  8 22  1  0  0  0
  8 36  1  0  0  0
  8 37  1  0  0  0
  9 21  1  0  0  0
  9 31  1  0  0  0
  9 38  1  0  0  0
  9 39  1  0  0  0
 10 40  1  0  0  0
 11 12  1  0  0  0
 11 14  2  0  0  0
 11 15  1  0  0  0
 12 17  1  0  0  0
 12 28  2  0  0  0
 13 28  1  0  0  0
 13 29  2  0  0  0
 13 56  1  0  0  0
 14 29  1  0  0  0
 14 31  1  0  0  0
 15 30  2  0  0  0
 15 41  1  0  0  0
 16 17  2  0  0  0
 16 18  1  0  0  0
 16 30  1  0  0  0
 17 26  1  0  0  0
 18 23  2  0  0  0
 19 20  1  0  0  0
 19 31  1  0  0  0
 19 42  1  0  0  0
 19 43  1  0  0  0
 20 22  1  0  0  0
 20 32  1  0  0  0
 20 44  1  0  0  0
 21 32  1  0  0  0
 21 45  1  0  0  0
 22 46  1  0  0  0
 22 47  1  0  0  0
 23 48  1  0  0  0
 24 25  3  0  0  0
 25 49  1  0  0  0
 32 50  1  0  0  0
 33 51  1  0  0  0
 52 56  1  0  0  0
 52 58  1  0  0  0
 52 62  1  0  0  0
 53 54  1  0  0  0
 53 55  1  0  0  0
 53 59  1  0  0  0
 54 57  2  0  0  0
 55 61  2  0  0  0
 56 63  1  0  0  0
 56 64  1  0  0  0
 57 58  1  0  0  0
 57 61  1  0  0  0
 58 65  1  0  0  0
 58 66  1  0  0  0
 59 60  1  0  0  0
 59 67  1  0  0  0
 59 68  1  0  0  0
 60 69  1  0  0  0
 60 70  1  0  0  0
 60 71  1  0  0  0
 61 72  1  0  0  0
M  END
> <s_m_entry_id>
611

> <s_m_entry_name>
000000453.1

> <s_m_Source_Path>
/Users/zaksoul/Documents/3r_UNI/2nd_SEMESTER/BSC/FRAG_RECON/RESULTS/2

> <s_m_Source_File>
000000453.mol2

> <i_m_Source_File_Index>
1

$$$$
No_0_475
                    3D
 Schrodinger Suite 2022-4.
 72 78  0  0  1  0            999 V2000
   -5.1810    3.6090  -21.8530 C   0  0  0  0  0  0
   -5.4520    3.8050  -23.1860 C   0  0  0  0  0  0
   -3.9420    3.3510  -21.5190 C   0  0  0  0  0  0
   -3.0590    3.4860  -23.6870 C   0  0  0  0  0  0
   -2.8930    3.2340  -22.2690 C   0  0  0  0  0  0
   -4.4090    3.7540  -24.2010 C   0  0  0  0  0  0
   -3.6630    3.7850  -26.4030 C   0  0  0  0  0  0
    6.0870    3.0010  -21.1820 C   0  0  0  0  0  0
    5.9380    3.1560  -23.7310 C   0  0  0  0  0  0
   -4.6650    3.8890  -25.5350 C   0  0  0  0  0  0
    2.1540    3.7130  -23.7290 C   0  0  0  0  0  0
    1.3370    4.8230  -23.4210 C   0  0  0  0  0  0
    3.1410    6.0110  -22.7430 C   0  0  0  0  0  0
    3.5570    3.8990  -23.4210 C   0  0  0  0  0  0
    1.6030    2.6010  -24.3930 C   0  0  0  0  0  0
   -0.5220    3.4190  -24.2700 C   0  0  0  0  0  0
    0.0100    4.6350  -23.6670 C   0  0  0  0  0  0
   -1.9770    3.4300  -24.6180 C   0  0  0  0  0  0
    4.1570    1.3990  -23.1440 C   0  0  0  0  0  0
    5.0950    1.0350  -22.0030 C   0  0  2  0  0  0
    6.6890    2.5740  -22.5390 C   0  0  2  0  0  0
    5.0840    2.0310  -20.8310 C   0  0  0  0  0  0
   -2.3080    3.5970  -26.0440 C   0  0  0  0  0  0
   -1.5470    2.8150  -21.6780 C   0  0  0  0  0  0
   -0.5150    2.4620  -21.1780 C   0  0  0  0  0  0
   -0.8280    5.6800  -23.3140 F   0  0  0  0  0  0
   -3.7260    3.1020  -20.1390 F   0  0  0  0  0  0
    1.8200    5.9780  -22.8860 N   0  0  0  0  0  0
    4.0350    5.0470  -22.9720 N   0  0  0  0  0  0
    0.2950    2.5160  -24.6930 N   0  0  0  0  0  0
    4.4710    2.8500  -23.6070 N   0  0  0  0  0  0
    6.5000    1.1010  -22.4910 N   0  0  1  0  0  0
   -3.8410    3.8060  -27.7920 O   0  0  0  0  0  0
   -5.9796    3.6712  -21.1226 H   0  0  0  0  0  0
   -6.4675    4.0037  -23.5091 H   0  0  0  0  0  0
    5.6179    3.9906  -21.2849 H   0  0  0  0  0  0
    6.8763    3.0060  -20.4159 H   0  0  0  0  0  0
    6.3275    2.7150  -24.6604 H   0  0  0  0  0  0
    6.0833    4.2460  -23.7593 H   0  0  0  0  0  0
   -5.6765    4.0776  -25.8762 H   0  0  0  0  0  0
    2.2385    1.7718  -24.6821 H   0  0  0  0  0  0
    3.1157    1.3435  -22.7939 H   0  0  0  0  0  0
    4.3144    0.7047  -23.9826 H   0  0  0  0  0  0
    4.8700    0.0218  -21.6387 H   0  0  0  0  0  0
    7.7578    2.8293  -22.5885 H   0  0  0  0  0  0
    4.1018    2.5236  -20.7805 H   0  0  0  0  0  0
    5.3877    1.5123  -19.9097 H   0  0  0  0  0  0
   -1.5411    3.5789  -26.8099 H   0  0  0  0  0  0
    0.3934    2.1519  -20.7378 H   0  0  0  0  0  0
    7.1492    0.5983  -21.7894 H   0  0  0  0  0  0
   -2.9984    3.7179  -28.2217 H   0  0  0  0  0  0
    3.5140    7.5420  -20.7910 N   0  0  1  0  0  0
    7.5680    8.7570  -20.6940 N   0  0  3  0  0  0
    6.4140    8.2600  -20.2290 N   0  0  0  0  0  0
    7.3470    9.9140  -21.3250 N   0  0  0  0  0  0
    3.7060    7.3460  -22.2710 C   0  0  0  0  0  0
    5.4610    9.0880  -20.5670 C   0  0  0  0  0  0
    3.9930    8.8670  -20.2580 C   0  0  0  0  0  0
    8.8850    8.1300  -20.5310 C   0  0  0  0  0  0
    8.7980    6.6020  -20.3750 C   0  0  0  0  0  0
    6.0630   10.1420  -21.2640 C   0  0  0  0  0  0
    2.4630    7.4730  -20.5520 H   0  0  0  0  0  0
    4.7784    7.3950  -22.5109 H   0  0  0  0  0  0
    3.2132    8.1647  -22.8158 H   0  0  0  0  0  0
    3.8389    8.9010  -19.1694 H   0  0  0  0  0  0
    3.3991    9.6779  -20.7049 H   0  0  0  0  0  0
    9.3881    8.5591  -19.6519 H   0  0  0  0  0  0
    9.5158    8.3729  -21.3988 H   0  0  0  0  0  0
    9.8097    6.1867  -20.2569 H   0  0  0  0  0  0
    8.1950    6.3580  -19.4880 H   0  0  0  0  0  0
    8.3261    6.1681  -21.2689 H   0  0  0  0  0  0
    5.6500   11.0360  -21.7170 H   0  0  0  0  0  0
  1  2  2  0  0  0
  1  3  1  0  0  0
  1 34  1  0  0  0
  2  6  1  0  0  0
  2 35  1  0  0  0
  3  5  2  0  0  0
  3 27  1  0  0  0
  4  5  1  0  0  0
  4  6  2  0  0  0
  4 18  1  0  0  0
  5 24  1  0  0  0
  6 10  1  0  0  0
  7 10  2  0  0  0
  7 23  1  0  0  0
  7 33  1  0  0  0
  8 21  1  0  0  0
  8 22  1  0  0  0
  8 36  1  0  0  0
  8 37  1  0  0  0
  9 21  1  0  0  0
  9 31  1  0  0  0
  9 38  1  0  0  0
  9 39  1  0  0  0
 10 40  1  0  0  0
 11 12  1  0  0  0
 11 14  2  0  0  0
 11 15  1  0  0  0
 12 17  1  0  0  0
 12 28  2  0  0  0
 13 28  1  0  0  0
 13 29  2  0  0  0
 13 56  1  0  0  0
 14 29  1  0  0  0
 14 31  1  0  0  0
 15 30  2  0  0  0
 15 41  1  0  0  0
 16 17  2  0  0  0
 16 18  1  0  0  0
 16 30  1  0  0  0
 17 26  1  0  0  0
 18 23  2  0  0  0
 19 20  1  0  0  0
 19 31  1  0  0  0
 19 42  1  0  0  0
 19 43  1  0  0  0
 20 22  1  0  0  0
 20 32  1  0  0  0
 20 44  1  0  0  0
 21 32  1  0  0  0
 21 45  1  0  0  0
 22 46  1  0  0  0
 22 47  1  0  0  0
 23 48  1  0  0  0
 24 25  3  0  0  0
 25 49  1  0  0  0
 32 50  1  0  0  0
 33 51  1  0  0  0
 52 56  1  0  0  0
 52 58  1  0  0  0
 52 62  1  0  0  0
 53 54  1  0  0  0
 53 55  1  0  0  0
 53 59  1  0  0  0
 54 57  2  0  0  0
 55 61  2  0  0  0
 56 63  1  0  0  0
 56 64  1  0  0  0
 57 58  1  0  0  0
 57 61  1  0  0  0
 58 65  1  0  0  0
 58 66  1  0  0  0
 59 60  1  0  0  0
 59 67  1  0  0  0
 59 68  1  0  0  0
 60 69  1  0  0  0
 60 70  1  0  0  0
 60 71  1  0  0  0
 61 72  1  0  0  0
M  END
> <s_m_entry_id>
612

> <s_m_entry_name>
000000454.1

> <s_m_Source_Path>
/Users/zaksoul/Documents/3r_UNI/2nd_SEMESTER/BSC/FRAG_RECON/RESULTS/2

> <s_m_Source_File>
000000454.mol2

> <i_m_Source_File_Index>
1

$$$$
No_0_476
                    3D
 Schrodinger Suite 2022-4.
 72 78  0  0  1  0            999 V2000
   -5.1810    3.6090  -21.8530 C   0  0  0  0  0  0
   -5.4520    3.8050  -23.1860 C   0  0  0  0  0  0
   -3.9420    3.3510  -21.5190 C   0  0  0  0  0  0
   -3.0590    3.4860  -23.6870 C   0  0  0  0  0  0
   -2.8930    3.2340  -22.2690 C   0  0  0  0  0  0
   -4.4090    3.7540  -24.2010 C   0  0  0  0  0  0
   -3.6630    3.7850  -26.4030 C   0  0  0  0  0  0
    6.0870    3.0010  -21.1820 C   0  0  0  0  0  0
    5.9380    3.1560  -23.7310 C   0  0  0  0  0  0
   -4.6650    3.8890  -25.5350 C   0  0  0  0  0  0
    2.1540    3.7130  -23.7290 C   0  0  0  0  0  0
    1.3370    4.8230  -23.4210 C   0  0  0  0  0  0
    3.1410    6.0110  -22.7430 C   0  0  0  0  0  0
    3.5570    3.8990  -23.4210 C   0  0  0  0  0  0
    1.6030    2.6010  -24.3930 C   0  0  0  0  0  0
   -0.5220    3.4190  -24.2700 C   0  0  0  0  0  0
    0.0100    4.6350  -23.6670 C   0  0  0  0  0  0
   -1.9770    3.4300  -24.6180 C   0  0  0  0  0  0
    4.1570    1.3990  -23.1440 C   0  0  0  0  0  0
    5.0950    1.0350  -22.0030 C   0  0  2  0  0  0
    6.6890    2.5740  -22.5390 C   0  0  2  0  0  0
    5.0840    2.0310  -20.8310 C   0  0  0  0  0  0
   -2.3080    3.5970  -26.0440 C   0  0  0  0  0  0
   -1.5470    2.8150  -21.6780 C   0  0  0  0  0  0
   -0.5150    2.4620  -21.1780 C   0  0  0  0  0  0
   -0.8280    5.6800  -23.3140 F   0  0  0  0  0  0
   -3.7260    3.1020  -20.1390 F   0  0  0  0  0  0
    1.8200    5.9780  -22.8860 N   0  0  0  0  0  0
    4.0350    5.0470  -22.9720 N   0  0  0  0  0  0
    0.2950    2.5160  -24.6930 N   0  0  0  0  0  0
    4.4710    2.8500  -23.6070 N   0  0  0  0  0  0
    6.5000    1.1010  -22.4910 N   0  0  1  0  0  0
   -3.8410    3.8060  -27.7920 O   0  0  0  0  0  0
   -5.9796    3.6712  -21.1226 H   0  0  0  0  0  0
   -6.4675    4.0037  -23.5091 H   0  0  0  0  0  0
    5.6179    3.9906  -21.2849 H   0  0  0  0  0  0
    6.8763    3.0060  -20.4159 H   0  0  0  0  0  0
    6.3275    2.7150  -24.6604 H   0  0  0  0  0  0
    6.0833    4.2460  -23.7593 H   0  0  0  0  0  0
   -5.6765    4.0776  -25.8762 H   0  0  0  0  0  0
    2.2385    1.7718  -24.6821 H   0  0  0  0  0  0
    3.1157    1.3435  -22.7939 H   0  0  0  0  0  0
    4.3144    0.7047  -23.9826 H   0  0  0  0  0  0
    4.8700    0.0218  -21.6387 H   0  0  0  0  0  0
    7.7578    2.8293  -22.5885 H   0  0  0  0  0  0
    4.1018    2.5236  -20.7805 H   0  0  0  0  0  0
    5.3877    1.5123  -19.9097 H   0  0  0  0  0  0
   -1.5411    3.5789  -26.8099 H   0  0  0  0  0  0
    0.3934    2.1519  -20.7378 H   0  0  0  0  0  0
    7.1492    0.5983  -21.7894 H   0  0  0  0  0  0
   -2.9984    3.7179  -28.2217 H   0  0  0  0  0  0
    3.7800    7.4220  -20.7700 N   0  0  1  0  0  0
    7.7060    8.9130  -21.3020 N   0  0  3  0  0  0
    6.6880    8.3040  -20.6800 N   0  0  0  0  0  0
    7.3060   10.0940  -21.7840 N   0  0  0  0  0  0
    3.7060    7.3460  -22.2710 C   0  0  0  0  0  0
    5.6430    9.0840  -20.7720 C   0  0  0  0  0  0
    4.2720    8.7370  -20.2230 C   0  0  0  0  0  0
    9.0640    8.3720  -21.4310 C   0  0  0  0  0  0
    9.0940    6.8350  -21.3890 C   0  0  0  0  0  0
    6.0440   10.2250  -21.4760 C   0  0  0  0  0  0
    2.7971    7.2620  -20.3520 H   0  0  0  0  0  0
    4.7112    7.4890  -22.6941 H   0  0  0  0  0  0
    3.0748    8.1642  -22.6481 H   0  0  0  0  0  0
    4.3200    8.6820  -19.1254 H   0  0  0  0  0  0
    3.5601    9.5329  -20.4870 H   0  0  0  0  0  0
    9.6945    8.7727  -20.6236 H   0  0  0  0  0  0
    9.5092    8.7211  -22.3744 H   0  0  0  0  0  0
   10.1323    6.4859  -21.4890 H   0  0  0  0  0  0
    8.6810    6.4860  -20.4311 H   0  0  0  0  0  0
    8.4908    6.4329  -22.2163 H   0  0  0  0  0  0
    5.5038   11.1173  -21.7711 H   0  0  0  0  0  0
  1  2  2  0  0  0
  1  3  1  0  0  0
  1 34  1  0  0  0
  2  6  1  0  0  0
  2 35  1  0  0  0
  3  5  2  0  0  0
  3 27  1  0  0  0
  4  5  1  0  0  0
  4  6  2  0  0  0
  4 18  1  0  0  0
  5 24  1  0  0  0
  6 10  1  0  0  0
  7 10  2  0  0  0
  7 23  1  0  0  0
  7 33  1  0  0  0
  8 21  1  0  0  0
  8 22  1  0  0  0
  8 36  1  0  0  0
  8 37  1  0  0  0
  9 21  1  0  0  0
  9 31  1  0  0  0
  9 38  1  0  0  0
  9 39  1  0  0  0
 10 40  1  0  0  0
 11 12  1  0  0  0
 11 14  2  0  0  0
 11 15  1  0  0  0
 12 17  1  0  0  0
 12 28  2  0  0  0
 13 28  1  0  0  0
 13 29  2  0  0  0
 13 56  1  0  0  0
 14 29  1  0  0  0
 14 31  1  0  0  0
 15 30  2  0  0  0
 15 41  1  0  0  0
 16 17  2  0  0  0
 16 18  1  0  0  0
 16 30  1  0  0  0
 17 26  1  0  0  0
 18 23  2  0  0  0
 19 20  1  0  0  0
 19 31  1  0  0  0
 19 42  1  0  0  0
 19 43  1  0  0  0
 20 22  1  0  0  0
 20 32  1  0  0  0
 20 44  1  0  0  0
 21 32  1  0  0  0
 21 45  1  0  0  0
 22 46  1  0  0  0
 22 47  1  0  0  0
 23 48  1  0  0  0
 24 25  3  0  0  0
 25 49  1  0  0  0
 32 50  1  0  0  0
 33 51  1  0  0  0
 52 56  1  0  0  0
 52 58  1  0  0  0
 52 62  1  0  0  0
 53 54  1  0  0  0
 53 55  1  0  0  0
 53 59  1  0  0  0
 54 57  2  0  0  0
 55 61  2  0  0  0
 56 63  1  0  0  0
 56 64  1  0  0  0
 57 58  1  0  0  0
 57 61  1  0  0  0
 58 65  1  0  0  0
 58 66  1  0  0  0
 59 60  1  0  0  0
 59 67  1  0  0  0
 59 68  1  0  0  0
 60 69  1  0  0  0
 60 70  1  0  0  0
 60 71  1  0  0  0
 61 72  1  0  0  0
M  END
> <s_m_entry_id>
613

> <s_m_entry_name>
000000455.1

> <s_m_Source_Path>
/Users/zaksoul/Documents/3r_UNI/2nd_SEMESTER/BSC/FRAG_RECON/RESULTS/2

> <s_m_Source_File>
000000455.mol2

> <i_m_Source_File_Index>
1

$$$$
No_0_477
                    3D
 Schrodinger Suite 2022-4.
 72 78  0  0  1  0            999 V2000
   -5.1810    3.6090  -21.8530 C   0  0  0  0  0  0
   -5.4520    3.8050  -23.1860 C   0  0  0  0  0  0
   -3.9420    3.3510  -21.5190 C   0  0  0  0  0  0
   -3.0590    3.4860  -23.6870 C   0  0  0  0  0  0
   -2.8930    3.2340  -22.2690 C   0  0  0  0  0  0
   -4.4090    3.7540  -24.2010 C   0  0  0  0  0  0
   -3.6630    3.7850  -26.4030 C   0  0  0  0  0  0
    6.0870    3.0010  -21.1820 C   0  0  0  0  0  0
    5.9380    3.1560  -23.7310 C   0  0  0  0  0  0
   -4.6650    3.8890  -25.5350 C   0  0  0  0  0  0
    2.1540    3.7130  -23.7290 C   0  0  0  0  0  0
    1.3370    4.8230  -23.4210 C   0  0  0  0  0  0
    3.1410    6.0110  -22.7430 C   0  0  0  0  0  0
    3.5570    3.8990  -23.4210 C   0  0  0  0  0  0
    1.6030    2.6010  -24.3930 C   0  0  0  0  0  0
   -0.5220    3.4190  -24.2700 C   0  0  0  0  0  0
    0.0100    4.6350  -23.6670 C   0  0  0  0  0  0
   -1.9770    3.4300  -24.6180 C   0  0  0  0  0  0
    4.1570    1.3990  -23.1440 C   0  0  0  0  0  0
    5.0950    1.0350  -22.0030 C   0  0  2  0  0  0
    6.6890    2.5740  -22.5390 C   0  0  2  0  0  0
    5.0840    2.0310  -20.8310 C   0  0  0  0  0  0
   -2.3080    3.5970  -26.0440 C   0  0  0  0  0  0
   -1.5470    2.8150  -21.6780 C   0  0  0  0  0  0
   -0.5150    2.4620  -21.1780 C   0  0  0  0  0  0
   -0.8280    5.6800  -23.3140 F   0  0  0  0  0  0
   -3.7260    3.1020  -20.1390 F   0  0  0  0  0  0
    1.8200    5.9780  -22.8860 N   0  0  0  0  0  0
    4.0350    5.0470  -22.9720 N   0  0  0  0  0  0
    0.2950    2.5160  -24.6930 N   0  0  0  0  0  0
    4.4710    2.8500  -23.6070 N   0  0  0  0  0  0
    6.5000    1.1010  -22.4910 N   0  0  1  0  0  0
   -3.8410    3.8060  -27.7920 O   0  0  0  0  0  0
   -5.9796    3.6712  -21.1226 H   0  0  0  0  0  0
   -6.4675    4.0037  -23.5091 H   0  0  0  0  0  0
    5.6179    3.9906  -21.2849 H   0  0  0  0  0  0
    6.8763    3.0060  -20.4159 H   0  0  0  0  0  0
    6.3275    2.7150  -24.6604 H   0  0  0  0  0  0
    6.0833    4.2460  -23.7593 H   0  0  0  0  0  0
   -5.6765    4.0776  -25.8762 H   0  0  0  0  0  0
    2.2385    1.7718  -24.6821 H   0  0  0  0  0  0
    3.1157    1.3435  -22.7939 H   0  0  0  0  0  0
    4.3144    0.7047  -23.9826 H   0  0  0  0  0  0
    4.8700    0.0218  -21.6387 H   0  0  0  0  0  0
    7.7578    2.8293  -22.5885 H   0  0  0  0  0  0
    4.1018    2.5236  -20.7805 H   0  0  0  0  0  0
    5.3877    1.5123  -19.9097 H   0  0  0  0  0  0
   -1.5411    3.5789  -26.8099 H   0  0  0  0  0  0
    0.3934    2.1519  -20.7378 H   0  0  0  0  0  0
    7.1492    0.5983  -21.7894 H   0  0  0  0  0  0
   -2.9984    3.7179  -28.2217 H   0  0  0  0  0  0
    4.3750    7.2000  -20.9300 N   0  0  1  0  0  0
    7.3040    8.9830  -20.6430 N   0  0  0  0  0  0
    7.9530    9.7220  -21.5400 N   0  0  0  0  0  0
    7.1470   10.3000  -22.3970 N   0  0  0  0  0  0
    6.0130    9.1320  -20.9980 C   0  0  0  0  0  0
    3.7060    7.3460  -22.2710 C   0  0  0  0  0  0
    4.8410    8.4800  -20.2800 C   0  0  0  0  0  0
    7.9550    8.2430  -19.5520 C   0  0  0  0  0  0
    7.9840    6.7190  -19.7540 C   0  0  0  0  0  0
    5.9040    9.9500  -22.0820 C   0  0  0  0  0  0
    3.6887    6.7428  -20.2327 H   0  0  0  0  0  0
    4.4360    7.7160  -23.0060 H   0  0  0  0  0  0
    2.8920    8.0820  -22.1960 H   0  0  0  0  0  0
    5.1190    8.2780  -19.2351 H   0  0  0  0  0  0
    4.0022    9.1898  -20.2300 H   0  0  0  0  0  0
    7.4512    8.4759  -18.6023 H   0  0  0  0  0  0
    8.9824    8.6138  -19.4221 H   0  0  0  0  0  0
    8.4850    6.2450  -18.8970 H   0  0  0  0  0  0
    6.9544    6.3398  -19.8320 H   0  0  0  0  0  0
    8.5331    6.4820  -20.6772 H   0  0  0  0  0  0
    5.0708   10.3221  -22.6671 H   0  0  0  0  0  0
  1  2  2  0  0  0
  1  3  1  0  0  0
  1 34  1  0  0  0
  2  6  1  0  0  0
  2 35  1  0  0  0
  3  5  2  0  0  0
  3 27  1  0  0  0
  4  5  1  0  0  0
  4  6  2  0  0  0
  4 18  1  0  0  0
  5 24  1  0  0  0
  6 10  1  0  0  0
  7 10  2  0  0  0
  7 23  1  0  0  0
  7 33  1  0  0  0
  8 21  1  0  0  0
  8 22  1  0  0  0
  8 36  1  0  0  0
  8 37  1  0  0  0
  9 21  1  0  0  0
  9 31  1  0  0  0
  9 38  1  0  0  0
  9 39  1  0  0  0
 10 40  1  0  0  0
 11 12  1  0  0  0
 11 14  2  0  0  0
 11 15  1  0  0  0
 12 17  1  0  0  0
 12 28  2  0  0  0
 13 28  1  0  0  0
 13 29  2  0  0  0
 13 57  1  0  0  0
 14 29  1  0  0  0
 14 31  1  0  0  0
 15 30  2  0  0  0
 15 41  1  0  0  0
 16 17  2  0  0  0
 16 18  1  0  0  0
 16 30  1  0  0  0
 17 26  1  0  0  0
 18 23  2  0  0  0
 19 20  1  0  0  0
 19 31  1  0  0  0
 19 42  1  0  0  0
 19 43  1  0  0  0
 20 22  1  0  0  0
 20 32  1  0  0  0
 20 44  1  0  0  0
 21 32  1  0  0  0
 21 45  1  0  0  0
 22 46  1  0  0  0
 22 47  1  0  0  0
 23 48  1  0  0  0
 24 25  3  0  0  0
 25 49  1  0  0  0
 32 50  1  0  0  0
 33 51  1  0  0  0
 52 57  1  0  0  0
 52 58  1  0  0  0
 52 62  1  0  0  0
 53 54  1  0  0  0
 53 56  1  0  0  0
 53 59  1  0  0  0
 54 55  2  0  0  0
 55 61  1  0  0  0
 56 58  1  0  0  0
 56 61  2  0  0  0
 57 63  1  0  0  0
 57 64  1  0  0  0
 58 65  1  0  0  0
 58 66  1  0  0  0
 59 60  1  0  0  0
 59 67  1  0  0  0
 59 68  1  0  0  0
 60 69  1  0  0  0
 60 70  1  0  0  0
 60 71  1  0  0  0
 61 72  1  0  0  0
M  END
> <s_m_entry_id>
614

> <s_m_entry_name>
000000456.1

> <s_m_Source_Path>
/Users/zaksoul/Documents/3r_UNI/2nd_SEMESTER/BSC/FRAG_RECON/RESULTS/2

> <s_m_Source_File>
000000456.mol2

> <i_m_Source_File_Index>
1

$$$$
No_0_478
                    3D
 Schrodinger Suite 2022-4.
 72 78  0  0  1  0            999 V2000
   -5.3460    3.5620  -22.0200 C   0  0  0  0  0  0
   -5.6050    3.7500  -23.3570 C   0  0  0  0  0  0
   -4.1110    3.2990  -21.6740 C   0  0  0  0  0  0
   -3.2100    3.4150  -23.8360 C   0  0  0  0  0  0
   -3.0570    3.1710  -22.4140 C   0  0  0  0  0  0
   -4.5530    3.6870  -24.3630 C   0  0  0  0  0  0
   -3.7880    3.6990  -26.5580 C   0  0  0  0  0  0
    5.9120    2.8950  -21.2500 C   0  0  0  0  0  0
    5.7850    3.0340  -23.8010 C   0  0  0  0  0  0
   -4.7980    3.8140  -25.7000 C   0  0  0  0  0  0
    2.0050    3.6130  -23.8350 C   0  0  0  0  0  0
    1.1920    4.7280  -23.5410 C   0  0  0  0  0  0
    2.9970    5.9110  -22.8550 C   0  0  0  0  0  0
    3.4060    3.7930  -23.5160 C   0  0  0  0  0  0
    1.4530    2.4990  -24.4970 C   0  0  0  0  0  0
   -0.6680    3.3300  -24.3960 C   0  0  0  0  0  0
   -0.1340    4.5470  -23.7970 C   0  0  0  0  0  0
   -2.1200    3.3470  -24.7570 C   0  0  0  0  0  0
    3.9900    1.2900  -23.2180 C   0  0  0  0  0  0
    4.9160    0.9290  -22.0670 C   0  0  2  0  0  0
    6.5240    2.4560  -22.5990 C   0  0  2  0  0  0
    4.9010    1.9320  -20.9010 C   0  0  0  0  0  0
   -2.4380    3.5070  -26.1860 C   0  0  0  0  0  0
   -1.7190    2.7480  -21.8100 C   0  0  0  0  0  0
   -0.6930    2.3930  -21.2990 C   0  0  0  0  0  0
   -0.9690    5.5990  -23.4580 F   0  0  0  0  0  0
   -3.9080    3.0570  -20.2910 F   0  0  0  0  0  0
    1.6760    5.8840  -23.0090 N   0  0  0  0  0  0
    3.8870    4.9400  -23.0700 N   0  0  0  0  0  0
    0.1470    2.4190  -24.8070 N   0  0  0  0  0  0
    4.3160    2.7370  -23.6880 N   0  0  0  0  0  0
    6.3250    0.9840  -22.5430 N   0  0  1  0  0  0
   -3.9550    3.7130  -27.9490 O   0  0  0  0  0  0
   -6.1505    3.6323  -21.2969 H   0  0  0  0  0  0
   -6.6164    3.9527  -23.6901 H   0  0  0  0  0  0
    5.4496    3.8865  -21.3641 H   0  0  0  0  0  0
    6.6953    2.9000  -20.4778 H   0  0  0  0  0  0
    6.1805    2.5851  -24.7241 H   0  0  0  0  0  0
    5.9374    4.1229  -23.8343 H   0  0  0  0  0  0
   -5.8055    4.0069  -26.0506 H   0  0  0  0  0  0
    2.0861    1.6642  -24.7749 H   0  0  0  0  0  0
    2.9456    1.2426  -22.8759 H   0  0  0  0  0  0
    4.1505    0.5895  -24.0508 H   0  0  0  0  0  0
    4.6818   -0.0803  -21.6976 H   0  0  0  0  0  0
    7.5948    2.7043  -22.6414 H   0  0  0  0  0  0
    3.9214    2.4309  -20.8626 H   0  0  0  0  0  0
    5.1936    1.4175  -19.9738 H   0  0  0  0  0  0
   -1.6652    3.4799  -26.9457 H   0  0  0  0  0  0
    0.2097    2.0801  -20.8491 H   0  0  0  0  0  0
    6.9657    0.4824  -21.8328 H   0  0  0  0  0  0
   -3.1090    3.6170  -28.3705 H   0  0  0  0  0  0
    4.4080    7.0650  -21.1520 N   0  0  1  0  0  0
    7.2770    8.9650  -21.1440 N   0  0  0  0  0  0
    7.7740    9.7760  -22.0750 N   0  0  0  0  0  0
    6.8420   10.3570  -22.7900 N   0  0  0  0  0  0
    5.9460    9.0710  -21.3230 C   0  0  0  0  0  0
    3.5650    7.2460  -22.3870 C   0  0  0  0  0  0
    4.9030    8.3310  -20.4980 C   0  0  0  0  0  0
    8.0930    8.2030  -20.1870 C   0  0  0  0  0  0
    8.1550    6.6940  -20.4740 C   0  0  0  0  0  0
    5.6650    9.9350  -22.3380 C   0  0  0  0  0  0
    3.8368    6.5428  -20.3987 H   0  0  0  0  0  0
    4.1789    7.6839  -23.1879 H   0  0  0  0  0  0
    2.7395    7.9395  -22.1689 H   0  0  0  0  0  0
    5.3222    8.0919  -19.5095 H   0  0  0  0  0  0
    4.0511    8.9990  -20.3030 H   0  0  0  0  0  0
    7.7072    8.3649  -19.1697 H   0  0  0  0  0  0
    9.1131    8.6141  -20.1690 H   0  0  0  0  0  0
    8.7814    6.2015  -19.7157 H   0  0  0  0  0  0
    7.1401    6.2711  -20.4400 H   0  0  0  0  0  0
    8.5890    6.5270  -21.4709 H   0  0  0  0  0  0
    4.7494   10.2978  -22.7908 H   0  0  0  0  0  0
  1  2  2  0  0  0
  1  3  1  0  0  0
  1 34  1  0  0  0
  2  6  1  0  0  0
  2 35  1  0  0  0
  3  5  2  0  0  0
  3 27  1  0  0  0
  4  5  1  0  0  0
  4  6  2  0  0  0
  4 18  1  0  0  0
  5 24  1  0  0  0
  6 10  1  0  0  0
  7 10  2  0  0  0
  7 23  1  0  0  0
  7 33  1  0  0  0
  8 21  1  0  0  0
  8 22  1  0  0  0
  8 36  1  0  0  0
  8 37  1  0  0  0
  9 21  1  0  0  0
  9 31  1  0  0  0
  9 38  1  0  0  0
  9 39  1  0  0  0
 10 40  1  0  0  0
 11 12  1  0  0  0
 11 14  2  0  0  0
 11 15  1  0  0  0
 12 17  1  0  0  0
 12 28  2  0  0  0
 13 28  1  0  0  0
 13 29  2  0  0  0
 13 57  1  0  0  0
 14 29  1  0  0  0
 14 31  1  0  0  0
 15 30  2  0  0  0
 15 41  1  0  0  0
 16 17  2  0  0  0
 16 18  1  0  0  0
 16 30  1  0  0  0
 17 26  1  0  0  0
 18 23  2  0  0  0
 19 20  1  0  0  0
 19 31  1  0  0  0
 19 42  1  0  0  0
 19 43  1  0  0  0
 20 22  1  0  0  0
 20 32  1  0  0  0
 20 44  1  0  0  0
 21 32  1  0  0  0
 21 45  1  0  0  0
 22 46  1  0  0  0
 22 47  1  0  0  0
 23 48  1  0  0  0
 24 25  3  0  0  0
 25 49  1  0  0  0
 32 50  1  0  0  0
 33 51  1  0  0  0
 52 57  1  0  0  0
 52 58  1  0  0  0
 52 62  1  0  0  0
 53 54  1  0  0  0
 53 56  1  0  0  0
 53 59  1  0  0  0
 54 55  2  0  0  0
 55 61  1  0  0  0
 56 58  1  0  0  0
 56 61  2  0  0  0
 57 63  1  0  0  0
 57 64  1  0  0  0
 58 65  1  0  0  0
 58 66  1  0  0  0
 59 60  1  0  0  0
 59 67  1  0  0  0
 59 68  1  0  0  0
 60 69  1  0  0  0
 60 70  1  0  0  0
 60 71  1  0  0  0
 61 72  1  0  0  0
M  END
> <s_m_entry_id>
615

> <s_m_entry_name>
000000457.1

> <s_m_Source_Path>
/Users/zaksoul/Documents/3r_UNI/2nd_SEMESTER/BSC/FRAG_RECON/RESULTS/2

> <s_m_Source_File>
000000457.mol2

> <i_m_Source_File_Index>
1

$$$$
No_0_479
                    3D
 Schrodinger Suite 2022-4.
 72 78  0  0  1  0            999 V2000
   -5.1810    3.6090  -21.8530 C   0  0  0  0  0  0
   -5.4520    3.8050  -23.1860 C   0  0  0  0  0  0
   -3.9420    3.3510  -21.5190 C   0  0  0  0  0  0
   -3.0590    3.4860  -23.6870 C   0  0  0  0  0  0
   -2.8930    3.2340  -22.2690 C   0  0  0  0  0  0
   -4.4090    3.7540  -24.2010 C   0  0  0  0  0  0
   -3.6630    3.7850  -26.4030 C   0  0  0  0  0  0
    6.0870    3.0010  -21.1820 C   0  0  0  0  0  0
    5.9380    3.1560  -23.7310 C   0  0  0  0  0  0
   -4.6650    3.8890  -25.5350 C   0  0  0  0  0  0
    2.1540    3.7130  -23.7290 C   0  0  0  0  0  0
    1.3370    4.8230  -23.4210 C   0  0  0  0  0  0
    3.1410    6.0110  -22.7430 C   0  0  0  0  0  0
    3.5570    3.8990  -23.4210 C   0  0  0  0  0  0
    1.6030    2.6010  -24.3930 C   0  0  0  0  0  0
   -0.5220    3.4190  -24.2700 C   0  0  0  0  0  0
    0.0100    4.6350  -23.6670 C   0  0  0  0  0  0
   -1.9770    3.4300  -24.6180 C   0  0  0  0  0  0
    4.1570    1.3990  -23.1440 C   0  0  0  0  0  0
    5.0950    1.0350  -22.0030 C   0  0  2  0  0  0
    6.6890    2.5740  -22.5390 C   0  0  2  0  0  0
    5.0840    2.0310  -20.8310 C   0  0  0  0  0  0
   -2.3080    3.5970  -26.0440 C   0  0  0  0  0  0
   -1.5470    2.8150  -21.6780 C   0  0  0  0  0  0
   -0.5150    2.4620  -21.1780 C   0  0  0  0  0  0
   -0.8280    5.6800  -23.3140 F   0  0  0  0  0  0
   -3.7260    3.1020  -20.1390 F   0  0  0  0  0  0
    1.8200    5.9780  -22.8860 N   0  0  0  0  0  0
    4.0350    5.0470  -22.9720 N   0  0  0  0  0  0
    0.2950    2.5160  -24.6930 N   0  0  0  0  0  0
    4.4710    2.8500  -23.6070 N   0  0  0  0  0  0
    6.5000    1.1010  -22.4910 N   0  0  1  0  0  0
   -3.8410    3.8060  -27.7920 O   0  0  0  0  0  0
   -5.9796    3.6712  -21.1226 H   0  0  0  0  0  0
   -6.4675    4.0037  -23.5091 H   0  0  0  0  0  0
    5.6179    3.9906  -21.2849 H   0  0  0  0  0  0
    6.8763    3.0060  -20.4159 H   0  0  0  0  0  0
    6.3275    2.7150  -24.6604 H   0  0  0  0  0  0
    6.0833    4.2460  -23.7593 H   0  0  0  0  0  0
   -5.6765    4.0776  -25.8762 H   0  0  0  0  0  0
    2.2385    1.7718  -24.6821 H   0  0  0  0  0  0
    3.1157    1.3435  -22.7939 H   0  0  0  0  0  0
    4.3144    0.7047  -23.9826 H   0  0  0  0  0  0
    4.8700    0.0218  -21.6387 H   0  0  0  0  0  0
    7.7578    2.8293  -22.5885 H   0  0  0  0  0  0
    4.1018    2.5236  -20.7805 H   0  0  0  0  0  0
    5.3877    1.5123  -19.9097 H   0  0  0  0  0  0
   -1.5411    3.5789  -26.8099 H   0  0  0  0  0  0
    0.3934    2.1519  -20.7378 H   0  0  0  0  0  0
    7.1492    0.5983  -21.7894 H   0  0  0  0  0  0
   -2.9984    3.7179  -28.2217 H   0  0  0  0  0  0
    4.7290    7.1410  -21.1850 N   0  0  1  0  0  0
    7.4720    9.2010  -21.4600 N   0  0  0  0  0  0
    7.7860   10.0950  -22.3950 N   0  0  0  0  0  0
    6.7310   10.6630  -22.9260 N   0  0  0  0  0  0
    6.1250    9.2400  -21.4380 C   0  0  0  0  0  0
    3.7060    7.3460  -22.2710 C   0  0  0  0  0  0
    5.2520    8.3920  -20.5240 C   0  0  0  0  0  0
    8.4560    8.4320  -20.6830 C   0  0  0  0  0  0
    8.5490    6.9490  -21.0790 C   0  0  0  0  0  0
    5.6560   10.1460  -22.3410 C   0  0  0  0  0  0
    4.3012    6.5412  -20.3953 H   0  0  0  0  0  0
    4.1729    7.8669  -23.1199 H   0  0  0  0  0  0
    2.8884    7.9754  -21.8897 H   0  0  0  0  0  0
    5.8232    8.1179  -19.6247 H   0  0  0  0  0  0
    4.4060    8.9957  -20.1636 H   0  0  0  0  0  0
    8.2158    8.5090  -19.6123 H   0  0  0  0  0  0
    9.4462    8.9001  -20.7850 H   0  0  0  0  0  0
    9.3038    6.4491  -20.4542 H   0  0  0  0  0  0
    7.5717    6.4669  -20.9290 H   0  0  0  0  0  0
    8.8390    6.8690  -22.1371 H   0  0  0  0  0  0
    4.6666   10.4808  -22.6308 H   0  0  0  0  0  0
  1  2  2  0  0  0
  1  3  1  0  0  0
  1 34  1  0  0  0
  2  6  1  0  0  0
  2 35  1  0  0  0
  3  5  2  0  0  0
  3 27  1  0  0  0
  4  5  1  0  0  0
  4  6  2  0  0  0
  4 18  1  0  0  0
  5 24  1  0  0  0
  6 10  1  0  0  0
  7 10  2  0  0  0
  7 23  1  0  0  0
  7 33  1  0  0  0
  8 21  1  0  0  0
  8 22  1  0  0  0
  8 36  1  0  0  0
  8 37  1  0  0  0
  9 21  1  0  0  0
  9 31  1  0  0  0
  9 38  1  0  0  0
  9 39  1  0  0  0
 10 40  1  0  0  0
 11 12  1  0  0  0
 11 14  2  0  0  0
 11 15  1  0  0  0
 12 17  1  0  0  0
 12 28  2  0  0  0
 13 28  1  0  0  0
 13 29  2  0  0  0
 13 57  1  0  0  0
 14 29  1  0  0  0
 14 31  1  0  0  0
 15 30  2  0  0  0
 15 41  1  0  0  0
 16 17  2  0  0  0
 16 18  1  0  0  0
 16 30  1  0  0  0
 17 26  1  0  0  0
 18 23  2  0  0  0
 19 20  1  0  0  0
 19 31  1  0  0  0
 19 42  1  0  0  0
 19 43  1  0  0  0
 20 22  1  0  0  0
 20 32  1  0  0  0
 20 44  1  0  0  0
 21 32  1  0  0  0
 21 45  1  0  0  0
 22 46  1  0  0  0
 22 47  1  0  0  0
 23 48  1  0  0  0
 24 25  3  0  0  0
 25 49  1  0  0  0
 32 50  1  0  0  0
 33 51  1  0  0  0
 52 57  1  0  0  0
 52 58  1  0  0  0
 52 62  1  0  0  0
 53 54  1  0  0  0
 53 56  1  0  0  0
 53 59  1  0  0  0
 54 55  2  0  0  0
 55 61  1  0  0  0
 56 58  1  0  0  0
 56 61  2  0  0  0
 57 63  1  0  0  0
 57 64  1  0  0  0
 58 65  1  0  0  0
 58 66  1  0  0  0
 59 60  1  0  0  0
 59 67  1  0  0  0
 59 68  1  0  0  0
 60 69  1  0  0  0
 60 70  1  0  0  0
 60 71  1  0  0  0
 61 72  1  0  0  0
M  END
> <s_m_entry_id>
616

> <s_m_entry_name>
000000458.1

> <s_m_Source_Path>
/Users/zaksoul/Documents/3r_UNI/2nd_SEMESTER/BSC/FRAG_RECON/RESULTS/2

> <s_m_Source_File>
000000458.mol2

> <i_m_Source_File_Index>
1

$$$$
No_0_480
                    3D
 Schrodinger Suite 2022-4.
 72 78  0  0  1  0            999 V2000
   -5.4540    3.4070  -22.1700 C   0  0  0  0  0  0
   -5.6950    3.5910  -23.5100 C   0  0  0  0  0  0
   -4.2230    3.1530  -21.8050 C   0  0  0  0  0  0
   -3.2910    3.2700  -23.9540 C   0  0  0  0  0  0
   -3.1570    3.0300  -22.5300 C   0  0  0  0  0  0
   -4.6280    3.5330  -24.5010 C   0  0  0  0  0  0
   -3.8320    3.5460  -26.6850 C   0  0  0  0  0  0
    5.7960    2.8140  -21.2360 C   0  0  0  0  0  0
    5.7050    2.9480  -23.7880 C   0  0  0  0  0  0
   -4.8540    3.6560  -25.8410 C   0  0  0  0  0  0
    1.9220    3.5020  -23.8780 C   0  0  0  0  0  0
    1.0980    4.6130  -23.5980 C   0  0  0  0  0  0
    2.8850    5.8080  -22.8890 C   0  0  0  0  0  0
    3.3170    3.6920  -23.5390 C   0  0  0  0  0  0
    1.3870    2.3830  -24.5450 C   0  0  0  0  0  0
   -0.7410    3.2010  -24.4770 C   0  0  0  0  0  0
   -0.2240    4.4220  -23.8730 C   0  0  0  0  0  0
   -2.1870    3.2080  -24.8590 C   0  0  0  0  0  0
    3.9130    1.1940  -23.2270 C   0  0  0  0  0  0
    4.8240    0.8410  -22.0620 C   0  0  2  0  0  0
    6.4300    2.3770  -22.5740 C   0  0  2  0  0  0
    4.7860    1.8460  -20.8990 C   0  0  0  0  0  0
   -2.4860    3.3630  -26.2930 C   0  0  0  0  0  0
   -1.8250    2.6170  -21.9050 C   0  0  0  0  0  0
   -0.8050    2.2690  -21.3780 C   0  0  0  0  0  0
   -1.0700    5.4700  -23.5480 F   0  0  0  0  0  0
   -4.0390    2.9150  -20.4180 F   0  0  0  0  0  0
    1.5670    5.7730  -23.0610 N   0  0  0  0  0  0
    3.7840    4.8430  -23.0890 N   0  0  0  0  0  0
    0.0860    2.2950  -24.8740 N   0  0  0  0  0  0
    4.2360    2.6410  -23.6950 N   0  0  0  0  0  0
    6.2400    0.9040  -22.5180 N   0  0  1  0  0  0
   -3.9790    3.5560  -28.0770 O   0  0  0  0  0  0
   -6.2690    3.4742  -21.4584 H   0  0  0  0  0  0
   -6.7027    3.7867  -23.8583 H   0  0  0  0  0  0
    5.3290    3.8025  -21.3570 H   0  0  0  0  0  0
    6.5672    2.8261  -20.4517 H   0  0  0  0  0  0
    6.1159    2.4998  -24.7047 H   0  0  0  0  0  0
    5.8503    4.0378  -23.8223 H   0  0  0  0  0  0
   -5.8576    3.8417  -26.2063 H   0  0  0  0  0  0
    2.0295    1.5518  -24.8120 H   0  0  0  0  0  0
    2.8637    1.1405  -22.9011 H   0  0  0  0  0  0
    4.0896    0.4925  -24.0557 H   0  0  0  0  0  0
    4.5920   -0.1696  -21.6949 H   0  0  0  0  0  0
    7.4995    2.6325  -22.6023 H   0  0  0  0  0  0
    3.8028    2.3386  -20.8758 H   0  0  0  0  0  0
    5.0686    1.3354  -19.9666 H   0  0  0  0  0  0
   -1.7023    3.3389  -27.0416 H   0  0  0  0  0  0
    0.0938    1.9641  -20.9151 H   0  0  0  0  0  0
    6.8732    0.4067  -21.7982 H   0  0  0  0  0  0
   -3.1266    3.4650  -28.4864 H   0  0  0  0  0  0
    4.6770    6.9510  -21.5810 N   0  0  1  0  0  0
    7.1460    9.2650  -22.2050 N   0  0  0  0  0  0
    7.1930   10.2540  -23.0940 N   0  0  0  0  0  0
    6.0120   10.7650  -23.3460 N   0  0  0  0  0  0
    5.8340    9.1810  -21.9090 C   0  0  0  0  0  0
    3.4380    7.1480  -22.4150 C   0  0  0  0  0  0
    5.2350    8.1890  -20.9230 C   0  0  0  0  0  0
    8.3230    8.5300  -21.7190 C   0  0  0  0  0  0
    8.4380    7.0970  -22.2650 C   0  0  0  0  0  0
    5.1230   10.1090  -22.6080 C   0  0  0  0  0  0
    4.4669    6.2557  -20.7817 H   0  0  0  0  0  0
    3.6790    7.7739  -23.2869 H   0  0  0  0  0  0
    2.6745    7.6687  -21.8184 H   0  0  0  0  0  0
    5.9985    7.8978  -20.1866 H   0  0  0  0  0  0
    4.4409    8.6831  -20.3439 H   0  0  0  0  0  0
    8.3070    8.5010  -20.6195 H   0  0  0  0  0  0
    9.2343    9.0912  -21.9731 H   0  0  0  0  0  0
    9.3406    6.6202  -21.8552 H   0  0  0  0  0  0
    7.5511    6.5181  -21.9680 H   0  0  0  0  0  0
    8.5060    7.1260  -23.3625 H   0  0  0  0  0  0
    4.0735   10.3749  -22.6610 H   0  0  0  0  0  0
  1  2  2  0  0  0
  1  3  1  0  0  0
  1 34  1  0  0  0
  2  6  1  0  0  0
  2 35  1  0  0  0
  3  5  2  0  0  0
  3 27  1  0  0  0
  4  5  1  0  0  0
  4  6  2  0  0  0
  4 18  1  0  0  0
  5 24  1  0  0  0
  6 10  1  0  0  0
  7 10  2  0  0  0
  7 23  1  0  0  0
  7 33  1  0  0  0
  8 21  1  0  0  0
  8 22  1  0  0  0
  8 36  1  0  0  0
  8 37  1  0  0  0
  9 21  1  0  0  0
  9 31  1  0  0  0
  9 38  1  0  0  0
  9 39  1  0  0  0
 10 40  1  0  0  0
 11 12  1  0  0  0
 11 14  2  0  0  0
 11 15  1  0  0  0
 12 17  1  0  0  0
 12 28  2  0  0  0
 13 28  1  0  0  0
 13 29  2  0  0  0
 13 57  1  0  0  0
 14 29  1  0  0  0
 14 31  1  0  0  0
 15 30  2  0  0  0
 15 41  1  0  0  0
 16 17  2  0  0  0
 16 18  1  0  0  0
 16 30  1  0  0  0
 17 26  1  0  0  0
 18 23  2  0  0  0
 19 20  1  0  0  0
 19 31  1  0  0  0
 19 42  1  0  0  0
 19 43  1  0  0  0
 20 22  1  0  0  0
 20 32  1  0  0  0
 20 44  1  0  0  0
 21 32  1  0  0  0
 21 45  1  0  0  0
 22 46  1  0  0  0
 22 47  1  0  0  0
 23 48  1  0  0  0
 24 25  3  0  0  0
 25 49  1  0  0  0
 32 50  1  0  0  0
 33 51  1  0  0  0
 52 57  1  0  0  0
 52 58  1  0  0  0
 52 62  1  0  0  0
 53 54  1  0  0  0
 53 56  1  0  0  0
 53 59  1  0  0  0
 54 55  2  0  0  0
 55 61  1  0  0  0
 56 58  1  0  0  0
 56 61  2  0  0  0
 57 63  1  0  0  0
 57 64  1  0  0  0
 58 65  1  0  0  0
 58 66  1  0  0  0
 59 60  1  0  0  0
 59 67  1  0  0  0
 59 68  1  0  0  0
 60 69  1  0  0  0
 60 70  1  0  0  0
 60 71  1  0  0  0
 61 72  1  0  0  0
M  END
> <s_m_entry_id>
617

> <s_m_entry_name>
000000459.1

> <s_m_Source_Path>
/Users/zaksoul/Documents/3r_UNI/2nd_SEMESTER/BSC/FRAG_RECON/RESULTS/2

> <s_m_Source_File>
000000459.mol2

> <i_m_Source_File_Index>
1

$$$$
No_0_481
                    3D
 Schrodinger Suite 2022-4.
 68 74  0  0  1  0            999 V2000
   -5.1830    3.8390  -22.1620 C   0  0  0  0  0  0
   -5.4490    4.0130  -23.4990 C   0  0  0  0  0  0
   -3.9460    3.5830  -21.8180 C   0  0  0  0  0  0
   -3.0550    3.6800  -23.9850 C   0  0  0  0  0  0
   -2.8950    3.4510  -22.5620 C   0  0  0  0  0  0
   -4.4010    3.9440  -24.5090 C   0  0  0  0  0  0
   -3.6460    3.9360  -26.7070 C   0  0  0  0  0  0
    6.0800    3.2130  -21.4350 C   0  0  0  0  0  0
    5.9420    3.3270  -23.9860 C   0  0  0  0  0  0
   -4.6520    4.0570  -25.8460 C   0  0  0  0  0  0
    2.1600    3.8940  -24.0090 C   0  0  0  0  0  0
    1.3450    5.0100  -23.7230 C   0  0  0  0  0  0
    3.1490    6.2040  -23.0570 C   0  0  0  0  0  0
    3.5610    4.0810  -23.6990 C   0  0  0  0  0  0
    1.6080    2.7720  -24.6570 C   0  0  0  0  0  0
   -0.5150    3.5970  -24.5560 C   0  0  0  0  0  0
    0.0180    4.8220  -23.9710 C   0  0  0  0  0  0
   -1.9680    3.6070  -24.9100 C   0  0  0  0  0  0
    4.1540    1.5840  -23.3780 C   0  0  0  0  0  0
    5.0860    1.2360  -22.2270 C   0  0  2  0  0  0
    6.6870    2.7630  -22.7820 C   0  0  2  0  0  0
    5.0740    2.2510  -21.0720 C   0  0  0  0  0  0
   -2.2930    3.7510  -26.3400 C   0  0  0  0  0  0
   -1.5520    3.0380  -21.9590 C   0  0  0  0  0  0
   -0.5230    2.6910  -21.4490 C   0  0  0  0  0  0
   -0.8190    5.8750  -23.6390 F   0  0  0  0  0  0
   -3.7370    3.3560  -20.4330 F   0  0  0  0  0  0
    1.8280    6.1720  -23.2050 N   0  0  0  0  0  0
    4.0410    5.2350  -23.2660 N   0  0  0  0  0  0
    0.3010    2.6850  -24.9610 N   0  0  0  0  0  0
    4.4740    3.0270  -23.8640 N   0  0  0  0  0  0
    6.4930    1.2910  -22.7110 N   0  0  1  0  0  0
   -3.8190    3.9360  -28.0970 O   0  0  0  0  0  0
   -5.9843    3.9142  -21.4359 H   0  0  0  0  0  0
   -6.4625    4.2099  -23.8295 H   0  0  0  0  0  0
    5.6146    4.2023  -21.5561 H   0  0  0  0  0  0
    6.8663    3.2281  -20.6659 H   0  0  0  0  0  0
    6.3337    2.8697  -24.9066 H   0  0  0  0  0  0
    6.0904    4.4160  -24.0314 H   0  0  0  0  0  0
   -5.6616    4.2427  -26.1942 H   0  0  0  0  0  0
    2.2425    1.9366  -24.9301 H   0  0  0  0  0  0
    3.1110    1.5365  -23.0317 H   0  0  0  0  0  0
    4.3124    0.8756  -24.2045 H   0  0  0  0  0  0
    4.8568    0.2294  -21.8474 H   0  0  0  0  0  0
    7.7568    3.0143  -22.8315 H   0  0  0  0  0  0
    4.0932    2.7475  -21.0337 H   0  0  0  0  0  0
    5.3716    1.7466  -20.1409 H   0  0  0  0  0  0
   -1.5238    3.7189  -27.1031 H   0  0  0  0  0  0
    0.3827    2.3848  -21.0006 H   0  0  0  0  0  0
    7.1386    0.7982  -21.9991 H   0  0  0  0  0  0
   -2.9748    3.8380  -28.5216 H   0  0  0  0  0  0
    8.1290    9.6270  -20.5890 O   0  0  0  0  0  0
    4.0530    7.5370  -21.1360 N   0  3  0  0  0  0
    3.7150    7.5460  -22.6040 C   0  0  0  0  0  0
    5.9740    9.1850  -20.8770 C   0  0  0  0  0  0
    4.5220    8.8530  -20.5650 C   0  0  0  0  0  0
    6.5910    9.4310  -22.1320 C   0  0  0  0  0  0
    7.8700    9.6830  -21.8920 C   0  0  0  0  0  0
    6.9680    9.3260  -20.0030 C   0  0  0  0  0  0
    4.7492    6.8298  -20.9590 H   0  0  0  0  0  0
    3.2544    7.2138  -20.6126 H   0  0  0  0  0  0
    4.6192    7.7768  -23.1865 H   0  0  0  0  0  0
    2.9817    8.3404  -22.8071 H   0  0  0  0  0  0
    4.3740    8.8510  -19.4750 H   0  0  0  0  0  0
    3.8750    9.6620  -20.9350 H   0  0  0  0  0  0
    6.0016    9.3870  -23.0466 H   0  0  0  0  0  0
    8.5466    9.8989  -22.7175 H   0  0  0  0  0  0
    6.7810    9.1960  -18.9381 H   0  0  0  0  0  0
  1  2  2  0  0  0
  1  3  1  0  0  0
  1 34  1  0  0  0
  2  6  1  0  0  0
  2 35  1  0  0  0
  3  5  2  0  0  0
  3 27  1  0  0  0
  4  5  1  0  0  0
  4  6  2  0  0  0
  4 18  1  0  0  0
  5 24  1  0  0  0
  6 10  1  0  0  0
  7 10  2  0  0  0
  7 23  1  0  0  0
  7 33  1  0  0  0
  8 21  1  0  0  0
  8 22  1  0  0  0
  8 36  1  0  0  0
  8 37  1  0  0  0
  9 21  1  0  0  0
  9 31  1  0  0  0
  9 38  1  0  0  0
  9 39  1  0  0  0
 10 40  1  0  0  0
 11 12  1  0  0  0
 11 14  2  0  0  0
 11 15  1  0  0  0
 12 17  1  0  0  0
 12 28  2  0  0  0
 13 28  1  0  0  0
 13 29  2  0  0  0
 13 54  1  0  0  0
 14 29  1  0  0  0
 14 31  1  0  0  0
 15 30  2  0  0  0
 15 41  1  0  0  0
 16 17  2  0  0  0
 16 18  1  0  0  0
 16 30  1  0  0  0
 17 26  1  0  0  0
 18 23  2  0  0  0
 19 20  1  0  0  0
 19 31  1  0  0  0
 19 42  1  0  0  0
 19 43  1  0  0  0
 20 22  1  0  0  0
 20 32  1  0  0  0
 20 44  1  0  0  0
 21 32  1  0  0  0
 21 45  1  0  0  0
 22 46  1  0  0  0
 22 47  1  0  0  0
 23 48  1  0  0  0
 24 25  3  0  0  0
 25 49  1  0  0  0
 32 50  1  0  0  0
 33 51  1  0  0  0
 52 58  1  0  0  0
 52 59  1  0  0  0
 53 54  1  0  0  0
 53 56  1  0  0  0
 53 60  1  0  0  0
 53 61  1  0  0  0
 54 62  1  0  0  0
 54 63  1  0  0  0
 55 56  1  0  0  0
 55 57  1  0  0  0
 55 59  2  0  0  0
 56 64  1  0  0  0
 56 65  1  0  0  0
 57 58  2  0  0  0
 57 66  1  0  0  0
 58 67  1  0  0  0
 59 68  1  0  0  0
M  CHG  1  53   1
M  END
> <s_m_entry_id>
618

> <s_m_entry_name>
000000460.1

> <s_m_Source_Path>
/Users/zaksoul/Documents/3r_UNI/2nd_SEMESTER/BSC/FRAG_RECON/RESULTS/2

> <s_m_Source_File>
000000460.mol2

> <i_m_Source_File_Index>
1

$$$$
No_0_482
                    3D
 Schrodinger Suite 2022-4.
 68 74  0  0  1  0            999 V2000
   -5.1890    3.5460  -22.0530 C   0  0  0  0  0  0
   -5.4400    3.7100  -23.3950 C   0  0  0  0  0  0
   -3.9530    3.3090  -21.6930 C   0  0  0  0  0  0
   -3.0360    3.4060  -23.8490 C   0  0  0  0  0  0
   -2.8910    3.1870  -22.4220 C   0  0  0  0  0  0
   -4.3790    3.6490  -24.3910 C   0  0  0  0  0  0
   -3.5960    3.6400  -26.5790 C   0  0  0  0  0  0
    6.0710    3.0720  -21.1810 C   0  0  0  0  0  0
    5.9640    3.1710  -23.7340 C   0  0  0  0  0  0
   -4.6140    3.7520  -25.7310 C   0  0  0  0  0  0
    2.1760    3.6880  -23.8080 C   0  0  0  0  0  0
    1.3420    4.7950  -23.5380 C   0  0  0  0  0  0
    3.1220    6.0160  -22.8560 C   0  0  0  0  0  0
    3.5700    3.8960  -23.4810 C   0  0  0  0  0  0
    1.6460    2.5560  -24.4570 C   0  0  0  0  0  0
   -0.4880    3.3540  -24.3870 C   0  0  0  0  0  0
    0.0210    4.5880  -23.8020 C   0  0  0  0  0  0
   -1.9370    3.3420  -24.7600 C   0  0  0  0  0  0
    4.1920    1.4080  -23.1400 C   0  0  0  0  0  0
    5.1140    1.0790  -21.9760 C   0  0  2  0  0  0
    6.7010    2.6230  -22.5180 C   0  0  2  0  0  0
    5.0730    2.0990  -20.8260 C   0  0  0  0  0  0
   -2.2460    3.4750  -26.1940 C   0  0  0  0  0  0
   -1.5510    2.7940  -21.8000 C   0  0  0  0  0  0
   -0.5240    2.4630  -21.2760 C   0  0  0  0  0  0
   -0.8330    5.6320  -23.4850 F   0  0  0  0  0  0
   -3.7580    3.0910  -20.3040 F   0  0  0  0  0  0
    1.8030    5.9660  -23.0200 N   0  0  0  0  0  0
    4.0290    5.0570  -23.0480 N   0  0  0  0  0  0
    0.3450    2.4510  -24.7770 N   0  0  0  0  0  0
    4.4990    2.8520  -23.6290 N   0  0  0  0  0  0
    6.5260    1.1490  -22.4420 N   0  0  1  0  0  0
   -3.7510    3.6310  -27.9710 O   0  0  0  0  0  0
   -6.0002    3.6143  -21.3372 H   0  0  0  0  0  0
   -6.4517    3.8917  -23.7393 H   0  0  0  0  0  0
    5.5948    4.0547  -21.3132 H   0  0  0  0  0  0
    6.8480    3.1023  -20.4030 H   0  0  0  0  0  0
    6.3737    2.7149  -24.6473 H   0  0  0  0  0  0
    6.0982    4.2617  -23.7834 H   0  0  0  0  0  0
   -5.6212    3.9235  -26.0932 H   0  0  0  0  0  0
    2.2953    1.7281  -24.7179 H   0  0  0  0  0  0
    3.1456    1.3485  -22.8060 H   0  0  0  0  0  0
    4.3697    0.6974  -23.9606 H   0  0  0  0  0  0
    4.8931    0.0715  -21.5938 H   0  0  0  0  0  0
    7.7678    2.8884  -22.5553 H   0  0  0  0  0  0
    4.0851    2.5823  -20.8028 H   0  0  0  0  0  0
    5.3656    1.6035  -19.8885 H   0  0  0  0  0  0
   -1.4663    3.4489  -26.9466 H   0  0  0  0  0  0
    0.3799    2.1720  -20.8140 H   0  0  0  0  0  0
    7.1685    0.6679  -21.7194 H   0  0  0  0  0  0
   -2.9005    3.5429  -28.3849 H   0  0  0  0  0  0
    8.2330    9.7120  -21.1740 O   0  0  0  0  0  0
    4.3170    7.2760  -21.0480 N   0  3  0  0  0  0
    3.6650    7.3670  -22.4030 C   0  0  0  0  0  0
    6.1100    9.0820  -21.0400 C   0  0  0  0  0  0
    4.7940    8.5820  -20.4620 C   0  0  0  0  0  0
    6.4140    9.4860  -22.3670 C   0  0  0  0  0  0
    7.6900    9.8450  -22.3800 C   0  0  0  0  0  0
    7.2580    9.2510  -20.3880 C   0  0  0  0  0  0
    5.0897    6.6303  -21.0930 H   0  0  0  0  0  0
    3.6820    6.8340  -20.4019 H   0  0  0  0  0  0
    4.3976    7.7328  -23.1376 H   0  0  0  0  0  0
    2.8439    8.0980  -22.3650 H   0  0  0  0  0  0
    4.8900    8.4790  -19.3710 H   0  0  0  0  0  0
    4.0193    9.3497  -20.6049 H   0  0  0  0  0  0
    5.6428    9.4560  -23.1352 H   0  0  0  0  0  0
    8.1482   10.1911  -23.3053 H   0  0  0  0  0  0
    7.3200    9.0180  -19.3260 H   0  0  0  0  0  0
  1  2  2  0  0  0
  1  3  1  0  0  0
  1 34  1  0  0  0
  2  6  1  0  0  0
  2 35  1  0  0  0
  3  5  2  0  0  0
  3 27  1  0  0  0
  4  5  1  0  0  0
  4  6  2  0  0  0
  4 18  1  0  0  0
  5 24  1  0  0  0
  6 10  1  0  0  0
  7 10  2  0  0  0
  7 23  1  0  0  0
  7 33  1  0  0  0
  8 21  1  0  0  0
  8 22  1  0  0  0
  8 36  1  0  0  0
  8 37  1  0  0  0
  9 21  1  0  0  0
  9 31  1  0  0  0
  9 38  1  0  0  0
  9 39  1  0  0  0
 10 40  1  0  0  0
 11 12  1  0  0  0
 11 14  2  0  0  0
 11 15  1  0  0  0
 12 17  1  0  0  0
 12 28  2  0  0  0
 13 28  1  0  0  0
 13 29  2  0  0  0
 13 54  1  0  0  0
 14 29  1  0  0  0
 14 31  1  0  0  0
 15 30  2  0  0  0
 15 41  1  0  0  0
 16 17  2  0  0  0
 16 18  1  0  0  0
 16 30  1  0  0  0
 17 26  1  0  0  0
 18 23  2  0  0  0
 19 20  1  0  0  0
 19 31  1  0  0  0
 19 42  1  0  0  0
 19 43  1  0  0  0
 20 22  1  0  0  0
 20 32  1  0  0  0
 20 44  1  0  0  0
 21 32  1  0  0  0
 21 45  1  0  0  0
 22 46  1  0  0  0
 22 47  1  0  0  0
 23 48  1  0  0  0
 24 25  3  0  0  0
 25 49  1  0  0  0
 32 50  1  0  0  0
 33 51  1  0  0  0
 52 58  1  0  0  0
 52 59  1  0  0  0
 53 54  1  0  0  0
 53 56  1  0  0  0
 53 60  1  0  0  0
 53 61  1  0  0  0
 54 62  1  0  0  0
 54 63  1  0  0  0
 55 56  1  0  0  0
 55 57  1  0  0  0
 55 59  2  0  0  0
 56 64  1  0  0  0
 56 65  1  0  0  0
 57 58  2  0  0  0
 57 66  1  0  0  0
 58 67  1  0  0  0
 59 68  1  0  0  0
M  CHG  1  53   1
M  END
> <s_m_entry_id>
619

> <s_m_entry_name>
000000461.1

> <s_m_Source_Path>
/Users/zaksoul/Documents/3r_UNI/2nd_SEMESTER/BSC/FRAG_RECON/RESULTS/2

> <s_m_Source_File>
000000461.mol2

> <i_m_Source_File_Index>
1

$$$$
No_0_483
                    3D
 Schrodinger Suite 2022-4.
 68 74  0  0  1  0            999 V2000
   -5.3700    3.4160  -21.8320 C   0  0  0  0  0  0
   -5.6410    3.6120  -23.1660 C   0  0  0  0  0  0
   -4.1310    3.1580  -21.4980 C   0  0  0  0  0  0
   -3.2480    3.2940  -23.6660 C   0  0  0  0  0  0
   -3.0820    3.0420  -22.2480 C   0  0  0  0  0  0
   -4.5970    3.5620  -24.1800 C   0  0  0  0  0  0
   -3.8510    3.5930  -26.3820 C   0  0  0  0  0  0
    5.8980    2.8120  -21.1590 C   0  0  0  0  0  0
    5.7490    2.9670  -23.7080 C   0  0  0  0  0  0
   -4.8540    3.6960  -25.5140 C   0  0  0  0  0  0
    1.9660    3.5230  -23.7070 C   0  0  0  0  0  0
    1.1480    4.6320  -23.3990 C   0  0  0  0  0  0
    2.9520    5.8200  -22.7200 C   0  0  0  0  0  0
    3.3680    3.7090  -23.3980 C   0  0  0  0  0  0
    1.4140    2.4100  -24.3710 C   0  0  0  0  0  0
   -0.7110    3.2280  -24.2480 C   0  0  0  0  0  0
   -0.1790    4.4440  -23.6450 C   0  0  0  0  0  0
   -2.1650    3.2390  -24.5960 C   0  0  0  0  0  0
    3.9690    1.2090  -23.1210 C   0  0  0  0  0  0
    4.9070    0.8450  -21.9800 C   0  0  2  0  0  0
    6.5010    2.3850  -22.5160 C   0  0  2  0  0  0
    4.8960    1.8410  -20.8080 C   0  0  0  0  0  0
   -2.4960    3.4060  -26.0220 C   0  0  0  0  0  0
   -1.7360    2.6230  -21.6570 C   0  0  0  0  0  0
   -0.7040    2.2700  -21.1570 C   0  0  0  0  0  0
   -1.0170    5.4890  -23.2920 F   0  0  0  0  0  0
   -3.9150    2.9080  -20.1180 F   0  0  0  0  0  0
    1.6300    5.7870  -22.8630 N   0  0  0  0  0  0
    3.8450    4.8570  -22.9490 N   0  0  0  0  0  0
    0.1070    2.3250  -24.6720 N   0  0  0  0  0  0
    4.2830    2.6600  -23.5840 N   0  0  0  0  0  0
    6.3120    0.9120  -22.4680 N   0  0  1  0  0  0
   -4.0290    3.6150  -27.7700 O   0  0  0  0  0  0
   -6.1691    3.4772  -21.1021 H   0  0  0  0  0  0
   -6.6565    3.8107  -23.4891 H   0  0  0  0  0  0
    5.4285    3.8014  -21.2620 H   0  0  0  0  0  0
    6.6873    2.8170  -20.3929 H   0  0  0  0  0  0
    6.1385    2.5260  -24.6374 H   0  0  0  0  0  0
    5.8943    4.0570  -23.7353 H   0  0  0  0  0  0
   -5.8653    3.8848  -25.8555 H   0  0  0  0  0  0
    2.0506    1.5816  -24.6602 H   0  0  0  0  0  0
    2.9274    1.1525  -22.7718 H   0  0  0  0  0  0
    4.1264    0.5147  -23.9596 H   0  0  0  0  0  0
    4.6819   -0.1685  -21.6166 H   0  0  0  0  0  0
    7.5698    2.6403  -22.5655 H   0  0  0  0  0  0
    3.9135    2.3332  -20.7586 H   0  0  0  0  0  0
    5.1988    1.3222  -19.8865 H   0  0  0  0  0  0
   -1.7296    3.3879  -26.7884 H   0  0  0  0  0  0
    0.2044    1.9599  -20.7168 H   0  0  0  0  0  0
    6.9612    0.4093  -21.7664 H   0  0  0  0  0  0
   -3.1864    3.5269  -28.1997 H   0  0  0  0  0  0
    7.8160   10.1720  -22.7780 O   0  0  0  0  0  0
    4.7750    6.9710  -21.4410 N   0  3  0  0  0  0
    3.5160    7.1560  -22.2480 C   0  0  0  0  0  0
    6.1340    9.0890  -21.8200 C   0  0  0  0  0  0
    5.3550    8.2260  -20.8380 C   0  0  0  0  0  0
    5.6750    9.7740  -22.9750 C   0  0  0  0  0  0
    6.7220   10.3950  -23.4990 C   0  0  0  0  0  0
    7.4320    9.3830  -21.7720 C   0  0  0  0  0  0
    5.4738    6.5241  -22.0138 H   0  0  0  0  0  0
    4.6069    6.2968  -20.7108 H   0  0  0  0  0  0
    3.7291    7.7924  -23.1195 H   0  0  0  0  0  0
    2.7632    7.6758  -21.6372 H   0  0  0  0  0  0
    6.0059    7.9570  -19.9931 H   0  0  0  0  0  0
    4.5470    8.8230  -20.3900 H   0  0  0  0  0  0
    4.6262    9.7150  -23.2622 H   0  0  0  0  0  0
    6.6061   10.9875  -24.4053 H   0  0  0  0  0  0
    8.0513    8.9868  -20.9686 H   0  0  0  0  0  0
  1  2  2  0  0  0
  1  3  1  0  0  0
  1 34  1  0  0  0
  2  6  1  0  0  0
  2 35  1  0  0  0
  3  5  2  0  0  0
  3 27  1  0  0  0
  4  5  1  0  0  0
  4  6  2  0  0  0
  4 18  1  0  0  0
  5 24  1  0  0  0
  6 10  1  0  0  0
  7 10  2  0  0  0
  7 23  1  0  0  0
  7 33  1  0  0  0
  8 21  1  0  0  0
  8 22  1  0  0  0
  8 36  1  0  0  0
  8 37  1  0  0  0
  9 21  1  0  0  0
  9 31  1  0  0  0
  9 38  1  0  0  0
  9 39  1  0  0  0
 10 40  1  0  0  0
 11 12  1  0  0  0
 11 14  2  0  0  0
 11 15  1  0  0  0
 12 17  1  0  0  0
 12 28  2  0  0  0
 13 28  1  0  0  0
 13 29  2  0  0  0
 13 54  1  0  0  0
 14 29  1  0  0  0
 14 31  1  0  0  0
 15 30  2  0  0  0
 15 41  1  0  0  0
 16 17  2  0  0  0
 16 18  1  0  0  0
 16 30  1  0  0  0
 17 26  1  0  0  0
 18 23  2  0  0  0
 19 20  1  0  0  0
 19 31  1  0  0  0
 19 42  1  0  0  0
 19 43  1  0  0  0
 20 22  1  0  0  0
 20 32  1  0  0  0
 20 44  1  0  0  0
 21 32  1  0  0  0
 21 45  1  0  0  0
 22 46  1  0  0  0
 22 47  1  0  0  0
 23 48  1  0  0  0
 24 25  3  0  0  0
 25 49  1  0  0  0
 32 50  1  0  0  0
 33 51  1  0  0  0
 52 58  1  0  0  0
 52 59  1  0  0  0
 53 54  1  0  0  0
 53 56  1  0  0  0
 53 60  1  0  0  0
 53 61  1  0  0  0
 54 62  1  0  0  0
 54 63  1  0  0  0
 55 56  1  0  0  0
 55 57  1  0  0  0
 55 59  2  0  0  0
 56 64  1  0  0  0
 56 65  1  0  0  0
 57 58  2  0  0  0
 57 66  1  0  0  0
 58 67  1  0  0  0
 59 68  1  0  0  0
M  CHG  1  53   1
M  END
> <s_m_entry_id>
620

> <s_m_entry_name>
000000462.1

> <s_m_Source_Path>
/Users/zaksoul/Documents/3r_UNI/2nd_SEMESTER/BSC/FRAG_RECON/RESULTS/2

> <s_m_Source_File>
000000462.mol2

> <i_m_Source_File_Index>
1

$$$$
No_0_484
                    3D
 Schrodinger Suite 2022-4.
 68 74  0  0  1  0            999 V2000
   -5.3510    3.4300  -21.8140 C   0  0  0  0  0  0
   -5.6220    3.6250  -23.1470 C   0  0  0  0  0  0
   -4.1110    3.1720  -21.4790 C   0  0  0  0  0  0
   -3.2290    3.3060  -23.6480 C   0  0  0  0  0  0
   -3.0630    3.0550  -22.2300 C   0  0  0  0  0  0
   -4.5790    3.5730  -24.1620 C   0  0  0  0  0  0
   -3.8330    3.6030  -26.3640 C   0  0  0  0  0  0
    5.9170    2.8240  -21.1450 C   0  0  0  0  0  0
    5.7680    2.9770  -23.6930 C   0  0  0  0  0  0
   -4.8350    3.7070  -25.4960 C   0  0  0  0  0  0
    1.9840    3.5340  -23.6910 C   0  0  0  0  0  0
    1.1670    4.6430  -23.3840 C   0  0  0  0  0  0
    2.9710    5.8320  -22.7070 C   0  0  0  0  0  0
    3.3870    3.7200  -23.3830 C   0  0  0  0  0  0
    1.4330    2.4210  -24.3540 C   0  0  0  0  0  0
   -0.6920    3.2390  -24.2310 C   0  0  0  0  0  0
   -0.1600    4.4550  -23.6290 C   0  0  0  0  0  0
   -2.1470    3.2500  -24.5790 C   0  0  0  0  0  0
    3.9880    1.2200  -23.1040 C   0  0  0  0  0  0
    4.9250    0.8570  -21.9630 C   0  0  2  0  0  0
    6.5200    2.3960  -22.5010 C   0  0  2  0  0  0
    4.9150    1.8530  -20.7920 C   0  0  0  0  0  0
   -2.4780    3.4160  -26.0050 C   0  0  0  0  0  0
   -1.7170    2.6360  -21.6390 C   0  0  0  0  0  0
   -0.6850    2.2840  -21.1390 C   0  0  0  0  0  0
   -0.9980    5.5010  -23.2770 F   0  0  0  0  0  0
   -3.8950    2.9240  -20.0990 F   0  0  0  0  0  0
    1.6500    5.7990  -22.8490 N   0  0  0  0  0  0
    3.8650    4.8680  -22.9350 N   0  0  0  0  0  0
    0.1250    2.3350  -24.6540 N   0  0  0  0  0  0
    4.3010    2.6710  -23.5690 N   0  0  0  0  0  0
    6.3300    0.9230  -22.4520 N   0  0  1  0  0  0
   -4.0120    3.6240  -27.7530 O   0  0  0  0  0  0
   -6.1491    3.4922  -21.0831 H   0  0  0  0  0  0
   -6.6375    3.8237  -23.4701 H   0  0  0  0  0  0
    5.4483    3.8138  -21.2480 H   0  0  0  0  0  0
    6.7068    2.8290  -20.3794 H   0  0  0  0  0  0
    6.1577    2.5348  -24.6218 H   0  0  0  0  0  0
    5.9133    4.0670  -23.7223 H   0  0  0  0  0  0
   -5.8465    3.8956  -25.8372 H   0  0  0  0  0  0
    2.0680    1.5914  -24.6429 H   0  0  0  0  0  0
    2.9464    1.1645  -22.7548 H   0  0  0  0  0  0
    4.1443    0.5250  -23.9422 H   0  0  0  0  0  0
    4.7009   -0.1564  -21.5986 H   0  0  0  0  0  0
    7.5890    2.6504  -22.5515 H   0  0  0  0  0  0
    3.9331    2.3465  -20.7426 H   0  0  0  0  0  0
    5.2179    1.3350  -19.8701 H   0  0  0  0  0  0
   -1.7121    3.3969  -26.7719 H   0  0  0  0  0  0
    0.2234    1.9732  -20.6993 H   0  0  0  0  0  0
    6.9799    0.4206  -21.7508 H   0  0  0  0  0  0
   -3.1694    3.5349  -28.1827 H   0  0  0  0  0  0
    7.3800   10.5960  -23.3950 O   0  0  0  0  0  0
    4.9570    7.0290  -21.7540 N   0  3  0  0  0  0
    3.5360    7.1680  -22.2350 C   0  0  0  0  0  0
    6.0430    9.2860  -22.2040 C   0  0  0  0  0  0
    5.5730    8.2750  -21.1680 C   0  0  0  0  0  0
    5.2830   10.0240  -23.1490 C   0  0  0  0  0  0
    6.1360   10.7800  -23.8270 C   0  0  0  0  0  0
    7.2930    9.6920  -22.4170 C   0  0  0  0  0  0
    5.5337    6.6982  -22.5116 H   0  0  0  0  0  0
    5.0090    6.2826  -21.0786 H   0  0  0  0  0  0
    3.4980    7.8932  -23.0612 H   0  0  0  0  0  0
    2.9106    7.5623  -21.4205 H   0  0  0  0  0  0
    6.4181    7.9950  -20.5219 H   0  0  0  0  0  0
    4.8500    8.7550  -20.4920 H   0  0  0  0  0  0
    4.2030    9.8940  -23.2000 H   0  0  0  0  0  0
    5.7728   11.4353  -24.6173 H   0  0  0  0  0  0
    8.1072    9.2869  -21.8179 H   0  0  0  0  0  0
  1  2  2  0  0  0
  1  3  1  0  0  0
  1 34  1  0  0  0
  2  6  1  0  0  0
  2 35  1  0  0  0
  3  5  2  0  0  0
  3 27  1  0  0  0
  4  5  1  0  0  0
  4  6  2  0  0  0
  4 18  1  0  0  0
  5 24  1  0  0  0
  6 10  1  0  0  0
  7 10  2  0  0  0
  7 23  1  0  0  0
  7 33  1  0  0  0
  8 21  1  0  0  0
  8 22  1  0  0  0
  8 36  1  0  0  0
  8 37  1  0  0  0
  9 21  1  0  0  0
  9 31  1  0  0  0
  9 38  1  0  0  0
  9 39  1  0  0  0
 10 40  1  0  0  0
 11 12  1  0  0  0
 11 14  2  0  0  0
 11 15  1  0  0  0
 12 17  1  0  0  0
 12 28  2  0  0  0
 13 28  1  0  0  0
 13 29  2  0  0  0
 13 54  1  0  0  0
 14 29  1  0  0  0
 14 31  1  0  0  0
 15 30  2  0  0  0
 15 41  1  0  0  0
 16 17  2  0  0  0
 16 18  1  0  0  0
 16 30  1  0  0  0
 17 26  1  0  0  0
 18 23  2  0  0  0
 19 20  1  0  0  0
 19 31  1  0  0  0
 19 42  1  0  0  0
 19 43  1  0  0  0
 20 22  1  0  0  0
 20 32  1  0  0  0
 20 44  1  0  0  0
 21 32  1  0  0  0
 21 45  1  0  0  0
 22 46  1  0  0  0
 22 47  1  0  0  0
 23 48  1  0  0  0
 24 25  3  0  0  0
 25 49  1  0  0  0
 32 50  1  0  0  0
 33 51  1  0  0  0
 52 58  1  0  0  0
 52 59  1  0  0  0
 53 54  1  0  0  0
 53 56  1  0  0  0
 53 60  1  0  0  0
 53 61  1  0  0  0
 54 62  1  0  0  0
 54 63  1  0  0  0
 55 56  1  0  0  0
 55 57  1  0  0  0
 55 59  2  0  0  0
 56 64  1  0  0  0
 56 65  1  0  0  0
 57 58  2  0  0  0
 57 66  1  0  0  0
 58 67  1  0  0  0
 59 68  1  0  0  0
M  CHG  1  53   1
M  END
> <s_m_entry_id>
621

> <s_m_entry_name>
000000463.1

> <s_m_Source_Path>
/Users/zaksoul/Documents/3r_UNI/2nd_SEMESTER/BSC/FRAG_RECON/RESULTS/2

> <s_m_Source_File>
000000463.mol2

> <i_m_Source_File_Index>
1

$$$$
No_0_485
                    3D
 Schrodinger Suite 2022-4.
 68 74  0  0  1  0            999 V2000
   -5.4460    3.3230  -21.8270 C   0  0  0  0  0  0
   -5.7000    3.5100  -23.1650 C   0  0  0  0  0  0
   -4.2090    3.0820  -21.4730 C   0  0  0  0  0  0
   -3.2960    3.2200  -23.6290 C   0  0  0  0  0  0
   -3.1480    2.9750  -22.2070 C   0  0  0  0  0  0
   -4.6400    3.4690  -24.1640 C   0  0  0  0  0  0
   -3.8620    3.5010  -26.3540 C   0  0  0  0  0  0
    5.8170    2.8600  -20.9860 C   0  0  0  0  0  0
    5.7040    3.0040  -23.5370 C   0  0  0  0  0  0
   -4.8790    3.5950  -25.5020 C   0  0  0  0  0  0
    1.9150    3.5130  -23.5940 C   0  0  0  0  0  0
    1.0790    4.6130  -23.3020 C   0  0  0  0  0  0
    2.8580    5.8260  -22.6020 C   0  0  0  0  0  0
    3.3100    3.7180  -23.2650 C   0  0  0  0  0  0
    1.3870    2.3910  -24.2620 C   0  0  0  0  0  0
   -0.7500    3.1830  -24.1730 C   0  0  0  0  0  0
   -0.2420    4.4080  -23.5670 C   0  0  0  0  0  0
   -2.1990    3.1740  -24.5430 C   0  0  0  0  0  0
    3.9380    1.2260  -22.9690 C   0  0  0  0  0  0
    4.8630    0.8790  -21.8130 C   0  0  2  0  0  0
    6.4450    2.4360  -22.3310 C   0  0  2  0  0  0
    4.8220    1.8780  -20.6460 C   0  0  0  0  0  0
   -2.5110    3.3320  -25.9740 C   0  0  0  0  0  0
   -1.8060    2.5750  -21.5950 C   0  0  0  0  0  0
   -0.7770    2.2370  -21.0780 C   0  0  0  0  0  0
   -1.0980    5.4440  -23.2310 F   0  0  0  0  0  0
   -4.0110    2.8400  -20.0890 F   0  0  0  0  0  0
    1.5390    5.7760  -22.7650 N   0  0  0  0  0  0
    3.7660    4.8730  -22.8140 N   0  0  0  0  0  0
    0.0850    2.2890  -24.5810 N   0  0  0  0  0  0
    4.2400    2.6800  -23.4340 N   0  0  0  0  0  0
    6.2740    0.9610  -22.2810 N   0  0  1  0  0  0
   -4.0200    3.5150  -27.7450 O   0  0  0  0  0  0
   -6.2558    3.3772  -21.1085 H   0  0  0  0  0  0
   -6.7131    3.6948  -23.5034 H   0  0  0  0  0  0
    5.3378    3.8436  -21.1000 H   0  0  0  0  0  0
    6.5947    2.8782  -20.2083 H   0  0  0  0  0  0
    6.1128    2.5639  -24.4585 H   0  0  0  0  0  0
    5.8362    4.0956  -23.5673 H   0  0  0  0  0  0
   -5.8876    3.7706  -25.8583 H   0  0  0  0  0  0
    2.0374    1.5689  -24.5380 H   0  0  0  0  0  0
    2.8921    1.1584  -22.6351 H   0  0  0  0  0  0
    4.1156    0.5306  -23.8026 H   0  0  0  0  0  0
    4.6451   -0.1358  -21.4488 H   0  0  0  0  0  0
    7.5112    2.7043  -22.3663 H   0  0  0  0  0  0
    3.8334    2.3592  -20.6117 H   0  0  0  0  0  0
    5.1175    1.3666  -19.7180 H   0  0  0  0  0  0
   -1.7331    3.3210  -26.7288 H   0  0  0  0  0  0
    0.1286    1.9401  -20.6232 H   0  0  0  0  0  0
    6.9185    0.4683  -21.5681 H   0  0  0  0  0  0
   -3.1703    3.4359  -28.1624 H   0  0  0  0  0  0
    6.6010   11.0570  -23.7100 O   0  0  0  0  0  0
    4.8970    7.1410  -21.9690 N   0  3  0  0  0  0
    3.3990    7.1710  -22.1270 C   0  0  0  0  0  0
    5.6680    9.5250  -22.4050 C   0  0  0  0  0  0
    5.5200    8.3920  -21.4010 C   0  0  0  0  0  0
    4.6630   10.2550  -23.0920 C   0  0  0  0  0  0
    5.2820   11.1470  -23.8530 C   0  0  0  0  0  0
    6.8040   10.0740  -22.8320 C   0  0  0  0  0  0
    5.3211    6.9319  -22.8592 H   0  0  0  0  0  0
    5.1559    6.3514  -21.3983 H   0  0  0  0  0  0
    3.1219    7.9531  -22.8491 H   0  0  0  0  0  0
    2.9343    7.4318  -21.1647 H   0  0  0  0  0  0
    6.5055    8.1479  -20.9778 H   0  0  0  0  0  0
    4.9240    8.7390  -20.5440 H   0  0  0  0  0  0
    3.6121   10.0200  -22.9300 H   0  0  0  0  0  0
    4.7036   11.8235  -24.4805 H   0  0  0  0  0  0
    7.7593    9.7069  -22.4599 H   0  0  0  0  0  0
  1  2  2  0  0  0
  1  3  1  0  0  0
  1 34  1  0  0  0
  2  6  1  0  0  0
  2 35  1  0  0  0
  3  5  2  0  0  0
  3 27  1  0  0  0
  4  5  1  0  0  0
  4  6  2  0  0  0
  4 18  1  0  0  0
  5 24  1  0  0  0
  6 10  1  0  0  0
  7 10  2  0  0  0
  7 23  1  0  0  0
  7 33  1  0  0  0
  8 21  1  0  0  0
  8 22  1  0  0  0
  8 36  1  0  0  0
  8 37  1  0  0  0
  9 21  1  0  0  0
  9 31  1  0  0  0
  9 38  1  0  0  0
  9 39  1  0  0  0
 10 40  1  0  0  0
 11 12  1  0  0  0
 11 14  2  0  0  0
 11 15  1  0  0  0
 12 17  1  0  0  0
 12 28  2  0  0  0
 13 28  1  0  0  0
 13 29  2  0  0  0
 13 54  1  0  0  0
 14 29  1  0  0  0
 14 31  1  0  0  0
 15 30  2  0  0  0
 15 41  1  0  0  0
 16 17  2  0  0  0
 16 18  1  0  0  0
 16 30  1  0  0  0
 17 26  1  0  0  0
 18 23  2  0  0  0
 19 20  1  0  0  0
 19 31  1  0  0  0
 19 42  1  0  0  0
 19 43  1  0  0  0
 20 22  1  0  0  0
 20 32  1  0  0  0
 20 44  1  0  0  0
 21 32  1  0  0  0
 21 45  1  0  0  0
 22 46  1  0  0  0
 22 47  1  0  0  0
 23 48  1  0  0  0
 24 25  3  0  0  0
 25 49  1  0  0  0
 32 50  1  0  0  0
 33 51  1  0  0  0
 52 58  1  0  0  0
 52 59  1  0  0  0
 53 54  1  0  0  0
 53 56  1  0  0  0
 53 60  1  0  0  0
 53 61  1  0  0  0
 54 62  1  0  0  0
 54 63  1  0  0  0
 55 56  1  0  0  0
 55 57  1  0  0  0
 55 59  2  0  0  0
 56 64  1  0  0  0
 56 65  1  0  0  0
 57 58  2  0  0  0
 57 66  1  0  0  0
 58 67  1  0  0  0
 59 68  1  0  0  0
M  CHG  1  53   1
M  END
> <s_m_entry_id>
622

> <s_m_entry_name>
000000464.1

> <s_m_Source_Path>
/Users/zaksoul/Documents/3r_UNI/2nd_SEMESTER/BSC/FRAG_RECON/RESULTS/2

> <s_m_Source_File>
000000464.mol2

> <i_m_Source_File_Index>
1

$$$$
No_0_486
                    3D
 Schrodinger Suite 2022-4.
 68 74  0  0  1  0            999 V2000
   -5.1810    3.6090  -21.8530 C   0  0  0  0  0  0
   -5.4520    3.8050  -23.1860 C   0  0  0  0  0  0
   -3.9420    3.3510  -21.5190 C   0  0  0  0  0  0
   -3.0590    3.4860  -23.6870 C   0  0  0  0  0  0
   -2.8930    3.2340  -22.2690 C   0  0  0  0  0  0
   -4.4090    3.7540  -24.2010 C   0  0  0  0  0  0
   -3.6630    3.7850  -26.4030 C   0  0  0  0  0  0
    6.0870    3.0010  -21.1820 C   0  0  0  0  0  0
    5.9380    3.1560  -23.7310 C   0  0  0  0  0  0
   -4.6650    3.8890  -25.5350 C   0  0  0  0  0  0
    2.1540    3.7130  -23.7290 C   0  0  0  0  0  0
    1.3370    4.8230  -23.4210 C   0  0  0  0  0  0
    3.1410    6.0110  -22.7430 C   0  0  0  0  0  0
    3.5570    3.8990  -23.4210 C   0  0  0  0  0  0
    1.6030    2.6010  -24.3930 C   0  0  0  0  0  0
   -0.5220    3.4190  -24.2700 C   0  0  0  0  0  0
    0.0100    4.6350  -23.6670 C   0  0  0  0  0  0
   -1.9770    3.4300  -24.6180 C   0  0  0  0  0  0
    4.1570    1.3990  -23.1440 C   0  0  0  0  0  0
    5.0950    1.0350  -22.0030 C   0  0  2  0  0  0
    6.6890    2.5740  -22.5390 C   0  0  2  0  0  0
    5.0840    2.0310  -20.8310 C   0  0  0  0  0  0
   -2.3080    3.5970  -26.0440 C   0  0  0  0  0  0
   -1.5470    2.8150  -21.6780 C   0  0  0  0  0  0
   -0.5150    2.4620  -21.1780 C   0  0  0  0  0  0
   -0.8280    5.6800  -23.3140 F   0  0  0  0  0  0
   -3.7260    3.1020  -20.1390 F   0  0  0  0  0  0
    1.8200    5.9780  -22.8860 N   0  0  0  0  0  0
    4.0350    5.0470  -22.9720 N   0  0  0  0  0  0
    0.2950    2.5160  -24.6930 N   0  0  0  0  0  0
    4.4710    2.8500  -23.6070 N   0  0  0  0  0  0
    6.5000    1.1010  -22.4910 N   0  0  1  0  0  0
   -3.8410    3.8060  -27.7920 O   0  0  0  0  0  0
   -5.9796    3.6712  -21.1226 H   0  0  0  0  0  0
   -6.4675    4.0037  -23.5091 H   0  0  0  0  0  0
    5.6179    3.9906  -21.2849 H   0  0  0  0  0  0
    6.8763    3.0060  -20.4159 H   0  0  0  0  0  0
    6.3275    2.7150  -24.6604 H   0  0  0  0  0  0
    6.0833    4.2460  -23.7593 H   0  0  0  0  0  0
   -5.6765    4.0776  -25.8762 H   0  0  0  0  0  0
    2.2385    1.7718  -24.6821 H   0  0  0  0  0  0
    3.1157    1.3435  -22.7939 H   0  0  0  0  0  0
    4.3144    0.7047  -23.9826 H   0  0  0  0  0  0
    4.8700    0.0218  -21.6387 H   0  0  0  0  0  0
    7.7578    2.8293  -22.5885 H   0  0  0  0  0  0
    4.1018    2.5236  -20.7805 H   0  0  0  0  0  0
    5.3877    1.5123  -19.9097 H   0  0  0  0  0  0
   -1.5411    3.5789  -26.8099 H   0  0  0  0  0  0
    0.3934    2.1519  -20.7378 H   0  0  0  0  0  0
    7.1492    0.5983  -21.7894 H   0  0  0  0  0  0
   -2.9984    3.7179  -28.2217 H   0  0  0  0  0  0
    6.2000   11.6020  -24.1530 O   0  0  0  0  0  0
    5.1970    7.4220  -22.4800 N   0  3  0  0  0  0
    3.7060    7.3460  -22.2710 C   0  0  0  0  0  0
    5.7030    9.8900  -22.8320 C   0  0  0  0  0  0
    5.8690    8.6630  -21.9480 C   0  0  0  0  0  0
    4.5200   10.5960  -23.1780 C   0  0  0  0  0  0
    4.8840   11.5980  -23.9660 C   0  0  0  0  0  0
    6.6660   10.5630  -23.4570 C   0  0  0  0  0  0
    5.4002    7.3279  -23.4628 H   0  0  0  0  0  0
    5.6311    6.6079  -22.0739 H   0  0  0  0  0  0
    3.2181    8.1649  -22.8199 H   0  0  0  0  0  0
    3.4779    7.4830  -21.2037 H   0  0  0  0  0  0
    6.9405    8.4629  -21.7999 H   0  0  0  0  0  0
    5.4833    8.8838  -20.9418 H   0  0  0  0  0  0
    3.5558   10.2639  -22.7959 H   0  0  0  0  0  0
    4.1321   12.2790  -24.3620 H   0  0  0  0  0  0
    7.7026   10.2421  -23.3650 H   0  0  0  0  0  0
  1  2  2  0  0  0
  1  3  1  0  0  0
  1 34  1  0  0  0
  2  6  1  0  0  0
  2 35  1  0  0  0
  3  5  2  0  0  0
  3 27  1  0  0  0
  4  5  1  0  0  0
  4  6  2  0  0  0
  4 18  1  0  0  0
  5 24  1  0  0  0
  6 10  1  0  0  0
  7 10  2  0  0  0
  7 23  1  0  0  0
  7 33  1  0  0  0
  8 21  1  0  0  0
  8 22  1  0  0  0
  8 36  1  0  0  0
  8 37  1  0  0  0
  9 21  1  0  0  0
  9 31  1  0  0  0
  9 38  1  0  0  0
  9 39  1  0  0  0
 10 40  1  0  0  0
 11 12  1  0  0  0
 11 14  2  0  0  0
 11 15  1  0  0  0
 12 17  1  0  0  0
 12 28  2  0  0  0
 13 28  1  0  0  0
 13 29  2  0  0  0
 13 54  1  0  0  0
 14 29  1  0  0  0
 14 31  1  0  0  0
 15 30  2  0  0  0
 15 41  1  0  0  0
 16 17  2  0  0  0
 16 18  1  0  0  0
 16 30  1  0  0  0
 17 26  1  0  0  0
 18 23  2  0  0  0
 19 20  1  0  0  0
 19 31  1  0  0  0
 19 42  1  0  0  0
 19 43  1  0  0  0
 20 22  1  0  0  0
 20 32  1  0  0  0
 20 44  1  0  0  0
 21 32  1  0  0  0
 21 45  1  0  0  0
 22 46  1  0  0  0
 22 47  1  0  0  0
 23 48  1  0  0  0
 24 25  3  0  0  0
 25 49  1  0  0  0
 32 50  1  0  0  0
 33 51  1  0  0  0
 52 58  1  0  0  0
 52 59  1  0  0  0
 53 54  1  0  0  0
 53 56  1  0  0  0
 53 60  1  0  0  0
 53 61  1  0  0  0
 54 62  1  0  0  0
 54 63  1  0  0  0
 55 56  1  0  0  0
 55 57  1  0  0  0
 55 59  2  0  0  0
 56 64  1  0  0  0
 56 65  1  0  0  0
 57 58  2  0  0  0
 57 66  1  0  0  0
 58 67  1  0  0  0
 59 68  1  0  0  0
M  CHG  1  53   1
M  END
> <s_m_entry_id>
623

> <s_m_entry_name>
000000465.1

> <s_m_Source_Path>
/Users/zaksoul/Documents/3r_UNI/2nd_SEMESTER/BSC/FRAG_RECON/RESULTS/2

> <s_m_Source_File>
000000465.mol2

> <i_m_Source_File_Index>
1

$$$$
No_0_487
                    3D
 Schrodinger Suite 2022-4.
 68 74  0  0  1  0            999 V2000
   -5.3950    3.6460  -21.5800 C   0  0  0  0  0  0
   -5.6610    3.8450  -22.9130 C   0  0  0  0  0  0
   -4.1560    3.3910  -21.2410 C   0  0  0  0  0  0
   -3.2650    3.5340  -23.4050 C   0  0  0  0  0  0
   -3.1040    3.2780  -21.9870 C   0  0  0  0  0  0
   -4.6130    3.8000  -23.9240 C   0  0  0  0  0  0
   -3.8580    3.8390  -26.1220 C   0  0  0  0  0  0
    5.8720    3.0660  -20.8640 C   0  0  0  0  0  0
    5.7330    3.2280  -23.4120 C   0  0  0  0  0  0
   -4.8640    3.9380  -25.2590 C   0  0  0  0  0  0
    1.9480    3.7750  -23.4250 C   0  0  0  0  0  0
    1.1270    4.8810  -23.1170 C   0  0  0  0  0  0
    2.9250    6.0720  -22.4280 C   0  0  0  0  0  0
    3.3490    3.9640  -23.1100 C   0  0  0  0  0  0
    1.4020    2.6630  -24.0950 C   0  0  0  0  0  0
   -0.7250    3.4750  -23.9770 C   0  0  0  0  0  0
   -0.1990    4.6910  -23.3690 C   0  0  0  0  0  0
   -2.1780    3.4840  -24.3320 C   0  0  0  0  0  0
    3.9550    1.4640  -22.8380 C   0  0  0  0  0  0
    4.8890    1.0990  -21.6940 C   0  0  2  0  0  0
    6.4810    2.6450  -22.2190 C   0  0  2  0  0  0
    4.8710    2.0920  -20.5190 C   0  0  0  0  0  0
   -2.5040    3.6550  -25.7580 C   0  0  0  0  0  0
   -1.7600    2.8610  -21.3920 C   0  0  0  0  0  0
   -0.7290    2.5090  -20.8890 C   0  0  0  0  0  0
   -1.0410    5.7330  -23.0160 F   0  0  0  0  0  0
   -3.9460    3.1370  -19.8610 F   0  0  0  0  0  0
    1.6040    6.0360  -22.5760 N   0  0  0  0  0  0
    3.8220    5.1110  -22.6560 N   0  0  0  0  0  0
    0.0960    2.5760  -24.4000 N   0  0  0  0  0  0
    4.2670    2.9180  -23.2960 N   0  0  0  0  0  0
    6.2950    1.1710  -22.1760 N   0  0  1  0  0  0
   -4.0310    3.8650  -27.5120 O   0  0  0  0  0  0
   -6.1962    3.7032  -20.8521 H   0  0  0  0  0  0
   -6.6754    4.0427  -23.2401 H   0  0  0  0  0  0
    5.4008    4.0547  -20.9659 H   0  0  0  0  0  0
    6.6583    3.0700  -20.0948 H   0  0  0  0  0  0
    6.1275    2.7911  -24.3412 H   0  0  0  0  0  0
    5.8754    4.3185  -23.4362 H   0  0  0  0  0  0
   -5.8746    4.1257  -25.6032 H   0  0  0  0  0  0
    2.0416    1.8366  -24.3832 H   0  0  0  0  0  0
    2.9122    1.4045  -22.4931 H   0  0  0  0  0  0
    4.1165    0.7724  -23.6780 H   0  0  0  0  0  0
    4.6648    0.0842  -21.3335 H   0  0  0  0  0  0
    7.5496    2.9023  -22.2634 H   0  0  0  0  0  0
    3.8870    2.5815  -20.4716 H   0  0  0  0  0  0
    5.1708    1.5701  -19.5983 H   0  0  0  0  0  0
   -1.7346    3.6410  -26.5214 H   0  0  0  0  0  0
    0.1783    2.1999  -20.4458 H   0  0  0  0  0  0
    6.9428    0.6675  -21.4737 H   0  0  0  0  0  0
   -3.1863    3.7799  -27.9383 H   0  0  0  0  0  0
    4.1980   12.3590  -23.6370 O   0  0  0  0  0  0
    4.6570    7.8490  -22.7860 N   0  3  0  0  0  0
    3.4840    7.4080  -21.9490 C   0  0  0  0  0  0
    4.6250   10.3910  -22.7050 C   0  0  0  0  0  0
    5.3500    9.1080  -22.3280 C   0  0  0  0  0  0
    3.3500   10.8590  -22.2900 C   0  0  0  0  0  0
    3.1550   12.0300  -22.8800 C   0  0  0  0  0  0
    5.0670   11.3540  -23.5110 C   0  0  0  0  0  0
    4.3607    7.9611  -23.7429 H   0  0  0  0  0  0
    5.3293    7.0998  -22.8379 H   0  0  0  0  0  0
    2.6944    8.1726  -21.9940 H   0  0  0  0  0  0
    3.7969    7.3180  -20.8983 H   0  0  0  0  0  0
    6.3705    9.1320  -22.7378 H   0  0  0  0  0  0
    5.4860    9.0730  -21.2370 H   0  0  0  0  0  0
    2.7471   10.2621  -21.6072 H   0  0  0  0  0  0
    2.2301   12.5789  -22.7090 H   0  0  0  0  0  0
    6.0446   11.2639  -23.9823 H   0  0  0  0  0  0
  1  2  2  0  0  0
  1  3  1  0  0  0
  1 34  1  0  0  0
  2  6  1  0  0  0
  2 35  1  0  0  0
  3  5  2  0  0  0
  3 27  1  0  0  0
  4  5  1  0  0  0
  4  6  2  0  0  0
  4 18  1  0  0  0
  5 24  1  0  0  0
  6 10  1  0  0  0
  7 10  2  0  0  0
  7 23  1  0  0  0
  7 33  1  0  0  0
  8 21  1  0  0  0
  8 22  1  0  0  0
  8 36  1  0  0  0
  8 37  1  0  0  0
  9 21  1  0  0  0
  9 31  1  0  0  0
  9 38  1  0  0  0
  9 39  1  0  0  0
 10 40  1  0  0  0
 11 12  1  0  0  0
 11 14  2  0  0  0
 11 15  1  0  0  0
 12 17  1  0  0  0
 12 28  2  0  0  0
 13 28  1  0  0  0
 13 29  2  0  0  0
 13 54  1  0  0  0
 14 29  1  0  0  0
 14 31  1  0  0  0
 15 30  2  0  0  0
 15 41  1  0  0  0
 16 17  2  0  0  0
 16 18  1  0  0  0
 16 30  1  0  0  0
 17 26  1  0  0  0
 18 23  2  0  0  0
 19 20  1  0  0  0
 19 31  1  0  0  0
 19 42  1  0  0  0
 19 43  1  0  0  0
 20 22  1  0  0  0
 20 32  1  0  0  0
 20 44  1  0  0  0
 21 32  1  0  0  0
 21 45  1  0  0  0
 22 46  1  0  0  0
 22 47  1  0  0  0
 23 48  1  0  0  0
 24 25  3  0  0  0
 25 49  1  0  0  0
 32 50  1  0  0  0
 33 51  1  0  0  0
 52 58  1  0  0  0
 52 59  1  0  0  0
 53 54  1  0  0  0
 53 56  1  0  0  0
 53 60  1  0  0  0
 53 61  1  0  0  0
 54 62  1  0  0  0
 54 63  1  0  0  0
 55 56  1  0  0  0
 55 57  1  0  0  0
 55 59  2  0  0  0
 56 64  1  0  0  0
 56 65  1  0  0  0
 57 58  2  0  0  0
 57 66  1  0  0  0
 58 67  1  0  0  0
 59 68  1  0  0  0
M  CHG  1  53   1
M  END
> <s_m_entry_id>
624

> <s_m_entry_name>
000000466.1

> <s_m_Source_Path>
/Users/zaksoul/Documents/3r_UNI/2nd_SEMESTER/BSC/FRAG_RECON/RESULTS/2

> <s_m_Source_File>
000000466.mol2

> <i_m_Source_File_Index>
1

$$$$
No_0_488
                    3D
 Schrodinger Suite 2022-4.
 67 73  0  0  1  0            999 V2000
   -5.1990    3.5300  -22.1690 C   0  0  0  0  0  0
   -5.4590    3.6920  -23.5090 C   0  0  0  0  0  0
   -3.9580    3.3140  -21.8140 C   0  0  0  0  0  0
   -3.0520    3.4300  -23.9750 C   0  0  0  0  0  0
   -2.8970    3.2110  -22.5490 C   0  0  0  0  0  0
   -4.4020    3.6510  -24.5100 C   0  0  0  0  0  0
   -3.6290    3.6590  -26.7020 C   0  0  0  0  0  0
    6.0720    3.2510  -21.3510 C   0  0  0  0  0  0
    5.9510    3.3510  -23.9040 C   0  0  0  0  0  0
   -4.6450    3.7520  -25.8490 C   0  0  0  0  0  0
    2.1540    3.8030  -23.9590 C   0  0  0  0  0  0
    1.3020    4.8940  -23.6830 C   0  0  0  0  0  0
    3.0640    6.1460  -23.0070 C   0  0  0  0  0  0
    3.5460    4.0340  -23.6380 C   0  0  0  0  0  0
    1.6410    2.6620  -24.6070 C   0  0  0  0  0  0
   -0.5070    3.4230  -24.5250 C   0  0  0  0  0  0
   -0.0160    4.6650  -23.9410 C   0  0  0  0  0  0
   -1.9570    3.3870  -24.8910 C   0  0  0  0  0  0
    4.2120    1.5570  -23.3030 C   0  0  0  0  0  0
    5.1450    1.2420  -22.1440 C   0  0  2  0  0  0
    6.7030    2.8140  -22.6910 C   0  0  2  0  0  0
    5.0930    2.2600  -20.9920 C   0  0  0  0  0  0
   -2.2750    3.5160  -26.3240 C   0  0  0  0  0  0
   -1.5470    2.8410  -21.9340 C   0  0  0  0  0  0
   -0.5120    2.5280  -21.4150 C   0  0  0  0  0  0
   -0.8870    5.6930  -23.6190 F   0  0  0  0  0  0
   -3.7520    3.0980  -20.4270 F   0  0  0  0  0  0
    1.7460    6.0730  -23.1650 N   0  0  0  0  0  0
    3.9860    5.2030  -23.2060 N   0  0  0  0  0  0
    0.3400    2.5350  -24.9210 N   0  0  0  0  0  0
    4.4920    3.0070  -23.7920 N   0  0  0  0  0  0
    6.5540    1.3380  -22.6160 N   0  0  1  0  0  0
   -3.7910    3.6480  -28.0940 O   0  0  0  0  0  0
   -6.0079    3.5842  -21.4494 H   0  0  0  0  0  0
   -6.4754    3.8565  -23.8481 H   0  0  0  0  0  0
    5.5774    4.2250  -21.4802 H   0  0  0  0  0  0
    6.8513    3.2934  -20.5758 H   0  0  0  0  0  0
    6.3639    2.9027  -24.8197 H   0  0  0  0  0  0
    6.0660    4.4439  -23.9524 H   0  0  0  0  0  0
   -5.6568    3.9056  -26.2063 H   0  0  0  0  0  0
    2.3036    1.8458  -24.8710 H   0  0  0  0  0  0
    3.1682    1.4793  -22.9648 H   0  0  0  0  0  0
    4.3987    0.8507  -24.1254 H   0  0  0  0  0  0
    4.9443    0.2303  -21.7617 H   0  0  0  0  0  0
    7.7649    3.0976  -22.7344 H   0  0  0  0  0  0
    4.0971    2.7262  -20.9637 H   0  0  0  0  0  0
    5.3979    1.7673  -20.0570 H   0  0  0  0  0  0
   -1.4981    3.5050  -27.0799 H   0  0  0  0  0  0
    0.3989    2.2510  -20.9581 H   0  0  0  0  0  0
    7.2085    0.8674  -21.8973 H   0  0  0  0  0  0
   -2.9409    3.5748  -28.5116 H   0  0  0  0  0  0
    7.8500    8.8310  -20.6240 O   0  0  0  0  0  0
    3.5680    7.6330  -21.0550 N   0  3  0  0  0  0
    6.2480    9.5850  -21.8140 N   0  0  0  0  0  0
    4.1530    8.9120  -20.5140 C   0  0  0  0  0  0
    3.5860    7.5050  -22.5550 C   0  0  0  0  0  0
    5.6530    8.9890  -20.7370 C   0  0  0  0  0  0
    6.6580    8.5260  -20.0060 C   0  0  0  0  0  0
    7.5480    9.4550  -21.6840 C   0  0  0  0  0  0
    2.6214    7.5340  -20.7231 H   0  0  0  0  0  0
    4.0501    6.8469  -20.6479 H   0  0  0  0  0  0
    3.9389    8.9860  -19.4376 H   0  0  0  0  0  0
    3.6669    9.7712  -20.9991 H   0  0  0  0  0  0
    4.6137    7.6440  -22.9219 H   0  0  0  0  0  0
    2.9674    8.2995  -22.9977 H   0  0  0  0  0  0
    6.4571    7.9992  -19.0743 H   0  0  0  0  0  0
    8.2139    9.8630  -22.4429 H   0  0  0  0  0  0
  1  2  2  0  0  0
  1  3  1  0  0  0
  1 34  1  0  0  0
  2  6  1  0  0  0
  2 35  1  0  0  0
  3  5  2  0  0  0
  3 27  1  0  0  0
  4  5  1  0  0  0
  4  6  2  0  0  0
  4 18  1  0  0  0
  5 24  1  0  0  0
  6 10  1  0  0  0
  7 10  2  0  0  0
  7 23  1  0  0  0
  7 33  1  0  0  0
  8 21  1  0  0  0
  8 22  1  0  0  0
  8 36  1  0  0  0
  8 37  1  0  0  0
  9 21  1  0  0  0
  9 31  1  0  0  0
  9 38  1  0  0  0
  9 39  1  0  0  0
 10 40  1  0  0  0
 11 12  1  0  0  0
 11 14  2  0  0  0
 11 15  1  0  0  0
 12 17  1  0  0  0
 12 28  2  0  0  0
 13 28  1  0  0  0
 13 29  2  0  0  0
 13 56  1  0  0  0
 14 29  1  0  0  0
 14 31  1  0  0  0
 15 30  2  0  0  0
 15 41  1  0  0  0
 16 17  2  0  0  0
 16 18  1  0  0  0
 16 30  1  0  0  0
 17 26  1  0  0  0
 18 23  2  0  0  0
 19 20  1  0  0  0
 19 31  1  0  0  0
 19 42  1  0  0  0
 19 43  1  0  0  0
 20 22  1  0  0  0
 20 32  1  0  0  0
 20 44  1  0  0  0
 21 32  1  0  0  0
 21 45  1  0  0  0
 22 46  1  0  0  0
 22 47  1  0  0  0
 23 48  1  0  0  0
 24 25  3  0  0  0
 25 49  1  0  0  0
 32 50  1  0  0  0
 33 51  1  0  0  0
 52 58  1  0  0  0
 52 59  1  0  0  0
 53 55  1  0  0  0
 53 56  1  0  0  0
 53 60  1  0  0  0
 53 61  1  0  0  0
 54 57  1  0  0  0
 54 59  2  0  0  0
 55 57  1  0  0  0
 55 62  1  0  0  0
 55 63  1  0  0  0
 56 64  1  0  0  0
 56 65  1  0  0  0
 57 58  2  0  0  0
 58 66  1  0  0  0
 59 67  1  0  0  0
M  CHG  1  53   1
M  END
> <s_m_entry_id>
625

> <s_m_entry_name>
000000467.1

> <s_m_Source_Path>
/Users/zaksoul/Documents/3r_UNI/2nd_SEMESTER/BSC/FRAG_RECON/RESULTS/2

> <s_m_Source_File>
000000467.mol2

> <i_m_Source_File_Index>
1

$$$$
No_0_489
                    3D
 Schrodinger Suite 2022-4.
 67 73  0  0  1  0            999 V2000
   -5.1920    3.5800  -22.0690 C   0  0  0  0  0  0
   -5.4420    3.7400  -23.4120 C   0  0  0  0  0  0
   -3.9570    3.3390  -21.7080 C   0  0  0  0  0  0
   -3.0390    3.4250  -23.8640 C   0  0  0  0  0  0
   -2.8950    3.2100  -22.4370 C   0  0  0  0  0  0
   -4.3800    3.6710  -24.4070 C   0  0  0  0  0  0
   -3.5970    3.6520  -26.5960 C   0  0  0  0  0  0
    6.0660    3.0660  -21.1920 C   0  0  0  0  0  0
    5.9600    3.1560  -23.7460 C   0  0  0  0  0  0
   -4.6150    3.7710  -25.7480 C   0  0  0  0  0  0
    2.1740    3.6880  -23.8230 C   0  0  0  0  0  0
    1.3440    4.7980  -23.5570 C   0  0  0  0  0  0
    3.1290    6.0150  -22.8780 C   0  0  0  0  0  0
    3.5690    3.8910  -23.4950 C   0  0  0  0  0  0
    1.6400    2.5550  -24.4680 C   0  0  0  0  0  0
   -0.4910    3.3610  -24.4010 C   0  0  0  0  0  0
    0.0230    4.5960  -23.8200 C   0  0  0  0  0  0
   -1.9400    3.3540  -24.7740 C   0  0  0  0  0  0
    4.1810    1.4020  -23.1450 C   0  0  0  0  0  0
    5.1010    1.0740  -21.9800 C   0  0  2  0  0  0
    6.6950    2.6100  -22.5270 C   0  0  2  0  0  0
    5.0640    2.0980  -20.8330 C   0  0  0  0  0  0
   -2.2470    3.4830  -26.2090 C   0  0  0  0  0  0
   -1.5570    2.8150  -21.8130 C   0  0  0  0  0  0
   -0.5310    2.4820  -21.2870 C   0  0  0  0  0  0
   -0.8280    5.6440  -23.5080 F   0  0  0  0  0  0
   -3.7640    3.1250  -20.3180 F   0  0  0  0  0  0
    1.8100    5.9700  -23.0430 N   0  0  0  0  0  0
    4.0320    5.0520  -23.0670 N   0  0  0  0  0  0
    0.3380    2.4540  -24.7880 N   0  0  0  0  0  0
    4.4940    2.8430  -23.6390 N   0  0  0  0  0  0
    6.5140    1.1370  -22.4450 N   0  0  1  0  0  0
   -3.7520    3.6380  -27.9870 O   0  0  0  0  0  0
   -6.0034    3.6543  -21.3540 H   0  0  0  0  0  0
   -6.4531    3.9247  -23.7564 H   0  0  0  0  0  0
    5.5928    4.0497  -21.3282 H   0  0  0  0  0  0
    6.8425    3.0963  -20.4135 H   0  0  0  0  0  0
    6.3678    2.6947  -24.6575 H   0  0  0  0  0  0
    6.0993    4.2458  -23.7995 H   0  0  0  0  0  0
   -5.6218    3.9447  -26.1104 H   0  0  0  0  0  0
    2.2861    1.7233  -24.7248 H   0  0  0  0  0  0
    3.1340    1.3485  -22.8118 H   0  0  0  0  0  0
    4.3565    0.6879  -23.9630 H   0  0  0  0  0  0
    4.8762    0.0688  -21.5939 H   0  0  0  0  0  0
    7.7630    2.8704  -22.5654 H   0  0  0  0  0  0
    4.0781    2.5854  -20.8128 H   0  0  0  0  0  0
    5.3548    1.6043  -19.8940 H   0  0  0  0  0  0
   -1.4679    3.4509  -26.9620 H   0  0  0  0  0  0
    0.3715    2.1888  -20.8237 H   0  0  0  0  0  0
    7.1547    0.6557  -21.7209 H   0  0  0  0  0  0
   -2.9019    3.5450  -28.4007 H   0  0  0  0  0  0
    8.2030    8.8100  -21.3840 O   0  0  0  0  0  0
    3.9950    7.3730  -20.9580 N   0  3  0  0  0  0
    6.3390    9.5500  -22.1120 N   0  0  0  0  0  0
    4.6290    8.6400  -20.4460 C   0  0  0  0  0  0
    3.6770    7.3660  -22.4300 C   0  0  0  0  0  0
    6.0330    8.8330  -20.9890 C   0  0  0  0  0  0
    7.1990    8.3800  -20.5460 C   0  0  0  0  0  0
    7.6390    9.4950  -22.2880 C   0  0  0  0  0  0
    3.1540    7.1850  -20.4350 H   0  0  0  0  0  0
    4.5927    6.5903  -20.7431 H   0  0  0  0  0  0
    4.6620    8.6140  -19.3468 H   0  0  0  0  0  0
    4.0059    9.5012  -20.7291 H   0  0  0  0  0  0
    4.5870    7.6000  -23.0020 H   0  0  0  0  0  0
    2.9386    8.1514  -22.6488 H   0  0  0  0  0  0
    7.2390    7.7681  -19.6461 H   0  0  0  0  0  0
    8.0959   10.0049  -23.1348 H   0  0  0  0  0  0
  1  2  2  0  0  0
  1  3  1  0  0  0
  1 34  1  0  0  0
  2  6  1  0  0  0
  2 35  1  0  0  0
  3  5  2  0  0  0
  3 27  1  0  0  0
  4  5  1  0  0  0
  4  6  2  0  0  0
  4 18  1  0  0  0
  5 24  1  0  0  0
  6 10  1  0  0  0
  7 10  2  0  0  0
  7 23  1  0  0  0
  7 33  1  0  0  0
  8 21  1  0  0  0
  8 22  1  0  0  0
  8 36  1  0  0  0
  8 37  1  0  0  0
  9 21  1  0  0  0
  9 31  1  0  0  0
  9 38  1  0  0  0
  9 39  1  0  0  0
 10 40  1  0  0  0
 11 12  1  0  0  0
 11 14  2  0  0  0
 11 15  1  0  0  0
 12 17  1  0  0  0
 12 28  2  0  0  0
 13 28  1  0  0  0
 13 29  2  0  0  0
 13 56  1  0  0  0
 14 29  1  0  0  0
 14 31  1  0  0  0
 15 30  2  0  0  0
 15 41  1  0  0  0
 16 17  2  0  0  0
 16 18  1  0  0  0
 16 30  1  0  0  0
 17 26  1  0  0  0
 18 23  2  0  0  0
 19 20  1  0  0  0
 19 31  1  0  0  0
 19 42  1  0  0  0
 19 43  1  0  0  0
 20 22  1  0  0  0
 20 32  1  0  0  0
 20 44  1  0  0  0
 21 32  1  0  0  0
 21 45  1  0  0  0
 22 46  1  0  0  0
 22 47  1  0  0  0
 23 48  1  0  0  0
 24 25  3  0  0  0
 25 49  1  0  0  0
 32 50  1  0  0  0
 33 51  1  0  0  0
 52 58  1  0  0  0
 52 59  1  0  0  0
 53 55  1  0  0  0
 53 56  1  0  0  0
 53 60  1  0  0  0
 53 61  1  0  0  0
 54 57  1  0  0  0
 54 59  2  0  0  0
 55 57  1  0  0  0
 55 62  1  0  0  0
 55 63  1  0  0  0
 56 64  1  0  0  0
 56 65  1  0  0  0
 57 58  2  0  0  0
 58 66  1  0  0  0
 59 67  1  0  0  0
M  CHG  1  53   1
M  END
> <s_m_entry_id>
626

> <s_m_entry_name>
000000468.1

> <s_m_Source_Path>
/Users/zaksoul/Documents/3r_UNI/2nd_SEMESTER/BSC/FRAG_RECON/RESULTS/2

> <s_m_Source_File>
000000468.mol2

> <i_m_Source_File_Index>
1

$$$$
No_0_490
                    3D
 Schrodinger Suite 2022-4.
 67 73  0  0  1  0            999 V2000
   -5.1830    3.6640  -21.9870 C   0  0  0  0  0  0
   -5.4430    3.8540  -23.3240 C   0  0  0  0  0  0
   -3.9460    3.4130  -21.6400 C   0  0  0  0  0  0
   -3.0440    3.5460  -23.8010 C   0  0  0  0  0  0
   -2.8900    3.2990  -22.3800 C   0  0  0  0  0  0
   -4.3890    3.8060  -24.3280 C   0  0  0  0  0  0
   -3.6220    3.8330  -26.5230 C   0  0  0  0  0  0
    6.0800    3.1140  -21.2060 C   0  0  0  0  0  0
    5.9550    3.2600  -23.7560 C   0  0  0  0  0  0
   -4.6340    3.9350  -25.6650 C   0  0  0  0  0  0
    2.1690    3.7990  -23.7930 C   0  0  0  0  0  0
    1.3440    4.9050  -23.4960 C   0  0  0  0  0  0
    3.1350    6.1040  -22.8050 C   0  0  0  0  0  0
    3.5670    3.9930  -23.4720 C   0  0  0  0  0  0
    1.6290    2.6820  -24.4590 C   0  0  0  0  0  0
   -0.5010    3.4900  -24.3580 C   0  0  0  0  0  0
    0.0200    4.7100  -23.7540 C   0  0  0  0  0  0
   -1.9520    3.4930  -24.7210 C   0  0  0  0  0  0
    4.1780    1.4960  -23.1810 C   0  0  0  0  0  0
    5.1060    1.1400  -22.0300 C   0  0  2  0  0  0
    6.6980    2.6860  -22.5550 C   0  0  2  0  0  0
    5.0790    2.1400  -20.8610 C   0  0  0  0  0  0
   -2.2700    3.6540  -26.1500 C   0  0  0  0  0  0
   -1.5480    2.8880  -21.7750 C   0  0  0  0  0  0
   -0.5190    2.5420  -21.2640 C   0  0  0  0  0  0
   -0.8270    5.7520  -23.4130 F   0  0  0  0  0  0
   -3.7430    3.1690  -20.2570 F   0  0  0  0  0  0
    1.8150    6.0640  -22.9600 N   0  0  0  0  0  0
    4.0350    5.1440  -23.0220 N   0  0  0  0  0  0
    0.3250    2.5890  -24.7710 N   0  0  0  0  0  0
    4.4890    2.9470  -23.6460 N   0  0  0  0  0  0
    6.5150    1.2120  -22.5050 N   0  0  1  0  0  0
   -3.7880    3.8500  -27.9130 O   0  0  0  0  0  0
   -5.9888    3.7242  -21.2645 H   0  0  0  0  0  0
   -6.4561    4.0478  -23.6574 H   0  0  0  0  0  0
    5.6076    4.1012  -21.3170 H   0  0  0  0  0  0
    6.8623    3.1251  -20.4328 H   0  0  0  0  0  0
    6.3557    2.8189  -24.6806 H   0  0  0  0  0  0
    6.0952    4.3506  -23.7863 H   0  0  0  0  0  0
   -5.6430    4.1177  -26.0164 H   0  0  0  0  0  0
    2.2714    1.8550  -24.7390 H   0  0  0  0  0  0
    3.1336    1.4365  -22.8409 H   0  0  0  0  0  0
    4.3456    0.7995  -24.0158 H   0  0  0  0  0  0
    4.8820    0.1269  -21.6647 H   0  0  0  0  0  0
    7.7659    2.9464  -22.5964 H   0  0  0  0  0  0
    4.0937    2.6276  -20.8226 H   0  0  0  0  0  0
    5.3758    1.6252  -19.9353 H   0  0  0  0  0  0
   -1.4961    3.6369  -26.9088 H   0  0  0  0  0  0
    0.3865    2.2372  -20.8142 H   0  0  0  0  0  0
    7.1600    0.7146  -21.7958 H   0  0  0  0  0  0
   -2.9409    3.7649  -28.3346 H   0  0  0  0  0  0
    8.2510    9.1020  -22.0100 O   0  0  0  0  0  0
    4.2850    7.3390  -20.9530 N   0  3  0  0  0  0
    6.2460    9.7720  -22.2950 N   0  0  0  0  0  0
    4.9400    8.5960  -20.4410 C   0  0  0  0  0  0
    3.6890    7.4440  -22.3310 C   0  0  0  0  0  0
    6.2010    8.9360  -21.2150 C   0  0  0  0  0  0
    7.4520    8.5280  -21.0480 C   0  0  0  0  0  0
    7.4880    9.8250  -22.7170 C   0  0  0  0  0  0
    3.5727    7.0459  -20.3028 H   0  0  0  0  0  0
    4.9528    6.5842  -20.9350 H   0  0  0  0  0  0
    5.1870    8.4730  -19.3762 H   0  0  0  0  0  0
    4.2299    9.4331  -20.5120 H   0  0  0  0  0  0
    4.4572    7.7921  -23.0372 H   0  0  0  0  0  0
    2.8823    8.1918  -22.3250 H   0  0  0  0  0  0
    7.6969    7.8412  -20.2392 H   0  0  0  0  0  0
    7.7449   10.4408  -23.5777 H   0  0  0  0  0  0
  1  2  2  0  0  0
  1  3  1  0  0  0
  1 34  1  0  0  0
  2  6  1  0  0  0
  2 35  1  0  0  0
  3  5  2  0  0  0
  3 27  1  0  0  0
  4  5  1  0  0  0
  4  6  2  0  0  0
  4 18  1  0  0  0
  5 24  1  0  0  0
  6 10  1  0  0  0
  7 10  2  0  0  0
  7 23  1  0  0  0
  7 33  1  0  0  0
  8 21  1  0  0  0
  8 22  1  0  0  0
  8 36  1  0  0  0
  8 37  1  0  0  0
  9 21  1  0  0  0
  9 31  1  0  0  0
  9 38  1  0  0  0
  9 39  1  0  0  0
 10 40  1  0  0  0
 11 12  1  0  0  0
 11 14  2  0  0  0
 11 15  1  0  0  0
 12 17  1  0  0  0
 12 28  2  0  0  0
 13 28  1  0  0  0
 13 29  2  0  0  0
 13 56  1  0  0  0
 14 29  1  0  0  0
 14 31  1  0  0  0
 15 30  2  0  0  0
 15 41  1  0  0  0
 16 17  2  0  0  0
 16 18  1  0  0  0
 16 30  1  0  0  0
 17 26  1  0  0  0
 18 23  2  0  0  0
 19 20  1  0  0  0
 19 31  1  0  0  0
 19 42  1  0  0  0
 19 43  1  0  0  0
 20 22  1  0  0  0
 20 32  1  0  0  0
 20 44  1  0  0  0
 21 32  1  0  0  0
 21 45  1  0  0  0
 22 46  1  0  0  0
 22 47  1  0  0  0
 23 48  1  0  0  0
 24 25  3  0  0  0
 25 49  1  0  0  0
 32 50  1  0  0  0
 33 51  1  0  0  0
 52 58  1  0  0  0
 52 59  1  0  0  0
 53 55  1  0  0  0
 53 56  1  0  0  0
 53 60  1  0  0  0
 53 61  1  0  0  0
 54 57  1  0  0  0
 54 59  2  0  0  0
 55 57  1  0  0  0
 55 62  1  0  0  0
 55 63  1  0  0  0
 56 64  1  0  0  0
 56 65  1  0  0  0
 57 58  2  0  0  0
 58 66  1  0  0  0
 59 67  1  0  0  0
M  CHG  1  53   1
M  END
> <s_m_entry_id>
627

> <s_m_entry_name>
000000469.1

> <s_m_Source_Path>
/Users/zaksoul/Documents/3r_UNI/2nd_SEMESTER/BSC/FRAG_RECON/RESULTS/2

> <s_m_Source_File>
000000469.mol2

> <i_m_Source_File_Index>
1

$$$$
No_0_491
                    3D
 Schrodinger Suite 2022-4.
 67 73  0  0  1  0            999 V2000
   -5.1810    3.6090  -21.8530 C   0  0  0  0  0  0
   -5.4520    3.8050  -23.1860 C   0  0  0  0  0  0
   -3.9420    3.3510  -21.5190 C   0  0  0  0  0  0
   -3.0590    3.4860  -23.6870 C   0  0  0  0  0  0
   -2.8930    3.2340  -22.2690 C   0  0  0  0  0  0
   -4.4090    3.7540  -24.2010 C   0  0  0  0  0  0
   -3.6630    3.7850  -26.4030 C   0  0  0  0  0  0
    6.0870    3.0010  -21.1820 C   0  0  0  0  0  0
    5.9380    3.1560  -23.7310 C   0  0  0  0  0  0
   -4.6650    3.8890  -25.5350 C   0  0  0  0  0  0
    2.1540    3.7130  -23.7290 C   0  0  0  0  0  0
    1.3370    4.8230  -23.4210 C   0  0  0  0  0  0
    3.1410    6.0110  -22.7430 C   0  0  0  0  0  0
    3.5570    3.8990  -23.4210 C   0  0  0  0  0  0
    1.6030    2.6010  -24.3930 C   0  0  0  0  0  0
   -0.5220    3.4190  -24.2700 C   0  0  0  0  0  0
    0.0100    4.6350  -23.6670 C   0  0  0  0  0  0
   -1.9770    3.4300  -24.6180 C   0  0  0  0  0  0
    4.1570    1.3990  -23.1440 C   0  0  0  0  0  0
    5.0950    1.0350  -22.0030 C   0  0  2  0  0  0
    6.6890    2.5740  -22.5390 C   0  0  2  0  0  0
    5.0840    2.0310  -20.8310 C   0  0  0  0  0  0
   -2.3080    3.5970  -26.0440 C   0  0  0  0  0  0
   -1.5470    2.8150  -21.6780 C   0  0  0  0  0  0
   -0.5150    2.4620  -21.1780 C   0  0  0  0  0  0
   -0.8280    5.6800  -23.3140 F   0  0  0  0  0  0
   -3.7260    3.1020  -20.1390 F   0  0  0  0  0  0
    1.8200    5.9780  -22.8860 N   0  0  0  0  0  0
    4.0350    5.0470  -22.9720 N   0  0  0  0  0  0
    0.2950    2.5160  -24.6930 N   0  0  0  0  0  0
    4.4710    2.8500  -23.6070 N   0  0  0  0  0  0
    6.5000    1.1010  -22.4910 N   0  0  1  0  0  0
   -3.8410    3.8060  -27.7920 O   0  0  0  0  0  0
   -5.9796    3.6712  -21.1226 H   0  0  0  0  0  0
   -6.4675    4.0037  -23.5091 H   0  0  0  0  0  0
    5.6179    3.9906  -21.2849 H   0  0  0  0  0  0
    6.8763    3.0060  -20.4159 H   0  0  0  0  0  0
    6.3275    2.7150  -24.6604 H   0  0  0  0  0  0
    6.0833    4.2460  -23.7593 H   0  0  0  0  0  0
   -5.6765    4.0776  -25.8762 H   0  0  0  0  0  0
    2.2385    1.7718  -24.6821 H   0  0  0  0  0  0
    3.1157    1.3435  -22.7939 H   0  0  0  0  0  0
    4.3144    0.7047  -23.9826 H   0  0  0  0  0  0
    4.8700    0.0218  -21.6387 H   0  0  0  0  0  0
    7.7578    2.8293  -22.5885 H   0  0  0  0  0  0
    4.1018    2.5236  -20.7805 H   0  0  0  0  0  0
    5.3877    1.5123  -19.9097 H   0  0  0  0  0  0
   -1.5411    3.5789  -26.8099 H   0  0  0  0  0  0
    0.3934    2.1519  -20.7378 H   0  0  0  0  0  0
    7.1492    0.5983  -21.7894 H   0  0  0  0  0  0
   -2.9984    3.7179  -28.2217 H   0  0  0  0  0  0
    8.1980    9.2010  -22.5120 O   0  0  0  0  0  0
    4.5040    7.1920  -21.0030 N   0  3  0  0  0  0
    6.1470    9.7890  -22.4600 N   0  0  0  0  0  0
    5.1770    8.4470  -20.5130 C   0  0  0  0  0  0
    3.7060    7.3460  -22.2710 C   0  0  0  0  0  0
    6.2950    8.8910  -21.4400 C   0  0  0  0  0  0
    7.5720    8.5350  -21.4820 C   0  0  0  0  0  0
    7.3110    9.9260  -23.0530 C   0  0  0  0  0  0
    3.9070    6.8280  -20.2770 H   0  0  0  0  0  0
    5.1958    6.4702  -21.1310 H   0  0  0  0  0  0
    5.5841    8.2749  -19.5057 H   0  0  0  0  0  0
    4.4327    9.2523  -20.4270 H   0  0  0  0  0  0
    4.3478    7.7709  -23.0568 H   0  0  0  0  0  0
    2.8809    8.0531  -22.1000 H   0  0  0  0  0  0
    7.9609    7.8152  -20.7632 H   0  0  0  0  0  0
    7.4130   10.6012  -23.9013 H   0  0  0  0  0  0
  1  2  2  0  0  0
  1  3  1  0  0  0
  1 34  1  0  0  0
  2  6  1  0  0  0
  2 35  1  0  0  0
  3  5  2  0  0  0
  3 27  1  0  0  0
  4  5  1  0  0  0
  4  6  2  0  0  0
  4 18  1  0  0  0
  5 24  1  0  0  0
  6 10  1  0  0  0
  7 10  2  0  0  0
  7 23  1  0  0  0
  7 33  1  0  0  0
  8 21  1  0  0  0
  8 22  1  0  0  0
  8 36  1  0  0  0
  8 37  1  0  0  0
  9 21  1  0  0  0
  9 31  1  0  0  0
  9 38  1  0  0  0
  9 39  1  0  0  0
 10 40  1  0  0  0
 11 12  1  0  0  0
 11 14  2  0  0  0
 11 15  1  0  0  0
 12 17  1  0  0  0
 12 28  2  0  0  0
 13 28  1  0  0  0
 13 29  2  0  0  0
 13 56  1  0  0  0
 14 29  1  0  0  0
 14 31  1  0  0  0
 15 30  2  0  0  0
 15 41  1  0  0  0
 16 17  2  0  0  0
 16 18  1  0  0  0
 16 30  1  0  0  0
 17 26  1  0  0  0
 18 23  2  0  0  0
 19 20  1  0  0  0
 19 31  1  0  0  0
 19 42  1  0  0  0
 19 43  1  0  0  0
 20 22  1  0  0  0
 20 32  1  0  0  0
 20 44  1  0  0  0
 21 32  1  0  0  0
 21 45  1  0  0  0
 22 46  1  0  0  0
 22 47  1  0  0  0
 23 48  1  0  0  0
 24 25  3  0  0  0
 25 49  1  0  0  0
 32 50  1  0  0  0
 33 51  1  0  0  0
 52 58  1  0  0  0
 52 59  1  0  0  0
 53 55  1  0  0  0
 53 56  1  0  0  0
 53 60  1  0  0  0
 53 61  1  0  0  0
 54 57  1  0  0  0
 54 59  2  0  0  0
 55 57  1  0  0  0
 55 62  1  0  0  0
 55 63  1  0  0  0
 56 64  1  0  0  0
 56 65  1  0  0  0
 57 58  2  0  0  0
 58 66  1  0  0  0
 59 67  1  0  0  0
M  CHG  1  53   1
M  END
> <s_m_entry_id>
628

> <s_m_entry_name>
000000470.1

> <s_m_Source_Path>
/Users/zaksoul/Documents/3r_UNI/2nd_SEMESTER/BSC/FRAG_RECON/RESULTS/2

> <s_m_Source_File>
000000470.mol2

> <i_m_Source_File_Index>
1

$$$$
No_0_492
                    3D
 Schrodinger Suite 2022-4.
 67 73  0  0  1  0            999 V2000
   -5.2610    3.5710  -21.8610 C   0  0  0  0  0  0
   -5.5320    3.7530  -23.1970 C   0  0  0  0  0  0
   -4.0220    3.3170  -21.5240 C   0  0  0  0  0  0
   -3.1390    3.4300  -23.6930 C   0  0  0  0  0  0
   -2.9730    3.1920  -22.2720 C   0  0  0  0  0  0
   -4.4880    3.6930  -24.2110 C   0  0  0  0  0  0
   -3.7410    3.7010  -26.4120 C   0  0  0  0  0  0
    6.0060    2.9730  -21.1790 C   0  0  0  0  0  0
    5.8580    3.1020  -23.7290 C   0  0  0  0  0  0
   -4.7440    3.8140  -25.5460 C   0  0  0  0  0  0
    2.0750    3.6590  -23.7350 C   0  0  0  0  0  0
    1.2580    4.7700  -23.4380 C   0  0  0  0  0  0
    3.0610    5.9660  -22.7710 C   0  0  0  0  0  0
    3.4770    3.8480  -23.4280 C   0  0  0  0  0  0
    1.5240    2.5390  -24.3880 C   0  0  0  0  0  0
   -0.6010    3.3580  -24.2740 C   0  0  0  0  0  0
   -0.0700    4.5800  -23.6830 C   0  0  0  0  0  0
   -2.0560    3.3650  -24.6230 C   0  0  0  0  0  0
    4.0780    1.3500  -23.1250 C   0  0  0  0  0  0
    5.0150    0.9980  -21.9800 C   0  0  2  0  0  0
    6.6100    2.5330  -22.5310 C   0  0  2  0  0  0
    5.0040    2.0060  -20.8180 C   0  0  0  0  0  0
   -2.3860    3.5180  -26.0500 C   0  0  0  0  0  0
   -1.6280    2.7790  -21.6760 C   0  0  0  0  0  0
   -0.5960    2.4320  -21.1730 C   0  0  0  0  0  0
   -0.9080    5.6290  -23.3410 F   0  0  0  0  0  0
   -3.8070    3.0810  -20.1410 F   0  0  0  0  0  0
    1.7390    5.9310  -22.9140 N   0  0  0  0  0  0
    3.9540    5.0000  -22.9900 N   0  0  0  0  0  0
    0.2160    2.4510  -24.6880 N   0  0  0  0  0  0
    4.3920    2.7970  -23.6030 N   0  0  0  0  0  0
    6.4200    1.0600  -22.4680 N   0  0  1  0  0  0
   -3.9190    3.7090  -27.8010 O   0  0  0  0  0  0
   -6.0603    3.6393  -21.1320 H   0  0  0  0  0  0
   -6.5474    3.9487  -23.5221 H   0  0  0  0  0  0
    5.5378    3.9619  -21.2920 H   0  0  0  0  0  0
    6.7953    2.9861  -20.4129 H   0  0  0  0  0  0
    6.2486    2.6518  -24.6535 H   0  0  0  0  0  0
    6.0033    4.1917  -23.7683 H   0  0  0  0  0  0
   -5.7554    3.9988  -25.8895 H   0  0  0  0  0  0
    2.1602    1.7072  -24.6680 H   0  0  0  0  0  0
    3.0365    1.2975  -22.7748 H   0  0  0  0  0  0
    4.2355    0.6475  -23.9567 H   0  0  0  0  0  0
    4.7899   -0.0115  -21.6055 H   0  0  0  0  0  0
    7.6789    2.7874  -22.5825 H   0  0  0  0  0  0
    4.0215    2.4987  -20.7736 H   0  0  0  0  0  0
    5.3068    1.4963  -19.8914 H   0  0  0  0  0  0
   -1.6192    3.4929  -26.8158 H   0  0  0  0  0  0
    0.3122    2.1263  -20.7294 H   0  0  0  0  0  0
    7.0696    0.5643  -21.7618 H   0  0  0  0  0  0
   -3.0761    3.6170  -28.2294 H   0  0  0  0  0  0
    7.8810    9.4820  -23.2210 O   0  0  0  0  0  0
    4.6500    7.1300  -21.2230 N   0  3  0  0  0  0
    5.8450    9.9210  -22.7580 N   0  0  0  0  0  0
    5.3290    8.3980  -20.7720 C   0  0  0  0  0  0
    3.6250    7.3060  -22.3120 C   0  0  0  0  0  0
    6.2290    8.9740  -21.8490 C   0  0  0  0  0  0
    7.4950    8.7120  -22.1470 C   0  0  0  0  0  0
    6.8690   10.1750  -23.5400 C   0  0  0  0  0  0
    4.2188    6.6818  -20.4297 H   0  0  0  0  0  0
    5.3471    6.4679  -21.5260 H   0  0  0  0  0  0
    5.9229    8.1930  -19.8691 H   0  0  0  0  0  0
    4.5678    9.1422  -20.4949 H   0  0  0  0  0  0
    4.0849    7.8219  -23.1678 H   0  0  0  0  0  0
    2.8060    7.9420  -21.9450 H   0  0  0  0  0  0
    8.0509    7.9791  -21.5641 H   0  0  0  0  0  0
    6.7740   10.9063  -24.3413 H   0  0  0  0  0  0
  1  2  2  0  0  0
  1  3  1  0  0  0
  1 34  1  0  0  0
  2  6  1  0  0  0
  2 35  1  0  0  0
  3  5  2  0  0  0
  3 27  1  0  0  0
  4  5  1  0  0  0
  4  6  2  0  0  0
  4 18  1  0  0  0
  5 24  1  0  0  0
  6 10  1  0  0  0
  7 10  2  0  0  0
  7 23  1  0  0  0
  7 33  1  0  0  0
  8 21  1  0  0  0
  8 22  1  0  0  0
  8 36  1  0  0  0
  8 37  1  0  0  0
  9 21  1  0  0  0
  9 31  1  0  0  0
  9 38  1  0  0  0
  9 39  1  0  0  0
 10 40  1  0  0  0
 11 12  1  0  0  0
 11 14  2  0  0  0
 11 15  1  0  0  0
 12 17  1  0  0  0
 12 28  2  0  0  0
 13 28  1  0  0  0
 13 29  2  0  0  0
 13 56  1  0  0  0
 14 29  1  0  0  0
 14 31  1  0  0  0
 15 30  2  0  0  0
 15 41  1  0  0  0
 16 17  2  0  0  0
 16 18  1  0  0  0
 16 30  1  0  0  0
 17 26  1  0  0  0
 18 23  2  0  0  0
 19 20  1  0  0  0
 19 31  1  0  0  0
 19 42  1  0  0  0
 19 43  1  0  0  0
 20 22  1  0  0  0
 20 32  1  0  0  0
 20 44  1  0  0  0
 21 32  1  0  0  0
 21 45  1  0  0  0
 22 46  1  0  0  0
 22 47  1  0  0  0
 23 48  1  0  0  0
 24 25  3  0  0  0
 25 49  1  0  0  0
 32 50  1  0  0  0
 33 51  1  0  0  0
 52 58  1  0  0  0
 52 59  1  0  0  0
 53 55  1  0  0  0
 53 56  1  0  0  0
 53 60  1  0  0  0
 53 61  1  0  0  0
 54 57  1  0  0  0
 54 59  2  0  0  0
 55 57  1  0  0  0
 55 62  1  0  0  0
 55 63  1  0  0  0
 56 64  1  0  0  0
 56 65  1  0  0  0
 57 58  2  0  0  0
 58 66  1  0  0  0
 59 67  1  0  0  0
M  CHG  1  53   1
M  END
> <s_m_entry_id>
629

> <s_m_entry_name>
000000471.1

> <s_m_Source_Path>
/Users/zaksoul/Documents/3r_UNI/2nd_SEMESTER/BSC/FRAG_RECON/RESULTS/2

> <s_m_Source_File>
000000471.mol2

> <i_m_Source_File_Index>
1

$$$$
No_0_493
                    3D
 Schrodinger Suite 2022-4.
 67 73  0  0  1  0            999 V2000
   -5.3920    3.5550  -22.0950 C   0  0  0  0  0  0
   -5.6330    3.7290  -23.4370 C   0  0  0  0  0  0
   -4.1590    3.3130  -21.7280 C   0  0  0  0  0  0
   -3.2270    3.4230  -23.8770 C   0  0  0  0  0  0
   -3.0920    3.1940  -22.4510 C   0  0  0  0  0  0
   -4.5650    3.6720  -24.4270 C   0  0  0  0  0  0
   -3.7680    3.6760  -26.6100 C   0  0  0  0  0  0
    5.8620    3.0550  -21.1500 C   0  0  0  0  0  0
    5.7720    3.1710  -23.7030 C   0  0  0  0  0  0
   -4.7910    3.7840  -25.7680 C   0  0  0  0  0  0
    1.9850    3.6950  -23.7990 C   0  0  0  0  0  0
    1.1520    4.8020  -23.5270 C   0  0  0  0  0  0
    2.9290    6.0150  -22.8250 C   0  0  0  0  0  0
    3.3780    3.8980  -23.4610 C   0  0  0  0  0  0
    1.4580    2.5680  -24.4590 C   0  0  0  0  0  0
   -0.6760    3.3690  -24.3980 C   0  0  0  0  0  0
   -0.1680    4.5990  -23.8020 C   0  0  0  0  0  0
   -2.1220    3.3630  -24.7810 C   0  0  0  0  0  0
    3.9920    1.4070  -23.1320 C   0  0  0  0  0  0
    4.9060    1.0680  -21.9640 C   0  0  2  0  0  0
    6.4990    2.6130  -22.4850 C   0  0  2  0  0  0
    4.8590    2.0810  -20.8070 C   0  0  0  0  0  0
   -2.4200    3.5060  -26.2160 C   0  0  0  0  0  0
   -1.7570    2.7950  -21.8220 C   0  0  0  0  0  0
   -0.7340    2.4590  -21.2930 C   0  0  0  0  0  0
   -1.0230    5.6420  -23.4840 F   0  0  0  0  0  0
   -3.9740    3.0860  -20.3390 F   0  0  0  0  0  0
    1.6110    5.9690  -22.9980 N   0  0  0  0  0  0
    3.8350    5.0560  -23.0180 N   0  0  0  0  0  0
    0.1580    2.4670  -24.7890 N   0  0  0  0  0  0
    4.3050    2.8540  -23.6090 N   0  0  0  0  0  0
    6.3210    1.1390  -22.4190 N   0  0  1  0  0  0
   -3.9140    3.6760  -28.0030 O   0  0  0  0  0  0
   -6.2079    3.6212  -21.3844 H   0  0  0  0  0  0
   -6.6419    3.9147  -23.7873 H   0  0  0  0  0  0
    5.3868    4.0386  -21.2791 H   0  0  0  0  0  0
    6.6331    3.0782  -20.3658 H   0  0  0  0  0  0
    6.1867    2.7190  -24.6161 H   0  0  0  0  0  0
    5.9083    4.2617  -23.7444 H   0  0  0  0  0  0
   -5.7956    3.9596  -26.1353 H   0  0  0  0  0  0
    2.1073    1.7401  -24.7199 H   0  0  0  0  0  0
    2.9431    1.3474  -22.8059 H   0  0  0  0  0  0
    4.1747    0.7013  -23.9558 H   0  0  0  0  0  0
    4.6799    0.0587  -21.5896 H   0  0  0  0  0  0
    7.5666    2.8764  -22.5133 H   0  0  0  0  0  0
    3.8721    2.5664  -20.7878 H   0  0  0  0  0  0
    5.1447    1.5783  -19.8712 H   0  0  0  0  0  0
   -1.6358    3.4829  -26.9640 H   0  0  0  0  0  0
    0.1661    2.1630  -20.8269 H   0  0  0  0  0  0
    6.9575    0.6523  -21.6948 H   0  0  0  0  0  0
   -3.0603    3.5889  -28.4106 H   0  0  0  0  0  0
    7.2610   10.0020  -23.8900 O   0  0  0  0  0  0
    4.7120    7.1990  -21.5220 N   0  3  0  0  0  0
    5.3390   10.2050  -22.9850 N   0  0  0  0  0  0
    5.3700    8.4860  -21.0950 C   0  0  0  0  0  0
    3.4710    7.3620  -22.3600 C   0  0  0  0  0  0
    5.9780    9.2310  -22.2700 C   0  0  0  0  0  0
    7.1700    9.1150  -22.8410 C   0  0  0  0  0  0
    6.1540   10.6180  -23.9280 C   0  0  0  0  0  0
    4.4929    6.6498  -20.7057 H   0  0  0  0  0  0
    5.3795    6.6334  -22.0226 H   0  0  0  0  0  0
    6.1541    8.2680  -20.3549 H   0  0  0  0  0  0
    4.6289    9.1291  -20.5979 H   0  0  0  0  0  0
    3.7009    7.9868  -23.2357 H   0  0  0  0  0  0
    2.7009    7.8850  -21.7740 H   0  0  0  0  0  0
    7.8905    8.3945  -22.4567 H   0  0  0  0  0  0
    5.8380   11.3990  -24.6180 H   0  0  0  0  0  0
  1  2  2  0  0  0
  1  3  1  0  0  0
  1 34  1  0  0  0
  2  6  1  0  0  0
  2 35  1  0  0  0
  3  5  2  0  0  0
  3 27  1  0  0  0
  4  5  1  0  0  0
  4  6  2  0  0  0
  4 18  1  0  0  0
  5 24  1  0  0  0
  6 10  1  0  0  0
  7 10  2  0  0  0
  7 23  1  0  0  0
  7 33  1  0  0  0
  8 21  1  0  0  0
  8 22  1  0  0  0
  8 36  1  0  0  0
  8 37  1  0  0  0
  9 21  1  0  0  0
  9 31  1  0  0  0
  9 38  1  0  0  0
  9 39  1  0  0  0
 10 40  1  0  0  0
 11 12  1  0  0  0
 11 14  2  0  0  0
 11 15  1  0  0  0
 12 17  1  0  0  0
 12 28  2  0  0  0
 13 28  1  0  0  0
 13 29  2  0  0  0
 13 56  1  0  0  0
 14 29  1  0  0  0
 14 31  1  0  0  0
 15 30  2  0  0  0
 15 41  1  0  0  0
 16 17  2  0  0  0
 16 18  1  0  0  0
 16 30  1  0  0  0
 17 26  1  0  0  0
 18 23  2  0  0  0
 19 20  1  0  0  0
 19 31  1  0  0  0
 19 42  1  0  0  0
 19 43  1  0  0  0
 20 22  1  0  0  0
 20 32  1  0  0  0
 20 44  1  0  0  0
 21 32  1  0  0  0
 21 45  1  0  0  0
 22 46  1  0  0  0
 22 47  1  0  0  0
 23 48  1  0  0  0
 24 25  3  0  0  0
 25 49  1  0  0  0
 32 50  1  0  0  0
 33 51  1  0  0  0
 52 58  1  0  0  0
 52 59  1  0  0  0
 53 55  1  0  0  0
 53 56  1  0  0  0
 53 60  1  0  0  0
 53 61  1  0  0  0
 54 57  1  0  0  0
 54 59  2  0  0  0
 55 57  1  0  0  0
 55 62  1  0  0  0
 55 63  1  0  0  0
 56 64  1  0  0  0
 56 65  1  0  0  0
 57 58  2  0  0  0
 58 66  1  0  0  0
 59 67  1  0  0  0
M  CHG  1  53   1
M  END
> <s_m_entry_id>
630

> <s_m_entry_name>
000000472.1

> <s_m_Source_Path>
/Users/zaksoul/Documents/3r_UNI/2nd_SEMESTER/BSC/FRAG_RECON/RESULTS/2

> <s_m_Source_File>
000000472.mol2

> <i_m_Source_File_Index>
1

$$$$
No_0_494
                    3D
 Schrodinger Suite 2022-4.
 67 73  0  0  1  0            999 V2000
   -5.4210    3.6450  -22.0120 C   0  0  0  0  0  0
   -5.6580    3.8460  -23.3520 C   0  0  0  0  0  0
   -4.1970    3.3560  -21.6510 C   0  0  0  0  0  0
   -3.2630    3.4670  -23.7990 C   0  0  0  0  0  0
   -3.1350    3.2120  -22.3770 C   0  0  0  0  0  0
   -4.5940    3.7690  -24.3430 C   0  0  0  0  0  0
   -3.7990    3.7790  -26.5270 C   0  0  0  0  0  0
    5.8100    2.7540  -21.0920 C   0  0  0  0  0  0
    5.7210    2.9110  -23.6420 C   0  0  0  0  0  0
   -4.8170    3.9090  -25.6820 C   0  0  0  0  0  0
    1.9540    3.5630  -23.7250 C   0  0  0  0  0  0
    1.1590    4.6920  -23.4350 C   0  0  0  0  0  0
    2.9770    5.8350  -22.7180 C   0  0  0  0  0  0
    3.3530    3.7140  -23.3860 C   0  0  0  0  0  0
    1.3890    2.4640  -24.4010 C   0  0  0  0  0  0
   -0.7160    3.3350  -24.3250 C   0  0  0  0  0  0
   -0.1670    4.5380  -23.7110 C   0  0  0  0  0  0
   -2.1620    3.3830  -24.7050 C   0  0  0  0  0  0
    3.8850    1.1990  -23.0950 C   0  0  0  0  0  0
    4.7870    0.8120  -21.9340 C   0  0  2  0  0  0
    6.4310    2.3110  -22.4340 C   0  0  2  0  0  0
    4.7760    1.8090  -20.7620 C   0  0  0  0  0  0
   -2.4570    3.5580  -26.1380 C   0  0  0  0  0  0
   -1.8140    2.7590  -21.7570 C   0  0  0  0  0  0
   -0.8020    2.3810  -21.2340 C   0  0  0  0  0  0
   -0.9860    5.6050  -23.3770 F   0  0  0  0  0  0
   -4.0180    3.1020  -20.2660 F   0  0  0  0  0  0
    1.6580    5.8360  -22.8900 N   0  0  0  0  0  0
    3.8500    4.8490  -22.9260 N   0  0  0  0  0  0
    0.0870    2.4120  -24.7300 N   0  0  0  0  0  0
    4.2450    2.6410  -23.5520 N   0  0  0  0  0  0
    6.2040    0.8430  -22.3900 N   0  0  1  0  0  0
   -3.9460    3.8040  -27.9200 O   0  0  0  0  0  0
   -6.2344    3.7263  -21.3001 H   0  0  0  0  0  0
   -6.6607    4.0708  -23.6973 H   0  0  0  0  0  0
    5.3689    3.7553  -21.2051 H   0  0  0  0  0  0
    6.5822    2.7389  -20.3087 H   0  0  0  0  0  0
    6.1193    2.4593  -24.5625 H   0  0  0  0  0  0
    5.8946    3.9969  -23.6672 H   0  0  0  0  0  0
   -5.8157    4.1228  -26.0453 H   0  0  0  0  0  0
    2.0101    1.6192  -24.6759 H   0  0  0  0  0  0
    2.8351    1.1698  -22.7682 H   0  0  0  0  0  0
    4.0425    0.5004  -23.9299 H   0  0  0  0  0  0
    4.5285   -0.1946  -21.5736 H   0  0  0  0  0  0
    7.5070    2.5381  -22.4602 H   0  0  0  0  0  0
    3.8057    2.3264  -20.7338 H   0  0  0  0  0  0
    5.0455    1.2830  -19.8343 H   0  0  0  0  0  0
   -1.6751    3.5199  -26.8878 H   0  0  0  0  0  0
    0.0882    2.0479  -20.7739 H   0  0  0  0  0  0
    6.8245    0.3242  -21.6743 H   0  0  0  0  0  0
   -3.0963    3.6942  -28.3305 H   0  0  0  0  0  0
    6.0350   10.6280  -24.5820 O   0  0  0  0  0  0
    5.0580    7.0680  -22.0650 N   0  3  0  0  0  0
    4.7200   10.3410  -22.9260 N   0  0  0  0  0  0
    5.7360    8.3570  -21.6770 C   0  0  0  0  0  0
    3.5640    7.1560  -22.2330 C   0  0  0  0  0  0
    5.6870    9.3830  -22.7940 C   0  0  0  0  0  0
    6.4970    9.5730  -23.8280 C   0  0  0  0  0  0
    4.9860   11.0420  -24.0040 C   0  0  0  0  0  0
    5.2751    6.3586  -21.3826 H   0  0  0  0  0  0
    5.4687    6.7182  -22.9165 H   0  0  0  0  0  0
    6.7843    8.1539  -21.4129 H   0  0  0  0  0  0
    5.2517    8.7692  -20.7795 H   0  0  0  0  0  0
    3.3231    7.9505  -22.9546 H   0  0  0  0  0  0
    3.1039    7.4321  -21.2728 H   0  0  0  0  0  0
    7.3670    8.9320  -23.9630 H   0  0  0  0  0  0
    4.3321   11.8628  -24.2949 H   0  0  0  0  0  0
  1  2  2  0  0  0
  1  3  1  0  0  0
  1 34  1  0  0  0
  2  6  1  0  0  0
  2 35  1  0  0  0
  3  5  2  0  0  0
  3 27  1  0  0  0
  4  5  1  0  0  0
  4  6  2  0  0  0
  4 18  1  0  0  0
  5 24  1  0  0  0
  6 10  1  0  0  0
  7 10  2  0  0  0
  7 23  1  0  0  0
  7 33  1  0  0  0
  8 21  1  0  0  0
  8 22  1  0  0  0
  8 36  1  0  0  0
  8 37  1  0  0  0
  9 21  1  0  0  0
  9 31  1  0  0  0
  9 38  1  0  0  0
  9 39  1  0  0  0
 10 40  1  0  0  0
 11 12  1  0  0  0
 11 14  2  0  0  0
 11 15  1  0  0  0
 12 17  1  0  0  0
 12 28  2  0  0  0
 13 28  1  0  0  0
 13 29  2  0  0  0
 13 56  1  0  0  0
 14 29  1  0  0  0
 14 31  1  0  0  0
 15 30  2  0  0  0
 15 41  1  0  0  0
 16 17  2  0  0  0
 16 18  1  0  0  0
 16 30  1  0  0  0
 17 26  1  0  0  0
 18 23  2  0  0  0
 19 20  1  0  0  0
 19 31  1  0  0  0
 19 42  1  0  0  0
 19 43  1  0  0  0
 20 22  1  0  0  0
 20 32  1  0  0  0
 20 44  1  0  0  0
 21 32  1  0  0  0
 21 45  1  0  0  0
 22 46  1  0  0  0
 22 47  1  0  0  0
 23 48  1  0  0  0
 24 25  3  0  0  0
 25 49  1  0  0  0
 32 50  1  0  0  0
 33 51  1  0  0  0
 52 58  1  0  0  0
 52 59  1  0  0  0
 53 55  1  0  0  0
 53 56  1  0  0  0
 53 60  1  0  0  0
 53 61  1  0  0  0
 54 57  1  0  0  0
 54 59  2  0  0  0
 55 57  1  0  0  0
 55 62  1  0  0  0
 55 63  1  0  0  0
 56 64  1  0  0  0
 56 65  1  0  0  0
 57 58  2  0  0  0
 58 66  1  0  0  0
 59 67  1  0  0  0
M  CHG  1  53   1
M  END
> <s_m_entry_id>
631

> <s_m_entry_name>
000000473.1

> <s_m_Source_Path>
/Users/zaksoul/Documents/3r_UNI/2nd_SEMESTER/BSC/FRAG_RECON/RESULTS/2

> <s_m_Source_File>
000000473.mol2

> <i_m_Source_File_Index>
1

$$$$
No_0_495
                    3D
 Schrodinger Suite 2022-4.
 67 73  0  0  1  0            999 V2000
   -5.2310    3.7050  -21.9000 C   0  0  0  0  0  0
   -5.4990    3.8950  -23.2350 C   0  0  0  0  0  0
   -3.9920    3.4520  -21.5600 C   0  0  0  0  0  0
   -3.1030    3.5810  -23.7260 C   0  0  0  0  0  0
   -2.9410    3.3360  -22.3060 C   0  0  0  0  0  0
   -4.4510    3.8440  -24.2460 C   0  0  0  0  0  0
   -3.6980    3.8680  -26.4450 C   0  0  0  0  0  0
    6.0360    3.1350  -21.1890 C   0  0  0  0  0  0
    5.8950    3.2800  -23.7380 C   0  0  0  0  0  0
   -4.7040    3.9720  -25.5810 C   0  0  0  0  0  0
    2.1100    3.8250  -23.7510 C   0  0  0  0  0  0
    1.2880    4.9330  -23.4500 C   0  0  0  0  0  0
    3.0860    6.1290  -22.7710 C   0  0  0  0  0  0
    3.5110    4.0170  -23.4390 C   0  0  0  0  0  0
    1.5640    2.7090  -24.4130 C   0  0  0  0  0  0
   -0.5640    3.5200  -24.3000 C   0  0  0  0  0  0
   -0.0370    4.7400  -23.7000 C   0  0  0  0  0  0
   -2.0170    3.5260  -24.6530 C   0  0  0  0  0  0
    4.1180    1.5190  -23.1510 C   0  0  0  0  0  0
    5.0530    1.1630  -22.0050 C   0  0  2  0  0  0
    6.6440    2.7050  -22.5420 C   0  0  2  0  0  0
    5.0360    2.1630  -20.8370 C   0  0  0  0  0  0
   -2.3440    3.6870  -26.0800 C   0  0  0  0  0  0
   -1.5960    2.9230  -21.7090 C   0  0  0  0  0  0
   -0.5640    2.5750  -21.2050 C   0  0  0  0  0  0
   -0.8800    5.7840  -23.3540 F   0  0  0  0  0  0
   -3.7810    3.2080  -20.1780 F   0  0  0  0  0  0
    1.7650    6.0920  -22.9180 N   0  0  0  0  0  0
    3.9830    5.1680  -22.9930 N   0  0  0  0  0  0
    0.2570    2.6180  -24.7170 N   0  0  0  0  0  0
    4.4290    2.9700  -23.6180 N   0  0  0  0  0  0
    6.4590    1.2310  -22.4890 N   0  0  1  0  0  0
   -3.8720    3.8840  -27.8340 O   0  0  0  0  0  0
   -6.0320    3.7662  -21.1722 H   0  0  0  0  0  0
   -6.5142    4.0898  -23.5613 H   0  0  0  0  0  0
    5.5647    4.1230  -21.2970 H   0  0  0  0  0  0
    6.8228    3.1451  -20.4203 H   0  0  0  0  0  0
    6.2887    2.8369  -24.6646 H   0  0  0  0  0  0
    6.0373    4.3703  -23.7703 H   0  0  0  0  0  0
   -5.7148    4.1567  -25.9263 H   0  0  0  0  0  0
    2.2029    1.8806  -24.6968 H   0  0  0  0  0  0
    3.0758    1.4615  -22.8039 H   0  0  0  0  0  0
    4.2805    0.8225  -23.9868 H   0  0  0  0  0  0
    4.8301    0.1503  -21.6379 H   0  0  0  0  0  0
    7.7122    2.9632  -22.5894 H   0  0  0  0  0  0
    4.0520    2.6525  -20.7916 H   0  0  0  0  0  0
    5.3368    1.6483  -19.9125 H   0  0  0  0  0  0
   -1.5756    3.6679  -26.8444 H   0  0  0  0  0  0
    0.3437    2.2688  -20.7607 H   0  0  0  0  0  0
    7.1077    0.7330  -21.7836 H   0  0  0  0  0  0
   -3.0277    3.7969  -28.2606 H   0  0  0  0  0  0
    5.1040   11.3890  -24.7860 O   0  0  0  0  0  0
    5.1350    7.5470  -22.5060 N   0  3  0  0  0  0
    4.2790   10.8150  -22.9050 N   0  0  0  0  0  0
    5.7600    8.8730  -22.1550 C   0  0  0  0  0  0
    3.6450    7.4680  -22.3020 C   0  0  0  0  0  0
    5.3350    9.9720  -23.1110 C   0  0  0  0  0  0
    5.8400   10.3400  -24.2820 C   0  0  0  0  0  0
    4.1980   11.6260  -23.9330 C   0  0  0  0  0  0
    5.5828    6.8163  -21.9753 H   0  0  0  0  0  0
    5.3531    7.3189  -23.4633 H   0  0  0  0  0  0
    6.8556    8.7760  -22.1720 H   0  0  0  0  0  0
    5.4779    9.1501  -21.1285 H   0  0  0  0  0  0
    3.1566    8.2836  -22.8554 H   0  0  0  0  0  0
    3.4141    7.6079  -21.2356 H   0  0  0  0  0  0
    6.7070    9.8210  -24.6880 H   0  0  0  0  0  0
    3.4165   12.3835  -23.9700 H   0  0  0  0  0  0
  1  2  2  0  0  0
  1  3  1  0  0  0
  1 34  1  0  0  0
  2  6  1  0  0  0
  2 35  1  0  0  0
  3  5  2  0  0  0
  3 27  1  0  0  0
  4  5  1  0  0  0
  4  6  2  0  0  0
  4 18  1  0  0  0
  5 24  1  0  0  0
  6 10  1  0  0  0
  7 10  2  0  0  0
  7 23  1  0  0  0
  7 33  1  0  0  0
  8 21  1  0  0  0
  8 22  1  0  0  0
  8 36  1  0  0  0
  8 37  1  0  0  0
  9 21  1  0  0  0
  9 31  1  0  0  0
  9 38  1  0  0  0
  9 39  1  0  0  0
 10 40  1  0  0  0
 11 12  1  0  0  0
 11 14  2  0  0  0
 11 15  1  0  0  0
 12 17  1  0  0  0
 12 28  2  0  0  0
 13 28  1  0  0  0
 13 29  2  0  0  0
 13 56  1  0  0  0
 14 29  1  0  0  0
 14 31  1  0  0  0
 15 30  2  0  0  0
 15 41  1  0  0  0
 16 17  2  0  0  0
 16 18  1  0  0  0
 16 30  1  0  0  0
 17 26  1  0  0  0
 18 23  2  0  0  0
 19 20  1  0  0  0
 19 31  1  0  0  0
 19 42  1  0  0  0
 19 43  1  0  0  0
 20 22  1  0  0  0
 20 32  1  0  0  0
 20 44  1  0  0  0
 21 32  1  0  0  0
 21 45  1  0  0  0
 22 46  1  0  0  0
 22 47  1  0  0  0
 23 48  1  0  0  0
 24 25  3  0  0  0
 25 49  1  0  0  0
 32 50  1  0  0  0
 33 51  1  0  0  0
 52 58  1  0  0  0
 52 59  1  0  0  0
 53 55  1  0  0  0
 53 56  1  0  0  0
 53 60  1  0  0  0
 53 61  1  0  0  0
 54 57  1  0  0  0
 54 59  2  0  0  0
 55 57  1  0  0  0
 55 62  1  0  0  0
 55 63  1  0  0  0
 56 64  1  0  0  0
 56 65  1  0  0  0
 57 58  2  0  0  0
 58 66  1  0  0  0
 59 67  1  0  0  0
M  CHG  1  53   1
M  END
> <s_m_entry_id>
632

> <s_m_entry_name>
000000474.1

> <s_m_Source_Path>
/Users/zaksoul/Documents/3r_UNI/2nd_SEMESTER/BSC/FRAG_RECON/RESULTS/2

> <s_m_Source_File>
000000474.mol2

> <i_m_Source_File_Index>
1

$$$$
No_0_496
                    3D
 Schrodinger Suite 2022-4.
 68 74  0  0  1  0            999 V2000
   -5.2450    3.4500  -21.9800 C   0  0  0  0  0  0
   -5.5210    3.6340  -23.3140 C   0  0  0  0  0  0
   -4.0060    3.1880  -21.6480 C   0  0  0  0  0  0
   -3.1320    3.2960  -23.8220 C   0  0  0  0  0  0
   -2.9620    3.0580  -22.4010 C   0  0  0  0  0  0
   -4.4820    3.5670  -24.3330 C   0  0  0  0  0  0
   -3.7460    3.5720  -26.5370 C   0  0  0  0  0  0
    6.0220    2.7840  -21.3510 C   0  0  0  0  0  0
    5.8620    2.9140  -23.9000 C   0  0  0  0  0  0
   -4.7440    3.6900  -25.6670 C   0  0  0  0  0  0
    2.0820    3.4930  -23.8880 C   0  0  0  0  0  0
    1.2730    4.6100  -23.5870 C   0  0  0  0  0  0
    3.0870    5.7940  -22.9290 C   0  0  0  0  0  0
    3.4870    3.6740  -23.5870 C   0  0  0  0  0  0
    1.5210    2.3780  -24.5390 C   0  0  0  0  0  0
   -0.5980    3.2090  -24.4140 C   0  0  0  0  0  0
   -0.0560    4.4280  -23.8260 C   0  0  0  0  0  0
   -2.0540    3.2250  -24.7560 C   0  0  0  0  0  0
    4.0740    1.1730  -23.2880 C   0  0  0  0  0  0
    5.0150    0.8150  -22.1470 C   0  0  2  0  0  0
    6.6160    2.3400  -22.7050 C   0  0  2  0  0  0
    5.0150    1.8220  -20.9850 C   0  0  0  0  0  0
   -2.3900    3.3800  -26.1820 C   0  0  0  0  0  0
   -1.6160    2.6360  -21.8120 C   0  0  0  0  0  0
   -0.5840    2.2830  -21.3130 C   0  0  0  0  0  0
   -0.8870    5.4820  -23.4790 F   0  0  0  0  0  0
   -3.7860    2.9510  -20.2670 F   0  0  0  0  0  0
    1.7640    5.7680  -23.0660 N   0  0  0  0  0  0
    3.9730    4.8230  -23.1520 N   0  0  0  0  0  0
    0.2120    2.2970  -24.8320 N   0  0  0  0  0  0
    4.3950    2.6180  -23.7670 N   0  0  0  0  0  0
    6.4180    0.8680  -22.6420 N   0  0  1  0  0  0
   -3.9300    3.5810  -27.9250 O   0  0  0  0  0  0
   -6.0397    3.5233  -21.2465 H   0  0  0  0  0  0
   -6.5368    3.8358  -23.6342 H   0  0  0  0  0  0
    5.5578    3.7750  -21.4620 H   0  0  0  0  0  0
    6.8143    2.7911  -20.5880 H   0  0  0  0  0  0
    6.2455    2.4618  -24.8265 H   0  0  0  0  0  0
    6.0144    4.0027  -23.9394 H   0  0  0  0  0  0
   -5.7559    3.8817  -26.0053 H   0  0  0  0  0  0
    2.1509    1.5424  -24.8219 H   0  0  0  0  0  0
    3.0340    1.1266  -22.9326 H   0  0  0  0  0  0
    4.2233    0.4697  -24.1205 H   0  0  0  0  0  0
    4.7858   -0.1936  -21.7724 H   0  0  0  0  0  0
    7.6861    2.5883  -22.7625 H   0  0  0  0  0  0
    4.0362    2.3215  -20.9356 H   0  0  0  0  0  0
    5.3189    1.3100  -20.0601 H   0  0  0  0  0  0
   -1.6273    3.3509  -26.9517 H   0  0  0  0  0  0
    0.3245    1.9712  -20.8742 H   0  0  0  0  0  0
    7.0673    0.3685  -21.9382 H   0  0  0  0  0  0
   -3.0897    3.4840  -28.3575 H   0  0  0  0  0  0
    3.3440    7.3980  -21.0230 N   0  0  1  0  0  0
    6.2650    7.8860  -19.9480 N   0  0  0  0  0  0
    6.1040    9.4840  -21.4120 N   0  0  0  0  0  0
    3.9230    8.6700  -20.4590 C   0  0  0  0  0  0
    3.6610    7.1310  -22.4720 C   0  0  0  0  0  0
    5.4330    8.6920  -20.5930 C   0  0  0  0  0  0
    7.5250    8.2020  -20.4140 C   0  0  0  0  0  0
    7.4350    9.1810  -21.3090 C   0  0  0  0  0  0
    3.7212    6.5526  -20.4667 H   0  0  0  0  0  0
    5.8991    7.2092  -19.2632 H   0  0  0  0  0  0
    5.6009   10.1771  -21.9841 H   0  0  0  0  0  0
    3.6479    8.7580  -19.3976 H   0  0  0  0  0  0
    3.4961    9.5337  -20.9898 H   0  0  0  0  0  0
    4.7519    7.1280  -22.6130 H   0  0  0  0  0  0
    3.2461    7.9388  -23.0928 H   0  0  0  0  0  0
    8.3915    7.6697  -20.0388 H   0  0  0  0  0  0
    8.1617    9.7205  -21.9056 H   0  0  0  0  0  0
  1  2  2  0  0  0
  1  3  1  0  0  0
  1 34  1  0  0  0
  2  6  1  0  0  0
  2 35  1  0  0  0
  3  5  2  0  0  0
  3 27  1  0  0  0
  4  5  1  0  0  0
  4  6  2  0  0  0
  4 18  1  0  0  0
  5 24  1  0  0  0
  6 10  1  0  0  0
  7 10  2  0  0  0
  7 23  1  0  0  0
  7 33  1  0  0  0
  8 21  1  0  0  0
  8 22  1  0  0  0
  8 36  1  0  0  0
  8 37  1  0  0  0
  9 21  1  0  0  0
  9 31  1  0  0  0
  9 38  1  0  0  0
  9 39  1  0  0  0
 10 40  1  0  0  0
 11 12  2  0  0  0
 11 14  1  0  0  0
 11 15  1  0  0  0
 12 17  1  0  0  0
 12 28  1  0  0  0
 13 28  2  0  0  0
 13 29  1  0  0  0
 13 56  1  0  0  0
 14 29  2  0  0  0
 14 31  1  0  0  0
 15 30  2  0  0  0
 15 41  1  0  0  0
 16 17  2  0  0  0
 16 18  1  0  0  0
 16 30  1  0  0  0
 17 26  1  0  0  0
 18 23  2  0  0  0
 19 20  1  0  0  0
 19 31  1  0  0  0
 19 42  1  0  0  0
 19 43  1  0  0  0
 20 22  1  0  0  0
 20 32  1  0  0  0
 20 44  1  0  0  0
 21 32  1  0  0  0
 21 45  1  0  0  0
 22 46  1  0  0  0
 22 47  1  0  0  0
 23 48  1  0  0  0
 24 25  3  0  0  0
 25 49  1  0  0  0
 32 50  1  0  0  0
 33 51  1  0  0  0
 52 55  1  0  0  0
 52 56  1  0  0  0
 52 60  1  0  0  0
 53 57  1  0  0  0
 53 58  1  0  0  0
 53 61  1  0  0  0
 54 57  1  0  0  0
 54 59  1  0  0  0
 54 62  1  0  0  0
 55 57  1  0  0  0
 55 63  1  0  0  0
 55 64  1  0  0  0
 56 65  1  0  0  0
 56 66  1  0  0  0
 58 59  2  0  0  0
 58 67  1  0  0  0
 59 68  1  0  0  0
M  END
> <s_m_entry_id>
633

> <s_m_entry_name>
000000475.1

> <s_m_Source_Path>
/Users/zaksoul/Documents/3r_UNI/2nd_SEMESTER/BSC/FRAG_RECON/RESULTS/2

> <s_m_Source_File>
000000475.mol2

> <i_m_Source_File_Index>
1

$$$$
No_0_497
                    3D
 Schrodinger Suite 2022-4.
 68 74  0  0  1  0            999 V2000
   -5.1810    3.6090  -21.8530 C   0  0  0  0  0  0
   -5.4520    3.8050  -23.1860 C   0  0  0  0  0  0
   -3.9420    3.3510  -21.5190 C   0  0  0  0  0  0
   -3.0590    3.4860  -23.6870 C   0  0  0  0  0  0
   -2.8930    3.2340  -22.2690 C   0  0  0  0  0  0
   -4.4090    3.7540  -24.2010 C   0  0  0  0  0  0
   -3.6630    3.7850  -26.4030 C   0  0  0  0  0  0
    6.0870    3.0010  -21.1820 C   0  0  0  0  0  0
    5.9380    3.1560  -23.7310 C   0  0  0  0  0  0
   -4.6650    3.8890  -25.5350 C   0  0  0  0  0  0
    2.1540    3.7130  -23.7290 C   0  0  0  0  0  0
    1.3370    4.8230  -23.4210 C   0  0  0  0  0  0
    3.1410    6.0110  -22.7430 C   0  0  0  0  0  0
    3.5570    3.8990  -23.4210 C   0  0  0  0  0  0
    1.6030    2.6010  -24.3930 C   0  0  0  0  0  0
   -0.5220    3.4190  -24.2700 C   0  0  0  0  0  0
    0.0100    4.6350  -23.6670 C   0  0  0  0  0  0
   -1.9770    3.4300  -24.6180 C   0  0  0  0  0  0
    4.1570    1.3990  -23.1440 C   0  0  0  0  0  0
    5.0950    1.0350  -22.0030 C   0  0  2  0  0  0
    6.6890    2.5740  -22.5390 C   0  0  2  0  0  0
    5.0840    2.0310  -20.8310 C   0  0  0  0  0  0
   -2.3080    3.5970  -26.0440 C   0  0  0  0  0  0
   -1.5470    2.8150  -21.6780 C   0  0  0  0  0  0
   -0.5150    2.4620  -21.1780 C   0  0  0  0  0  0
   -0.8280    5.6800  -23.3140 F   0  0  0  0  0  0
   -3.7260    3.1020  -20.1390 F   0  0  0  0  0  0
    1.8200    5.9780  -22.8860 N   0  0  0  0  0  0
    4.0350    5.0470  -22.9720 N   0  0  0  0  0  0
    0.2950    2.5160  -24.6930 N   0  0  0  0  0  0
    4.4710    2.8500  -23.6070 N   0  0  0  0  0  0
    6.5000    1.1010  -22.4910 N   0  0  1  0  0  0
   -3.8410    3.8060  -27.7920 O   0  0  0  0  0  0
   -5.9796    3.6712  -21.1226 H   0  0  0  0  0  0
   -6.4675    4.0037  -23.5091 H   0  0  0  0  0  0
    5.6179    3.9906  -21.2849 H   0  0  0  0  0  0
    6.8763    3.0060  -20.4159 H   0  0  0  0  0  0
    6.3275    2.7150  -24.6604 H   0  0  0  0  0  0
    6.0833    4.2460  -23.7593 H   0  0  0  0  0  0
   -5.6765    4.0776  -25.8762 H   0  0  0  0  0  0
    2.2385    1.7718  -24.6821 H   0  0  0  0  0  0
    3.1157    1.3435  -22.7939 H   0  0  0  0  0  0
    4.3144    0.7047  -23.9826 H   0  0  0  0  0  0
    4.8700    0.0218  -21.6387 H   0  0  0  0  0  0
    7.7578    2.8293  -22.5885 H   0  0  0  0  0  0
    4.1018    2.5236  -20.7805 H   0  0  0  0  0  0
    5.3877    1.5123  -19.9097 H   0  0  0  0  0  0
   -1.5411    3.5789  -26.8099 H   0  0  0  0  0  0
    0.3934    2.1519  -20.7378 H   0  0  0  0  0  0
    7.1492    0.5983  -21.7894 H   0  0  0  0  0  0
   -2.9984    3.7179  -28.2217 H   0  0  0  0  0  0
    3.7080    7.4400  -20.7670 N   0  0  1  0  0  0
    6.7540    8.1010  -20.3050 N   0  0  0  0  0  0
    6.1490    9.8100  -21.5030 N   0  0  0  0  0  0
    4.3060    8.7010  -20.1990 C   0  0  0  0  0  0
    3.7060    7.3460  -22.2710 C   0  0  0  0  0  0
    5.7400    8.8820  -20.6560 C   0  0  0  0  0  0
    7.8490    8.5810  -20.9950 C   0  0  0  0  0  0
    7.4870    9.6280  -21.7290 C   0  0  0  0  0  0
    4.2621    6.5849  -20.4090 H   0  0  0  0  0  0
    6.6030    7.3290  -19.6400 H   0  0  0  0  0  0
    5.4813   10.5037  -21.8688 H   0  0  0  0  0  0
    4.2740    8.6590  -19.1003 H   0  0  0  0  0  0
    3.7081    9.5668  -20.5199 H   0  0  0  0  0  0
    4.7336    7.4620  -22.6459 H   0  0  0  0  0  0
    3.1043    8.1666  -22.6888 H   0  0  0  0  0  0
    8.8143    8.1009  -20.8820 H   0  0  0  0  0  0
    8.0174   10.2905  -22.4035 H   0  0  0  0  0  0
  1  2  2  0  0  0
  1  3  1  0  0  0
  1 34  1  0  0  0
  2  6  1  0  0  0
  2 35  1  0  0  0
  3  5  2  0  0  0
  3 27  1  0  0  0
  4  5  1  0  0  0
  4  6  2  0  0  0
  4 18  1  0  0  0
  5 24  1  0  0  0
  6 10  1  0  0  0
  7 10  2  0  0  0
  7 23  1  0  0  0
  7 33  1  0  0  0
  8 21  1  0  0  0
  8 22  1  0  0  0
  8 36  1  0  0  0
  8 37  1  0  0  0
  9 21  1  0  0  0
  9 31  1  0  0  0
  9 38  1  0  0  0
  9 39  1  0  0  0
 10 40  1  0  0  0
 11 12  2  0  0  0
 11 14  1  0  0  0
 11 15  1  0  0  0
 12 17  1  0  0  0
 12 28  1  0  0  0
 13 28  2  0  0  0
 13 29  1  0  0  0
 13 56  1  0  0  0
 14 29  2  0  0  0
 14 31  1  0  0  0
 15 30  2  0  0  0
 15 41  1  0  0  0
 16 17  2  0  0  0
 16 18  1  0  0  0
 16 30  1  0  0  0
 17 26  1  0  0  0
 18 23  2  0  0  0
 19 20  1  0  0  0
 19 31  1  0  0  0
 19 42  1  0  0  0
 19 43  1  0  0  0
 20 22  1  0  0  0
 20 32  1  0  0  0
 20 44  1  0  0  0
 21 32  1  0  0  0
 21 45  1  0  0  0
 22 46  1  0  0  0
 22 47  1  0  0  0
 23 48  1  0  0  0
 24 25  3  0  0  0
 25 49  1  0  0  0
 32 50  1  0  0  0
 33 51  1  0  0  0
 52 55  1  0  0  0
 52 56  1  0  0  0
 52 60  1  0  0  0
 53 57  1  0  0  0
 53 58  1  0  0  0
 53 61  1  0  0  0
 54 57  1  0  0  0
 54 59  1  0  0  0
 54 62  1  0  0  0
 55 57  1  0  0  0
 55 63  1  0  0  0
 55 64  1  0  0  0
 56 65  1  0  0  0
 56 66  1  0  0  0
 58 59  2  0  0  0
 58 67  1  0  0  0
 59 68  1  0  0  0
M  END
> <s_m_entry_id>
634

> <s_m_entry_name>
000000476.1

> <s_m_Source_Path>
/Users/zaksoul/Documents/3r_UNI/2nd_SEMESTER/BSC/FRAG_RECON/RESULTS/2

> <s_m_Source_File>
000000476.mol2

> <i_m_Source_File_Index>
1

$$$$
No_0_498
                    3D
 Schrodinger Suite 2022-4.
 68 74  0  0  1  0            999 V2000
   -5.1810    3.6090  -21.8530 C   0  0  0  0  0  0
   -5.4520    3.8050  -23.1860 C   0  0  0  0  0  0
   -3.9420    3.3510  -21.5190 C   0  0  0  0  0  0
   -3.0590    3.4860  -23.6870 C   0  0  0  0  0  0
   -2.8930    3.2340  -22.2690 C   0  0  0  0  0  0
   -4.4090    3.7540  -24.2010 C   0  0  0  0  0  0
   -3.6630    3.7850  -26.4030 C   0  0  0  0  0  0
    6.0870    3.0010  -21.1820 C   0  0  0  0  0  0
    5.9380    3.1560  -23.7310 C   0  0  0  0  0  0
   -4.6650    3.8890  -25.5350 C   0  0  0  0  0  0
    2.1540    3.7130  -23.7290 C   0  0  0  0  0  0
    1.3370    4.8230  -23.4210 C   0  0  0  0  0  0
    3.1410    6.0110  -22.7430 C   0  0  0  0  0  0
    3.5570    3.8990  -23.4210 C   0  0  0  0  0  0
    1.6030    2.6010  -24.3930 C   0  0  0  0  0  0
   -0.5220    3.4190  -24.2700 C   0  0  0  0  0  0
    0.0100    4.6350  -23.6670 C   0  0  0  0  0  0
   -1.9770    3.4300  -24.6180 C   0  0  0  0  0  0
    4.1570    1.3990  -23.1440 C   0  0  0  0  0  0
    5.0950    1.0350  -22.0030 C   0  0  2  0  0  0
    6.6890    2.5740  -22.5390 C   0  0  2  0  0  0
    5.0840    2.0310  -20.8310 C   0  0  0  0  0  0
   -2.3080    3.5970  -26.0440 C   0  0  0  0  0  0
   -1.5470    2.8150  -21.6780 C   0  0  0  0  0  0
   -0.5150    2.4620  -21.1780 C   0  0  0  0  0  0
   -0.8280    5.6800  -23.3140 F   0  0  0  0  0  0
   -3.7260    3.1020  -20.1390 F   0  0  0  0  0  0
    1.8200    5.9780  -22.8860 N   0  0  0  0  0  0
    4.0350    5.0470  -22.9720 N   0  0  0  0  0  0
    0.2950    2.5160  -24.6930 N   0  0  0  0  0  0
    4.4710    2.8500  -23.6070 N   0  0  0  0  0  0
    6.5000    1.1010  -22.4910 N   0  0  1  0  0  0
   -3.8410    3.8060  -27.7920 O   0  0  0  0  0  0
   -5.9796    3.6712  -21.1226 H   0  0  0  0  0  0
   -6.4675    4.0037  -23.5091 H   0  0  0  0  0  0
    5.6179    3.9906  -21.2849 H   0  0  0  0  0  0
    6.8763    3.0060  -20.4159 H   0  0  0  0  0  0
    6.3275    2.7150  -24.6604 H   0  0  0  0  0  0
    6.0833    4.2460  -23.7593 H   0  0  0  0  0  0
   -5.6765    4.0776  -25.8762 H   0  0  0  0  0  0
    2.2385    1.7718  -24.6821 H   0  0  0  0  0  0
    3.1157    1.3435  -22.7939 H   0  0  0  0  0  0
    4.3144    0.7047  -23.9826 H   0  0  0  0  0  0
    4.8700    0.0218  -21.6387 H   0  0  0  0  0  0
    7.7578    2.8293  -22.5885 H   0  0  0  0  0  0
    4.1018    2.5236  -20.7805 H   0  0  0  0  0  0
    5.3877    1.5123  -19.9097 H   0  0  0  0  0  0
   -1.5411    3.5789  -26.8099 H   0  0  0  0  0  0
    0.3934    2.1519  -20.7378 H   0  0  0  0  0  0
    7.1492    0.5983  -21.7894 H   0  0  0  0  0  0
   -2.9984    3.7179  -28.2217 H   0  0  0  0  0  0
    4.0480    7.3090  -20.8040 N   0  0  1  0  0  0
    7.0650    8.2030  -20.9650 N   0  0  0  0  0  0
    6.0840    9.9470  -21.8120 N   0  0  0  0  0  0
    4.6720    8.5660  -20.2540 C   0  0  0  0  0  0
    3.7060    7.3460  -22.2710 C   0  0  0  0  0  0
    5.9470    8.9150  -20.9970 C   0  0  0  0  0  0
    7.9360    8.8390  -21.8270 C   0  0  0  0  0  0
    7.3430    9.9080  -22.3480 C   0  0  0  0  0  0
    4.7270    6.4799  -20.6700 H   0  0  0  0  0  0
    7.1260    7.3651  -20.3691 H   0  0  0  0  0  0
    5.3033   10.6058  -21.9440 H   0  0  0  0  0  0
    4.8981    8.4260  -19.1866 H   0  0  0  0  0  0
    3.9579    9.3981  -20.3410 H   0  0  0  0  0  0
    4.6089    7.5880  -22.8509 H   0  0  0  0  0  0
    2.9687    8.1413  -22.4551 H   0  0  0  0  0  0
    8.9318    8.4401  -21.9830 H   0  0  0  0  0  0
    7.6570   10.6720  -23.0500 H   0  0  0  0  0  0
  1  2  2  0  0  0
  1  3  1  0  0  0
  1 34  1  0  0  0
  2  6  1  0  0  0
  2 35  1  0  0  0
  3  5  2  0  0  0
  3 27  1  0  0  0
  4  5  1  0  0  0
  4  6  2  0  0  0
  4 18  1  0  0  0
  5 24  1  0  0  0
  6 10  1  0  0  0
  7 10  2  0  0  0
  7 23  1  0  0  0
  7 33  1  0  0  0
  8 21  1  0  0  0
  8 22  1  0  0  0
  8 36  1  0  0  0
  8 37  1  0  0  0
  9 21  1  0  0  0
  9 31  1  0  0  0
  9 38  1  0  0  0
  9 39  1  0  0  0
 10 40  1  0  0  0
 11 12  2  0  0  0
 11 14  1  0  0  0
 11 15  1  0  0  0
 12 17  1  0  0  0
 12 28  1  0  0  0
 13 28  2  0  0  0
 13 29  1  0  0  0
 13 56  1  0  0  0
 14 29  2  0  0  0
 14 31  1  0  0  0
 15 30  2  0  0  0
 15 41  1  0  0  0
 16 17  2  0  0  0
 16 18  1  0  0  0
 16 30  1  0  0  0
 17 26  1  0  0  0
 18 23  2  0  0  0
 19 20  1  0  0  0
 19 31  1  0  0  0
 19 42  1  0  0  0
 19 43  1  0  0  0
 20 22  1  0  0  0
 20 32  1  0  0  0
 20 44  1  0  0  0
 21 32  1  0  0  0
 21 45  1  0  0  0
 22 46  1  0  0  0
 22 47  1  0  0  0
 23 48  1  0  0  0
 24 25  3  0  0  0
 25 49  1  0  0  0
 32 50  1  0  0  0
 33 51  1  0  0  0
 52 55  1  0  0  0
 52 56  1  0  0  0
 52 60  1  0  0  0
 53 57  1  0  0  0
 53 58  1  0  0  0
 53 61  1  0  0  0
 54 57  1  0  0  0
 54 59  1  0  0  0
 54 62  1  0  0  0
 55 57  1  0  0  0
 55 63  1  0  0  0
 55 64  1  0  0  0
 56 65  1  0  0  0
 56 66  1  0  0  0
 58 59  2  0  0  0
 58 67  1  0  0  0
 59 68  1  0  0  0
M  END
> <s_m_entry_id>
635

> <s_m_entry_name>
000000477.1

> <s_m_Source_Path>
/Users/zaksoul/Documents/3r_UNI/2nd_SEMESTER/BSC/FRAG_RECON/RESULTS/2

> <s_m_Source_File>
000000477.mol2

> <i_m_Source_File_Index>
1

$$$$
No_0_499
                    3D
 Schrodinger Suite 2022-4.
 68 74  0  0  1  0            999 V2000
   -5.1810    3.6090  -21.8530 C   0  0  0  0  0  0
   -5.4520    3.8050  -23.1860 C   0  0  0  0  0  0
   -3.9420    3.3510  -21.5190 C   0  0  0  0  0  0
   -3.0590    3.4860  -23.6870 C   0  0  0  0  0  0
   -2.8930    3.2340  -22.2690 C   0  0  0  0  0  0
   -4.4090    3.7540  -24.2010 C   0  0  0  0  0  0
   -3.6630    3.7850  -26.4030 C   0  0  0  0  0  0
    6.0870    3.0010  -21.1820 C   0  0  0  0  0  0
    5.9380    3.1560  -23.7310 C   0  0  0  0  0  0
   -4.6650    3.8890  -25.5350 C   0  0  0  0  0  0
    2.1540    3.7130  -23.7290 C   0  0  0  0  0  0
    1.3370    4.8230  -23.4210 C   0  0  0  0  0  0
    3.1410    6.0110  -22.7430 C   0  0  0  0  0  0
    3.5570    3.8990  -23.4210 C   0  0  0  0  0  0
    1.6030    2.6010  -24.3930 C   0  0  0  0  0  0
   -0.5220    3.4190  -24.2700 C   0  0  0  0  0  0
    0.0100    4.6350  -23.6670 C   0  0  0  0  0  0
   -1.9770    3.4300  -24.6180 C   0  0  0  0  0  0
    4.1570    1.3990  -23.1440 C   0  0  0  0  0  0
    5.0950    1.0350  -22.0030 C   0  0  2  0  0  0
    6.6890    2.5740  -22.5390 C   0  0  2  0  0  0
    5.0840    2.0310  -20.8310 C   0  0  0  0  0  0
   -2.3080    3.5970  -26.0440 C   0  0  0  0  0  0
   -1.5470    2.8150  -21.6780 C   0  0  0  0  0  0
   -0.5150    2.4620  -21.1780 C   0  0  0  0  0  0
   -0.8280    5.6800  -23.3140 F   0  0  0  0  0  0
   -3.7260    3.1020  -20.1390 F   0  0  0  0  0  0
    1.8200    5.9780  -22.8860 N   0  0  0  0  0  0
    4.0350    5.0470  -22.9720 N   0  0  0  0  0  0
    0.2950    2.5160  -24.6930 N   0  0  0  0  0  0
    4.4710    2.8500  -23.6070 N   0  0  0  0  0  0
    6.5000    1.1010  -22.4910 N   0  0  1  0  0  0
   -3.8410    3.8060  -27.7920 O   0  0  0  0  0  0
   -5.9796    3.6712  -21.1226 H   0  0  0  0  0  0
   -6.4675    4.0037  -23.5091 H   0  0  0  0  0  0
    5.6179    3.9906  -21.2849 H   0  0  0  0  0  0
    6.8763    3.0060  -20.4159 H   0  0  0  0  0  0
    6.3275    2.7150  -24.6604 H   0  0  0  0  0  0
    6.0833    4.2460  -23.7593 H   0  0  0  0  0  0
   -5.6765    4.0776  -25.8762 H   0  0  0  0  0  0
    2.2385    1.7718  -24.6821 H   0  0  0  0  0  0
    3.1157    1.3435  -22.7939 H   0  0  0  0  0  0
    4.3144    0.7047  -23.9826 H   0  0  0  0  0  0
    4.8700    0.0218  -21.6387 H   0  0  0  0  0  0
    7.7578    2.8293  -22.5885 H   0  0  0  0  0  0
    4.1018    2.5236  -20.7805 H   0  0  0  0  0  0
    5.3877    1.5123  -19.9097 H   0  0  0  0  0  0
   -1.5411    3.5789  -26.8099 H   0  0  0  0  0  0
    0.3934    2.1519  -20.7378 H   0  0  0  0  0  0
    7.1492    0.5983  -21.7894 H   0  0  0  0  0  0
   -2.9984    3.7179  -28.2217 H   0  0  0  0  0  0
    4.4420    7.1990  -20.9640 N   0  0  1  0  0  0
    7.2160    8.4350  -21.8040 N   0  0  0  0  0  0
    5.9020   10.1360  -22.1310 N   0  0  0  0  0  0
    5.0910    8.4560  -20.4440 C   0  0  0  0  0  0
    3.7060    7.3460  -22.2710 C   0  0  0  0  0  0
    6.0790    9.0180  -21.4470 C   0  0  0  0  0  0
    7.7610    9.2480  -22.7770 C   0  0  0  0  0  0
    6.9640   10.2920  -22.9810 C   0  0  0  0  0  0
    5.1960    6.4420  -21.1220 H   0  0  0  0  0  0
    7.5052    7.5534  -21.3567 H   0  0  0  0  0  0
    5.0657   10.7142  -21.9659 H   0  0  0  0  0  0
    5.6129    8.2351  -19.5012 H   0  0  0  0  0  0
    4.3165    9.2075  -20.2309 H   0  0  0  0  0  0
    4.3911    7.7440  -23.0341 H   0  0  0  0  0  0
    2.8859    8.0691  -22.1500 H   0  0  0  0  0  0
    8.7037    8.9818  -23.2413 H   0  0  0  0  0  0
    7.0100   11.1530  -23.6380 H   0  0  0  0  0  0
  1  2  2  0  0  0
  1  3  1  0  0  0
  1 34  1  0  0  0
  2  6  1  0  0  0
  2 35  1  0  0  0
  3  5  2  0  0  0
  3 27  1  0  0  0
  4  5  1  0  0  0
  4  6  2  0  0  0
  4 18  1  0  0  0
  5 24  1  0  0  0
  6 10  1  0  0  0
  7 10  2  0  0  0
  7 23  1  0  0  0
  7 33  1  0  0  0
  8 21  1  0  0  0
  8 22  1  0  0  0
  8 36  1  0  0  0
  8 37  1  0  0  0
  9 21  1  0  0  0
  9 31  1  0  0  0
  9 38  1  0  0  0
  9 39  1  0  0  0
 10 40  1  0  0  0
 11 12  2  0  0  0
 11 14  1  0  0  0
 11 15  1  0  0  0
 12 17  1  0  0  0
 12 28  1  0  0  0
 13 28  2  0  0  0
 13 29  1  0  0  0
 13 56  1  0  0  0
 14 29  2  0  0  0
 14 31  1  0  0  0
 15 30  2  0  0  0
 15 41  1  0  0  0
 16 17  2  0  0  0
 16 18  1  0  0  0
 16 30  1  0  0  0
 17 26  1  0  0  0
 18 23  2  0  0  0
 19 20  1  0  0  0
 19 31  1  0  0  0
 19 42  1  0  0  0
 19 43  1  0  0  0
 20 22  1  0  0  0
 20 32  1  0  0  0
 20 44  1  0  0  0
 21 32  1  0  0  0
 21 45  1  0  0  0
 22 46  1  0  0  0
 22 47  1  0  0  0
 23 48  1  0  0  0
 24 25  3  0  0  0
 25 49  1  0  0  0
 32 50  1  0  0  0
 33 51  1  0  0  0
 52 55  1  0  0  0
 52 56  1  0  0  0
 52 60  1  0  0  0
 53 57  1  0  0  0
 53 58  1  0  0  0
 53 61  1  0  0  0
 54 57  1  0  0  0
 54 59  1  0  0  0
 54 62  1  0  0  0
 55 57  1  0  0  0
 55 63  1  0  0  0
 55 64  1  0  0  0
 56 65  1  0  0  0
 56 66  1  0  0  0
 58 59  2  0  0  0
 58 67  1  0  0  0
 59 68  1  0  0  0
M  END
> <s_m_entry_id>
636

> <s_m_entry_name>
000000478.1

> <s_m_Source_Path>
/Users/zaksoul/Documents/3r_UNI/2nd_SEMESTER/BSC/FRAG_RECON/RESULTS/2

> <s_m_Source_File>
000000478.mol2

> <i_m_Source_File_Index>
1

$$$$
No_0_500
                    3D
 Schrodinger Suite 2022-4.
 68 74  0  0  1  0            999 V2000
   -5.3780    3.5580  -22.2980 C   0  0  0  0  0  0
   -5.6050    3.7520  -23.6400 C   0  0  0  0  0  0
   -4.1510    3.3000  -21.9220 C   0  0  0  0  0  0
   -3.1970    3.4300  -24.0610 C   0  0  0  0  0  0
   -3.0780    3.1810  -22.6370 C   0  0  0  0  0  0
   -4.5280    3.6990  -24.6190 C   0  0  0  0  0  0
   -3.7100    3.7250  -26.7950 C   0  0  0  0  0  0
    5.8610    2.9460  -21.2540 C   0  0  0  0  0  0
    5.7970    3.0960  -23.8060 C   0  0  0  0  0  0
   -4.7400    3.8310  -25.9610 C   0  0  0  0  0  0
    2.0160    3.6550  -23.9300 C   0  0  0  0  0  0
    1.1900    4.7650  -23.6520 C   0  0  0  0  0  0
    2.9710    5.9540  -22.9170 C   0  0  0  0  0  0
    3.4070    3.8410  -23.5760 C   0  0  0  0  0  0
    1.4850    2.5420  -24.6100 C   0  0  0  0  0  0
   -0.6420    3.3610  -24.5590 C   0  0  0  0  0  0
   -0.1290    4.5780  -23.9410 C   0  0  0  0  0  0
   -2.0840    3.3730  -24.9550 C   0  0  0  0  0  0
    3.9970    1.3410  -23.2750 C   0  0  0  0  0  0
    4.8960    0.9790  -22.1030 C   0  0  2  0  0  0
    6.5080    2.5160  -22.5890 C   0  0  2  0  0  0
    4.8470    1.9770  -20.9340 C   0  0  0  0  0  0
   -2.3680    3.5370  -26.3910 C   0  0  0  0  0  0
   -1.7530    2.7620  -22.0010 C   0  0  0  0  0  0
   -0.7380    2.4100  -21.4670 C   0  0  0  0  0  0
   -0.9770    5.6250  -23.6180 F   0  0  0  0  0  0
   -3.9810    3.0530  -20.5350 F   0  0  0  0  0  0
    1.6540    5.9210  -23.1030 N   0  0  0  0  0  0
    3.8700    4.9890  -23.1140 N   0  0  0  0  0  0
    0.1880    2.4570  -24.9530 N   0  0  0  0  0  0
    4.3270    2.7910  -23.7300 N   0  0  0  0  0  0
    6.3160    1.0430  -22.5440 N   0  0  1  0  0  0
   -3.8430    3.7440  -28.1890 O   0  0  0  0  0  0
   -6.2001    3.6212  -21.5943 H   0  0  0  0  0  0
   -6.6092    3.9508  -23.9965 H   0  0  0  0  0  0
    5.3968    3.9360  -21.3741 H   0  0  0  0  0  0
    6.6246    2.9521  -20.4622 H   0  0  0  0  0  0
    6.2159    2.6529  -24.7215 H   0  0  0  0  0  0
    5.9433    4.1859  -23.8312 H   0  0  0  0  0  0
   -5.7397    4.0197  -26.3354 H   0  0  0  0  0  0
    2.1300    1.7124  -24.8758 H   0  0  0  0  0  0
    2.9447    1.2865  -22.9592 H   0  0  0  0  0  0
    4.1807    0.6447  -24.1065 H   0  0  0  0  0  0
    4.6581   -0.0332  -21.7441 H   0  0  0  0  0  0
    7.5781    2.7704  -22.6041 H   0  0  0  0  0  0
    3.8641    2.4705  -20.9168 H   0  0  0  0  0  0
    5.1193    1.4597  -20.0022 H   0  0  0  0  0  0
   -1.5765    3.5179  -27.1314 H   0  0  0  0  0  0
    0.1553    2.0999  -20.9969 H   0  0  0  0  0  0
    6.9418    0.5413  -21.8208 H   0  0  0  0  0  0
   -2.9866    3.6550  -28.5905 H   0  0  0  0  0  0
    4.5090    7.1000  -21.3070 N   0  0  1  0  0  0
    6.9650    8.6480  -22.5320 N   0  0  0  0  0  0
    5.4940   10.2440  -22.4280 N   0  0  0  0  0  0
    5.1570    8.3610  -20.7960 C   0  0  0  0  0  0
    3.5210    7.2900  -22.4280 C   0  0  0  0  0  0
    5.8830    9.0930  -21.9070 C   0  0  0  0  0  0
    7.2460    9.5870  -23.5040 C   0  0  0  0  0  0
    6.3520   10.5670  -23.4450 C   0  0  0  0  0  0
    5.2695    6.4304  -21.6808 H   0  0  0  0  0  0
    7.3998    7.7614  -22.2391 H   0  0  0  0  0  0
    4.6674   10.7283  -22.0497 H   0  0  0  0  0  0
    5.8698    8.1081  -19.9973 H   0  0  0  0  0  0
    4.3880    9.0190  -20.3650 H   0  0  0  0  0  0
    4.0099    7.8119  -23.2638 H   0  0  0  0  0  0
    2.6901    7.9219  -22.0811 H   0  0  0  0  0  0
    8.0950    9.4460  -24.1630 H   0  0  0  0  0  0
    6.2041   11.4816  -24.0077 H   0  0  0  0  0  0
  1  2  2  0  0  0
  1  3  1  0  0  0
  1 34  1  0  0  0
  2  6  1  0  0  0
  2 35  1  0  0  0
  3  5  2  0  0  0
  3 27  1  0  0  0
  4  5  1  0  0  0
  4  6  2  0  0  0
  4 18  1  0  0  0
  5 24  1  0  0  0
  6 10  1  0  0  0
  7 10  2  0  0  0
  7 23  1  0  0  0
  7 33  1  0  0  0
  8 21  1  0  0  0
  8 22  1  0  0  0
  8 36  1  0  0  0
  8 37  1  0  0  0
  9 21  1  0  0  0
  9 31  1  0  0  0
  9 38  1  0  0  0
  9 39  1  0  0  0
 10 40  1  0  0  0
 11 12  2  0  0  0
 11 14  1  0  0  0
 11 15  1  0  0  0
 12 17  1  0  0  0
 12 28  1  0  0  0
 13 28  2  0  0  0
 13 29  1  0  0  0
 13 56  1  0  0  0
 14 29  2  0  0  0
 14 31  1  0  0  0
 15 30  2  0  0  0
 15 41  1  0  0  0
 16 17  2  0  0  0
 16 18  1  0  0  0
 16 30  1  0  0  0
 17 26  1  0  0  0
 18 23  2  0  0  0
 19 20  1  0  0  0
 19 31  1  0  0  0
 19 42  1  0  0  0
 19 43  1  0  0  0
 20 22  1  0  0  0
 20 32  1  0  0  0
 20 44  1  0  0  0
 21 32  1  0  0  0
 21 45  1  0  0  0
 22 46  1  0  0  0
 22 47  1  0  0  0
 23 48  1  0  0  0
 24 25  3  0  0  0
 25 49  1  0  0  0
 32 50  1  0  0  0
 33 51  1  0  0  0
 52 55  1  0  0  0
 52 56  1  0  0  0
 52 60  1  0  0  0
 53 57  1  0  0  0
 53 58  1  0  0  0
 53 61  1  0  0  0
 54 57  1  0  0  0
 54 59  1  0  0  0
 54 62  1  0  0  0
 55 57  1  0  0  0
 55 63  1  0  0  0
 55 64  1  0  0  0
 56 65  1  0  0  0
 56 66  1  0  0  0
 58 59  2  0  0  0
 58 67  1  0  0  0
 59 68  1  0  0  0
M  END
> <s_m_entry_id>
637

> <s_m_entry_name>
000000479.1

> <s_m_Source_Path>
/Users/zaksoul/Documents/3r_UNI/2nd_SEMESTER/BSC/FRAG_RECON/RESULTS/2

> <s_m_Source_File>
000000479.mol2

> <i_m_Source_File_Index>
1

$$$$
No_0_501
                    3D
 Schrodinger Suite 2022-4.
 68 74  0  0  1  0            999 V2000
   -5.2570    3.5560  -21.8640 C   0  0  0  0  0  0
   -5.5260    3.7550  -23.1970 C   0  0  0  0  0  0
   -4.0180    3.2980  -21.5280 C   0  0  0  0  0  0
   -3.1320    3.4360  -23.6950 C   0  0  0  0  0  0
   -2.9680    3.1820  -22.2760 C   0  0  0  0  0  0
   -4.4800    3.7050  -24.2110 C   0  0  0  0  0  0
   -3.7310    3.7400  -26.4110 C   0  0  0  0  0  0
    6.0100    2.9440  -21.1740 C   0  0  0  0  0  0
    5.8650    3.1040  -23.7230 C   0  0  0  0  0  0
   -4.7340    3.8420  -25.5450 C   0  0  0  0  0  0
    2.0820    3.6620  -23.7270 C   0  0  0  0  0  0
    1.2650    4.7710  -23.4180 C   0  0  0  0  0  0
    3.0680    5.9570  -22.7350 C   0  0  0  0  0  0
    3.4840    3.8470  -23.4160 C   0  0  0  0  0  0
    1.5310    2.5510  -24.3940 C   0  0  0  0  0  0
   -0.5940    3.3690  -24.2730 C   0  0  0  0  0  0
   -0.0620    4.5840  -23.6670 C   0  0  0  0  0  0
   -2.0480    3.3820  -24.6230 C   0  0  0  0  0  0
    4.0830    1.3460  -23.1420 C   0  0  0  0  0  0
    5.0190    0.9800  -22.0000 C   0  0  2  0  0  0
    6.6140    2.5190  -22.5300 C   0  0  2  0  0  0
    5.0060    1.9730  -20.8260 C   0  0  0  0  0  0
   -2.3760    3.5510  -26.0490 C   0  0  0  0  0  0
   -1.6240    2.7610  -21.6840 C   0  0  0  0  0  0
   -0.5930    2.4070  -21.1830 C   0  0  0  0  0  0
   -0.9000    5.6290  -23.3130 F   0  0  0  0  0  0
   -3.8050    3.0450  -20.1480 F   0  0  0  0  0  0
    1.7460    5.9250  -22.8800 N   0  0  0  0  0  0
    3.9610    4.9930  -22.9640 N   0  0  0  0  0  0
    0.2230    2.4670  -24.6970 N   0  0  0  0  0  0
    4.3980    2.7980  -23.6020 N   0  0  0  0  0  0
    6.4240    1.0460  -22.4860 N   0  0  1  0  0  0
   -3.9070    3.7640  -27.8000 O   0  0  0  0  0  0
   -6.0571    3.6172  -21.1352 H   0  0  0  0  0  0
   -6.5406    3.9547  -23.5222 H   0  0  0  0  0  0
    5.5417    3.9340  -21.2769 H   0  0  0  0  0  0
    6.7983    2.9470  -20.4069 H   0  0  0  0  0  0
    6.2555    2.6640  -24.6524 H   0  0  0  0  0  0
    6.0113    4.1939  -23.7482 H   0  0  0  0  0  0
   -5.7447    4.0327  -25.8873 H   0  0  0  0  0  0
    2.1671    1.7222  -24.6830 H   0  0  0  0  0  0
    3.0410    1.2895  -22.7940 H   0  0  0  0  0  0
    4.2414    0.6529  -23.9814 H   0  0  0  0  0  0
    4.7930   -0.0338  -21.6379 H   0  0  0  0  0  0
    7.6829    2.7741  -22.5784 H   0  0  0  0  0  0
    4.0241    2.4665  -20.7766 H   0  0  0  0  0  0
    5.3078    1.4521  -19.9054 H   0  0  0  0  0  0
   -1.6086    3.5349  -26.8144 H   0  0  0  0  0  0
    0.3145    2.0952  -20.7422 H   0  0  0  0  0  0
    7.0719    0.5414  -21.7846 H   0  0  0  0  0  0
   -3.0635    3.6770  -28.2282 H   0  0  0  0  0  0
    4.8900    7.0990  -21.4520 N   0  0  1  0  0  0
    6.8280    8.9740  -23.0820 N   0  0  0  0  0  0
    5.3290   10.4080  -22.4370 N   0  0  0  0  0  0
    5.5600    8.3660  -20.9880 C   0  0  0  0  0  0
    3.6320    7.2920  -22.2590 C   0  0  0  0  0  0
    5.9180    9.2590  -22.1600 C   0  0  0  0  0  0
    6.7810   10.0160  -23.9850 C   0  0  0  0  0  0
    5.8670   10.8990  -23.5960 C   0  0  0  0  0  0
    5.5705    6.5394  -22.0766 H   0  0  0  0  0  0
    7.3846    8.1106  -23.0071 H   0  0  0  0  0  0
    4.5981   10.7770  -21.8121 H   0  0  0  0  0  0
    6.4720    8.1140  -20.4270 H   0  0  0  0  0  0
    4.8871    8.9079  -20.3071 H   0  0  0  0  0  0
    3.8499    7.9278  -23.1298 H   0  0  0  0  0  0
    2.8795    7.8103  -21.6466 H   0  0  0  0  0  0
    7.4352   10.0150  -24.8493 H   0  0  0  0  0  0
    5.5150   11.8409  -24.0010 H   0  0  0  0  0  0
  1  2  2  0  0  0
  1  3  1  0  0  0
  1 34  1  0  0  0
  2  6  1  0  0  0
  2 35  1  0  0  0
  3  5  2  0  0  0
  3 27  1  0  0  0
  4  5  1  0  0  0
  4  6  2  0  0  0
  4 18  1  0  0  0
  5 24  1  0  0  0
  6 10  1  0  0  0
  7 10  2  0  0  0
  7 23  1  0  0  0
  7 33  1  0  0  0
  8 21  1  0  0  0
  8 22  1  0  0  0
  8 36  1  0  0  0
  8 37  1  0  0  0
  9 21  1  0  0  0
  9 31  1  0  0  0
  9 38  1  0  0  0
  9 39  1  0  0  0
 10 40  1  0  0  0
 11 12  2  0  0  0
 11 14  1  0  0  0
 11 15  1  0  0  0
 12 17  1  0  0  0
 12 28  1  0  0  0
 13 28  2  0  0  0
 13 29  1  0  0  0
 13 56  1  0  0  0
 14 29  2  0  0  0
 14 31  1  0  0  0
 15 30  2  0  0  0
 15 41  1  0  0  0
 16 17  2  0  0  0
 16 18  1  0  0  0
 16 30  1  0  0  0
 17 26  1  0  0  0
 18 23  2  0  0  0
 19 20  1  0  0  0
 19 31  1  0  0  0
 19 42  1  0  0  0
 19 43  1  0  0  0
 20 22  1  0  0  0
 20 32  1  0  0  0
 20 44  1  0  0  0
 21 32  1  0  0  0
 21 45  1  0  0  0
 22 46  1  0  0  0
 22 47  1  0  0  0
 23 48  1  0  0  0
 24 25  3  0  0  0
 25 49  1  0  0  0
 32 50  1  0  0  0
 33 51  1  0  0  0
 52 55  1  0  0  0
 52 56  1  0  0  0
 52 60  1  0  0  0
 53 57  1  0  0  0
 53 58  1  0  0  0
 53 61  1  0  0  0
 54 57  1  0  0  0
 54 59  1  0  0  0
 54 62  1  0  0  0
 55 57  1  0  0  0
 55 63  1  0  0  0
 55 64  1  0  0  0
 56 65  1  0  0  0
 56 66  1  0  0  0
 58 59  2  0  0  0
 58 67  1  0  0  0
 59 68  1  0  0  0
M  END
> <s_m_entry_id>
638

> <s_m_entry_name>
000000480.1

> <s_m_Source_Path>
/Users/zaksoul/Documents/3r_UNI/2nd_SEMESTER/BSC/FRAG_RECON/RESULTS/2

> <s_m_Source_File>
000000480.mol2

> <i_m_Source_File_Index>
1

$$$$
No_0_502
                    3D
 Schrodinger Suite 2022-4.
 68 74  0  0  1  0            999 V2000
   -5.3720    3.6380  -21.7680 C   0  0  0  0  0  0
   -5.6420    3.8330  -23.1020 C   0  0  0  0  0  0
   -4.1340    3.3800  -21.4320 C   0  0  0  0  0  0
   -3.2480    3.5120  -23.6000 C   0  0  0  0  0  0
   -3.0840    3.2610  -22.1810 C   0  0  0  0  0  0
   -4.5970    3.7810  -24.1160 C   0  0  0  0  0  0
   -3.8480    3.8090  -26.3160 C   0  0  0  0  0  0
    5.8940    3.0220  -21.0840 C   0  0  0  0  0  0
    5.7480    3.1750  -23.6320 C   0  0  0  0  0  0
   -4.8520    3.9150  -25.4500 C   0  0  0  0  0  0
    1.9660    3.7350  -23.6360 C   0  0  0  0  0  0
    1.1490    4.8450  -23.3300 C   0  0  0  0  0  0
    2.9530    6.0330  -22.6510 C   0  0  0  0  0  0
    3.3680    3.9210  -23.3260 C   0  0  0  0  0  0
    1.4140    2.6230  -24.3000 C   0  0  0  0  0  0
   -0.7110    3.4430  -24.1790 C   0  0  0  0  0  0
   -0.1780    4.6590  -23.5770 C   0  0  0  0  0  0
   -2.1650    3.4550  -24.5290 C   0  0  0  0  0  0
    3.9660    1.4200  -23.0460 C   0  0  0  0  0  0
    4.9020    1.0560  -21.9040 C   0  0  2  0  0  0
    6.4980    2.5940  -22.4390 C   0  0  2  0  0  0
    4.8910    2.0530  -20.7330 C   0  0  0  0  0  0
   -2.4940    3.6210  -25.9560 C   0  0  0  0  0  0
   -1.7390    2.8410  -21.5880 C   0  0  0  0  0  0
   -0.7080    2.4880  -21.0870 C   0  0  0  0  0  0
   -1.0160    5.7050  -23.2260 F   0  0  0  0  0  0
   -3.9200    3.1310  -20.0520 F   0  0  0  0  0  0
    1.6320    6.0010  -22.7950 N   0  0  0  0  0  0
    3.8460    5.0680  -22.8770 N   0  0  0  0  0  0
    0.1060    2.5390  -24.6010 N   0  0  0  0  0  0
    4.2820    2.8700  -23.5100 N   0  0  0  0  0  0
    6.3070    1.1210  -22.3900 N   0  0  1  0  0  0
   -4.0250    3.8300  -27.7060 O   0  0  0  0  0  0
   -6.1720    3.7012  -21.0393 H   0  0  0  0  0  0
   -6.6566    4.0327  -23.4272 H   0  0  0  0  0  0
    5.4266    4.0123  -21.1880 H   0  0  0  0  0  0
    6.6828    3.0270  -20.3174 H   0  0  0  0  0  0
    6.1386    2.7330  -24.5605 H   0  0  0  0  0  0
    5.8953    4.2647  -23.6613 H   0  0  0  0  0  0
   -5.8629    4.1047  -25.7923 H   0  0  0  0  0  0
    2.0493    1.7929  -24.5871 H   0  0  0  0  0  0
    2.9239    1.3655  -22.6980 H   0  0  0  0  0  0
    4.1234    0.7246  -23.8837 H   0  0  0  0  0  0
    4.6759    0.0434  -21.5385 H   0  0  0  0  0  0
    7.5673    2.8472  -22.4884 H   0  0  0  0  0  0
    3.9091    2.5465  -20.6846 H   0  0  0  0  0  0
    5.1926    1.5345  -19.8110 H   0  0  0  0  0  0
   -1.7266    3.6019  -26.7214 H   0  0  0  0  0  0
    0.1995    2.1768  -20.6457 H   0  0  0  0  0  0
    6.9548    0.6175  -21.6877 H   0  0  0  0  0  0
   -3.1818    3.7409  -28.1345 H   0  0  0  0  0  0
    4.9390    7.2230  -21.6970 N   0  0  1  0  0  0
    6.3140    9.3960  -23.5170 N   0  0  0  0  0  0
    4.9090   10.6300  -22.4100 N   0  0  0  0  0  0
    5.6090    8.5030  -21.2660 C   0  0  0  0  0  0
    3.5180    7.3680  -22.1790 C   0  0  0  0  0  0
    5.6240    9.5190  -22.3910 C   0  0  0  0  0  0
    5.9870   10.5020  -24.2750 C   0  0  0  0  0  0
    5.1290   11.2630  -23.6040 C   0  0  0  0  0  0
    5.4939    6.7821  -22.5119 H   0  0  0  0  0  0
    6.9314    8.5835  -23.6571 H   0  0  0  0  0  0
    4.3182   10.8769  -21.6032 H   0  0  0  0  0  0
    6.6413    8.2879  -20.9529 H   0  0  0  0  0  0
    5.0748    8.9222  -20.4006 H   0  0  0  0  0  0
    3.4850    8.0928  -23.0058 H   0  0  0  0  0  0
    2.8939    7.7631  -21.3639 H   0  0  0  0  0  0
    6.4229   10.6330  -25.2588 H   0  0  0  0  0  0
    4.6290   12.2000  -23.8210 H   0  0  0  0  0  0
  1  2  2  0  0  0
  1  3  1  0  0  0
  1 34  1  0  0  0
  2  6  1  0  0  0
  2 35  1  0  0  0
  3  5  2  0  0  0
  3 27  1  0  0  0
  4  5  1  0  0  0
  4  6  2  0  0  0
  4 18  1  0  0  0
  5 24  1  0  0  0
  6 10  1  0  0  0
  7 10  2  0  0  0
  7 23  1  0  0  0
  7 33  1  0  0  0
  8 21  1  0  0  0
  8 22  1  0  0  0
  8 36  1  0  0  0
  8 37  1  0  0  0
  9 21  1  0  0  0
  9 31  1  0  0  0
  9 38  1  0  0  0
  9 39  1  0  0  0
 10 40  1  0  0  0
 11 12  2  0  0  0
 11 14  1  0  0  0
 11 15  1  0  0  0
 12 17  1  0  0  0
 12 28  1  0  0  0
 13 28  2  0  0  0
 13 29  1  0  0  0
 13 56  1  0  0  0
 14 29  2  0  0  0
 14 31  1  0  0  0
 15 30  2  0  0  0
 15 41  1  0  0  0
 16 17  2  0  0  0
 16 18  1  0  0  0
 16 30  1  0  0  0
 17 26  1  0  0  0
 18 23  2  0  0  0
 19 20  1  0  0  0
 19 31  1  0  0  0
 19 42  1  0  0  0
 19 43  1  0  0  0
 20 22  1  0  0  0
 20 32  1  0  0  0
 20 44  1  0  0  0
 21 32  1  0  0  0
 21 45  1  0  0  0
 22 46  1  0  0  0
 22 47  1  0  0  0
 23 48  1  0  0  0
 24 25  3  0  0  0
 25 49  1  0  0  0
 32 50  1  0  0  0
 33 51  1  0  0  0
 52 55  1  0  0  0
 52 56  1  0  0  0
 52 60  1  0  0  0
 53 57  1  0  0  0
 53 58  1  0  0  0
 53 61  1  0  0  0
 54 57  1  0  0  0
 54 59  1  0  0  0
 54 62  1  0  0  0
 55 57  1  0  0  0
 55 63  1  0  0  0
 55 64  1  0  0  0
 56 65  1  0  0  0
 56 66  1  0  0  0
 58 59  2  0  0  0
 58 67  1  0  0  0
 59 68  1  0  0  0
M  END
> <s_m_entry_id>
639

> <s_m_entry_name>
000000481.1

> <s_m_Source_Path>
/Users/zaksoul/Documents/3r_UNI/2nd_SEMESTER/BSC/FRAG_RECON/RESULTS/2

> <s_m_Source_File>
000000481.mol2

> <i_m_Source_File_Index>
1

$$$$
No_0_503
                    3D
 Schrodinger Suite 2022-4.
 70 76  0  0  1  0            999 V2000
   -5.1990    3.6920  -21.8560 C   0  0  0  0  0  0
   -5.4650    3.8830  -23.1920 C   0  0  0  0  0  0
   -3.9620    3.4350  -21.5150 C   0  0  0  0  0  0
   -3.0690    3.5640  -23.6800 C   0  0  0  0  0  0
   -2.9100    3.3160  -22.2600 C   0  0  0  0  0  0
   -4.4160    3.8300  -24.2010 C   0  0  0  0  0  0
   -3.6600    3.8540  -26.3990 C   0  0  0  0  0  0
    6.0650    3.0900  -21.1310 C   0  0  0  0  0  0
    5.9280    3.2370  -23.6810 C   0  0  0  0  0  0
   -4.6670    3.9600  -25.5370 C   0  0  0  0  0  0
    2.1440    3.7930  -23.6980 C   0  0  0  0  0  0
    1.3260    4.9030  -23.3980 C   0  0  0  0  0  0
    3.1260    6.0930  -22.7150 C   0  0  0  0  0  0
    3.5450    3.9800  -23.3840 C   0  0  0  0  0  0
    1.5960    2.6780  -24.3620 C   0  0  0  0  0  0
   -0.5300    3.4960  -24.2510 C   0  0  0  0  0  0
   -0.0000    4.7140  -23.6490 C   0  0  0  0  0  0
   -1.9820    3.5060  -24.6060 C   0  0  0  0  0  0
    4.1450    1.4810  -23.0970 C   0  0  0  0  0  0
    5.0780    1.1210  -21.9500 C   0  0  2  0  0  0
    6.6740    2.6590  -22.4830 C   0  0  2  0  0  0
    5.0610    2.1200  -20.7810 C   0  0  0  0  0  0
   -2.3070    3.6680  -26.0330 C   0  0  0  0  0  0
   -1.5670    2.8990  -21.6620 C   0  0  0  0  0  0
   -0.5370    2.5480  -21.1560 C   0  0  0  0  0  0
   -0.8400    5.7600  -23.3030 F   0  0  0  0  0  0
   -3.7530    3.1900  -20.1340 F   0  0  0  0  0  0
    1.8050    6.0600  -22.8640 N   0  0  0  0  0  0
    4.0210    5.1290  -22.9360 N   0  0  0  0  0  0
    0.2900    2.5920  -24.6680 N   0  0  0  0  0  0
    4.4610    2.9310  -23.5630 N   0  0  0  0  0  0
    6.4850    1.1860  -22.4320 N   0  0  1  0  0  0
   -3.8320    3.8720  -27.7890 O   0  0  0  0  0  0
   -6.0019    3.7552  -21.1304 H   0  0  0  0  0  0
   -6.4790    4.0808  -23.5203 H   0  0  0  0  0  0
    5.5966    4.0794  -21.2390 H   0  0  0  0  0  0
    6.8513    3.0971  -20.3618 H   0  0  0  0  0  0
    6.3218    2.7927  -24.6070 H   0  0  0  0  0  0
    6.0733    4.3269  -23.7113 H   0  0  0  0  0  0
   -5.6767    4.1487  -25.8833 H   0  0  0  0  0  0
    2.2337    1.8485  -24.6452 H   0  0  0  0  0  0
    3.1021    1.4255  -22.7517 H   0  0  0  0  0  0
    4.3064    0.7838  -23.9324 H   0  0  0  0  0  0
    4.8510    0.1089  -21.5837 H   0  0  0  0  0  0
    7.7429    2.9144  -22.5294 H   0  0  0  0  0  0
    4.0785    2.6128  -20.7376 H   0  0  0  0  0  0
    5.3609    1.6040  -19.8570 H   0  0  0  0  0  0
   -1.5371    3.6489  -26.7959 H   0  0  0  0  0  0
    0.3696    2.2391  -20.7112 H   0  0  0  0  0  0
    7.1311    0.6854  -21.7260 H   0  0  0  0  0  0
   -2.9874    3.7829  -28.2148 H   0  0  0  0  0  0
    7.2750    8.7820  -19.9390 O   0  0  0  0  0  0
    4.0230    7.3970  -20.7770 N   0  3  0  0  0  0
    6.7270    7.8510  -21.7780 N   0  0  0  0  0  0
    4.8450    8.5610  -20.2860 C   0  0  0  0  0  0
    3.6880    7.4310  -22.2440 C   0  0  0  0  0  0
    9.8210    8.7280  -20.0810 C   0  0  0  0  0  0
    6.3060    8.4030  -20.6650 C   0  0  0  0  0  0
    8.0910    7.8750  -21.7590 C   0  0  0  0  0  0
    8.4320    8.4520  -20.6140 C   0  0  0  0  0  0
    3.1707    7.3430  -20.2415 H   0  0  0  0  0  0
    4.5023    6.5365  -20.5629 H   0  0  0  0  0  0
    4.7570    8.6360  -19.1921 H   0  0  0  0  0  0
    4.4539    9.4943  -20.7172 H   0  0  0  0  0  0
    4.5941    7.6700  -22.8201 H   0  0  0  0  0  0
    2.9508    8.2252  -22.4331 H   0  0  0  0  0  0
   10.5693    8.3718  -20.8043 H   0  0  0  0  0  0
    9.9470    9.8100  -19.9280 H   0  0  0  0  0  0
    9.9580    8.2038  -19.1237 H   0  0  0  0  0  0
    8.6550    7.4620  -22.5940 H   0  0  0  0  0  0
  1  2  2  0  0  0
  1  3  1  0  0  0
  1 34  1  0  0  0
  2  6  1  0  0  0
  2 35  1  0  0  0
  3  5  2  0  0  0
  3 27  1  0  0  0
  4  5  1  0  0  0
  4  6  2  0  0  0
  4 18  1  0  0  0
  5 24  1  0  0  0
  6 10  1  0  0  0
  7 10  2  0  0  0
  7 23  1  0  0  0
  7 33  1  0  0  0
  8 21  1  0  0  0
  8 22  1  0  0  0
  8 36  1  0  0  0
  8 37  1  0  0  0
  9 21  1  0  0  0
  9 31  1  0  0  0
  9 38  1  0  0  0
  9 39  1  0  0  0
 10 40  1  0  0  0
 11 12  1  0  0  0
 11 14  2  0  0  0
 11 15  1  0  0  0
 12 17  1  0  0  0
 12 28  2  0  0  0
 13 28  1  0  0  0
 13 29  2  0  0  0
 13 56  1  0  0  0
 14 29  1  0  0  0
 14 31  1  0  0  0
 15 30  2  0  0  0
 15 41  1  0  0  0
 16 17  2  0  0  0
 16 18  1  0  0  0
 16 30  1  0  0  0
 17 26  1  0  0  0
 18 23  2  0  0  0
 19 20  1  0  0  0
 19 31  1  0  0  0
 19 42  1  0  0  0
 19 43  1  0  0  0
 20 22  1  0  0  0
 20 32  1  0  0  0
 20 44  1  0  0  0
 21 32  1  0  0  0
 21 45  1  0  0  0
 22 46  1  0  0  0
 22 47  1  0  0  0
 23 48  1  0  0  0
 24 25  3  0  0  0
 25 49  1  0  0  0
 32 50  1  0  0  0
 33 51  1  0  0  0
 52 58  1  0  0  0
 52 60  1  0  0  0
 53 55  1  0  0  0
 53 56  1  0  0  0
 53 61  1  0  0  0
 53 62  1  0  0  0
 54 58  2  0  0  0
 54 59  1  0  0  0
 55 58  1  0  0  0
 55 63  1  0  0  0
 55 64  1  0  0  0
 56 65  1  0  0  0
 56 66  1  0  0  0
 57 60  1  0  0  0
 57 67  1  0  0  0
 57 68  1  0  0  0
 57 69  1  0  0  0
 59 60  2  0  0  0
 59 70  1  0  0  0
M  CHG  1  53   1
M  END
> <s_m_entry_id>
640

> <s_m_entry_name>
000000482.1

> <s_m_Source_Path>
/Users/zaksoul/Documents/3r_UNI/2nd_SEMESTER/BSC/FRAG_RECON/RESULTS/2

> <s_m_Source_File>
000000482.mol2

> <i_m_Source_File_Index>
1

$$$$
No_0_504
                    3D
 Schrodinger Suite 2022-4.
 70 76  0  0  1  0            999 V2000
   -5.0770    3.6590  -21.8440 C   0  0  0  0  0  0
   -5.3450    3.8590  -23.1770 C   0  0  0  0  0  0
   -3.8400    3.3970  -21.5070 C   0  0  0  0  0  0
   -2.9510    3.5360  -23.6720 C   0  0  0  0  0  0
   -2.7890    3.2800  -22.2540 C   0  0  0  0  0  0
   -4.2980    3.8080  -24.1900 C   0  0  0  0  0  0
   -3.5460    3.8430  -26.3890 C   0  0  0  0  0  0
    6.1870    3.0250  -21.1430 C   0  0  0  0  0  0
    6.0450    3.1870  -23.6910 C   0  0  0  0  0  0
   -4.5510    3.9470  -25.5240 C   0  0  0  0  0  0
    2.2630    3.7520  -23.6990 C   0  0  0  0  0  0
    1.4480    4.8620  -23.3900 C   0  0  0  0  0  0
    3.2520    6.0450  -22.7040 C   0  0  0  0  0  0
    3.6650    3.9340  -23.3860 C   0  0  0  0  0  0
    1.7110    2.6430  -24.3670 C   0  0  0  0  0  0
   -0.4120    3.4650  -24.2480 C   0  0  0  0  0  0
    0.1210    4.6780  -23.6400 C   0  0  0  0  0  0
   -1.8660    3.4800  -24.6000 C   0  0  0  0  0  0
    4.2600    1.4320  -23.1140 C   0  0  0  0  0  0
    5.1930    1.0630  -21.9710 C   0  0  2  0  0  0
    6.7920    2.6000  -22.4990 C   0  0  2  0  0  0
    5.1810    2.0560  -20.7970 C   0  0  0  0  0  0
   -2.1930    3.6520  -26.0260 C   0  0  0  0  0  0
   -1.4460    2.8560  -21.6610 C   0  0  0  0  0  0
   -0.4160    2.5000  -21.1590 C   0  0  0  0  0  0
   -0.7160    5.7250  -23.2870 F   0  0  0  0  0  0
   -3.6290    3.1440  -20.1270 F   0  0  0  0  0  0
    1.9310    6.0150  -22.8510 N   0  0  0  0  0  0
    4.1440    5.0800  -22.9330 N   0  0  0  0  0  0
    0.4040    2.5610  -24.6720 N   0  0  0  0  0  0
    4.5780    2.8840  -23.5720 N   0  0  0  0  0  0
    6.6000    1.1270  -22.4550 N   0  0  1  0  0  0
   -3.7210    3.8690  -27.7780 O   0  0  0  0  0  0
   -5.8775    3.7202  -21.1157 H   0  0  0  0  0  0
   -6.3591    4.0608  -23.5023 H   0  0  0  0  0  0
    5.7207    4.0161  -21.2449 H   0  0  0  0  0  0
    6.9743    3.0260  -20.3748 H   0  0  0  0  0  0
    6.4366    2.7480  -24.6205 H   0  0  0  0  0  0
    6.1933    4.2767  -23.7162 H   0  0  0  0  0  0
   -5.5611    4.1388  -25.8674 H   0  0  0  0  0  0
    2.3452    1.8131  -24.6570 H   0  0  0  0  0  0
    3.2175    1.3776  -22.7672 H   0  0  0  0  0  0
    4.4175    0.7394  -23.9540 H   0  0  0  0  0  0
    4.9648    0.0494  -21.6096 H   0  0  0  0  0  0
    7.8614    2.8532  -22.5454 H   0  0  0  0  0  0
    4.1997    2.5507  -20.7475 H   0  0  0  0  0  0
    5.4805    1.5337  -19.8764 H   0  0  0  0  0  0
   -1.4246    3.6339  -26.7904 H   0  0  0  0  0  0
    0.4901    2.1860  -20.7169 H   0  0  0  0  0  0
    7.2462    0.6209  -21.7531 H   0  0  0  0  0  0
   -2.8772    3.7800  -28.2053 H   0  0  0  0  0  0
    7.6340    8.7680  -20.3510 O   0  0  0  0  0  0
    4.3570    7.2730  -20.8250 N   0  3  0  0  0  0
    6.8720    7.9230  -22.1560 N   0  0  0  0  0  0
    5.1910    8.4450  -20.3750 C   0  0  0  0  0  0
    3.8190    7.3780  -22.2270 C   0  0  0  0  0  0
   10.1340    8.8520  -20.8450 C   0  0  0  0  0  0
    6.5890    8.3850  -20.9610 C   0  0  0  0  0  0
    8.2240    8.0140  -22.3220 C   0  0  0  0  0  0
    8.6970    8.5380  -21.1990 C   0  0  0  0  0  0
    3.5914    7.1431  -20.1823 H   0  0  0  0  0  0
    4.8966    6.4261  -20.7369 H   0  0  0  0  0  0
    5.2530    8.4500  -19.2768 H   0  0  0  0  0  0
    4.7040    9.3810  -20.6860 H   0  0  0  0  0  0
    4.6240    7.6980  -22.9050 H   0  0  0  0  0  0
    3.0301    8.1439  -22.2600 H   0  0  0  0  0  0
   10.7880    8.5780  -21.6860 H   0  0  0  0  0  0
   10.2351    9.9276  -20.6379 H   0  0  0  0  0  0
   10.4260    8.2781  -19.9531 H   0  0  0  0  0  0
    8.6821    7.6809  -23.2521 H   0  0  0  0  0  0
  1  2  2  0  0  0
  1  3  1  0  0  0
  1 34  1  0  0  0
  2  6  1  0  0  0
  2 35  1  0  0  0
  3  5  2  0  0  0
  3 27  1  0  0  0
  4  5  1  0  0  0
  4  6  2  0  0  0
  4 18  1  0  0  0
  5 24  1  0  0  0
  6 10  1  0  0  0
  7 10  2  0  0  0
  7 23  1  0  0  0
  7 33  1  0  0  0
  8 21  1  0  0  0
  8 22  1  0  0  0
  8 36  1  0  0  0
  8 37  1  0  0  0
  9 21  1  0  0  0
  9 31  1  0  0  0
  9 38  1  0  0  0
  9 39  1  0  0  0
 10 40  1  0  0  0
 11 12  1  0  0  0
 11 14  2  0  0  0
 11 15  1  0  0  0
 12 17  1  0  0  0
 12 28  2  0  0  0
 13 28  1  0  0  0
 13 29  2  0  0  0
 13 56  1  0  0  0
 14 29  1  0  0  0
 14 31  1  0  0  0
 15 30  2  0  0  0
 15 41  1  0  0  0
 16 17  2  0  0  0
 16 18  1  0  0  0
 16 30  1  0  0  0
 17 26  1  0  0  0
 18 23  2  0  0  0
 19 20  1  0  0  0
 19 31  1  0  0  0
 19 42  1  0  0  0
 19 43  1  0  0  0
 20 22  1  0  0  0
 20 32  1  0  0  0
 20 44  1  0  0  0
 21 32  1  0  0  0
 21 45  1  0  0  0
 22 46  1  0  0  0
 22 47  1  0  0  0
 23 48  1  0  0  0
 24 25  3  0  0  0
 25 49  1  0  0  0
 32 50  1  0  0  0
 33 51  1  0  0  0
 52 58  1  0  0  0
 52 60  1  0  0  0
 53 55  1  0  0  0
 53 56  1  0  0  0
 53 61  1  0  0  0
 53 62  1  0  0  0
 54 58  2  0  0  0
 54 59  1  0  0  0
 55 58  1  0  0  0
 55 63  1  0  0  0
 55 64  1  0  0  0
 56 65  1  0  0  0
 56 66  1  0  0  0
 57 60  1  0  0  0
 57 67  1  0  0  0
 57 68  1  0  0  0
 57 69  1  0  0  0
 59 60  2  0  0  0
 59 70  1  0  0  0
M  CHG  1  53   1
M  END
> <s_m_entry_id>
641

> <s_m_entry_name>
000000483.1

> <s_m_Source_Path>
/Users/zaksoul/Documents/3r_UNI/2nd_SEMESTER/BSC/FRAG_RECON/RESULTS/2

> <s_m_Source_File>
000000483.mol2

> <i_m_Source_File_Index>
1

$$$$
No_0_505
                    3D
 Schrodinger Suite 2022-4.
 70 76  0  0  1  0            999 V2000
   -5.0490    3.5940  -21.8680 C   0  0  0  0  0  0
   -5.3250    3.8270  -23.1940 C   0  0  0  0  0  0
   -3.8050    3.3500  -21.5420 C   0  0  0  0  0  0
   -2.9260    3.5730  -23.7050 C   0  0  0  0  0  0
   -2.7540    3.2780  -22.2950 C   0  0  0  0  0  0
   -4.2800    3.8310  -24.2100 C   0  0  0  0  0  0
   -3.5360    3.9480  -26.4090 C   0  0  0  0  0  0
    6.2290    3.1890  -21.2140 C   0  0  0  0  0  0
    6.0760    3.4240  -23.7560 C   0  0  0  0  0  0
   -4.5400    4.0030  -25.5390 C   0  0  0  0  0  0
    2.2820    3.9050  -23.7380 C   0  0  0  0  0  0
    1.4430    4.9870  -23.3940 C   0  0  0  0  0  0
    3.2240    6.1880  -22.6770 C   0  0  0  0  0  0
    3.6810    4.1090  -23.4230 C   0  0  0  0  0  0
    1.7520    2.8040  -24.4380 C   0  0  0  0  0  0
   -0.3880    3.5750  -24.2880 C   0  0  0  0  0  0
    0.1200    4.7810  -23.6460 C   0  0  0  0  0  0
   -1.8430    3.5690  -24.6360 C   0  0  0  0  0  0
    4.3310    1.6130  -23.2270 C   0  0  0  0  0  0
    5.2760    1.2310  -22.0990 C   0  0  2  0  0  0
    6.8390    2.8190  -22.5840 C   0  0  2  0  0  0
    5.2460    2.1880  -20.8950 C   0  0  0  0  0  0
   -2.1780    3.7760  -26.0560 C   0  0  0  0  0  0
   -1.4000    2.8660  -21.7180 C   0  0  0  0  0  0
   -0.3610    2.5180  -21.2300 C   0  0  0  0  0  0
   -0.7380    5.7980  -23.2590 F   0  0  0  0  0  0
   -3.5840    3.0600  -20.1710 F   0  0  0  0  0  0
    1.9030    6.1340  -22.8210 N   0  0  0  0  0  0
    4.1360    5.2500  -22.9370 N   0  0  0  0  0  0
    0.4460    2.7030  -24.7410 N   0  0  0  0  0  0
    4.6160    3.0850  -23.6430 N   0  0  0  0  0  0
    6.6790    1.3410  -22.5840 N   0  0  1  0  0  0
   -3.7160    4.0110  -27.7970 O   0  0  0  0  0  0
   -5.8483    3.6151  -21.1360 H   0  0  0  0  0  0
   -6.3440    4.0167  -23.5113 H   0  0  0  0  0  0
    5.7405    4.1720  -21.2847 H   0  0  0  0  0  0
    7.0183    3.1840  -20.4479 H   0  0  0  0  0  0
    6.4735    3.0214  -24.6994 H   0  0  0  0  0  0
    6.2001    4.5170  -23.7489 H   0  0  0  0  0  0
   -5.5549    4.1837  -25.8743 H   0  0  0  0  0  0
    2.4045    1.9979  -24.7532 H   0  0  0  0  0  0
    3.2909    1.5252  -22.8800 H   0  0  0  0  0  0
    4.5016    0.9499  -24.0879 H   0  0  0  0  0  0
    5.0711    0.2022  -21.7679 H   0  0  0  0  0  0
    7.9026    3.0965  -22.6254 H   0  0  0  0  0  0
    4.2544    2.6595  -20.8284 H   0  0  0  0  0  0
    5.5597    1.6453  -19.9911 H   0  0  0  0  0  0
   -1.4117    3.7981  -26.8223 H   0  0  0  0  0  0
    0.5535    2.2118  -20.7998 H   0  0  0  0  0  0
    7.3389    0.8287  -21.8995 H   0  0  0  0  0  0
   -2.8716    3.9546  -28.2286 H   0  0  0  0  0  0
    7.7040    9.0480  -20.7030 O   0  0  0  0  0  0
    4.5000    7.3430  -20.8610 N   0  3  0  0  0  0
    6.7510    8.2950  -22.4570 N   0  0  0  0  0  0
    5.3090    8.5370  -20.4240 C   0  0  0  0  0  0
    3.7620    7.5190  -22.1610 C   0  0  0  0  0  0
   10.0970    9.3690  -21.5230 C   0  0  0  0  0  0
    6.6110    8.6350  -21.1970 C   0  0  0  0  0  0
    8.0560    8.5060  -22.7970 C   0  0  0  0  0  0
    8.6480    8.9730  -21.7060 C   0  0  0  0  0  0
    3.8438    7.1019  -20.1348 H   0  0  0  0  0  0
    5.1025    6.5374  -20.9250 H   0  0  0  0  0  0
    5.5271    8.4580  -19.3487 H   0  0  0  0  0  0
    4.7218    9.4543  -20.5781 H   0  0  0  0  0  0
    4.4392    7.9551  -22.9102 H   0  0  0  0  0  0
    2.9268    8.2202  -22.0170 H   0  0  0  0  0  0
   10.6410    9.2170  -22.4669 H   0  0  0  0  0  0
   10.1550   10.4288  -21.2341 H   0  0  0  0  0  0
   10.5510    8.7501  -20.7351 H   0  0  0  0  0  0
    8.3981    8.2869  -23.8074 H   0  0  0  0  0  0
  1  2  2  0  0  0
  1  3  1  0  0  0
  1 34  1  0  0  0
  2  6  1  0  0  0
  2 35  1  0  0  0
  3  5  2  0  0  0
  3 27  1  0  0  0
  4  5  1  0  0  0
  4  6  2  0  0  0
  4 18  1  0  0  0
  5 24  1  0  0  0
  6 10  1  0  0  0
  7 10  2  0  0  0
  7 23  1  0  0  0
  7 33  1  0  0  0
  8 21  1  0  0  0
  8 22  1  0  0  0
  8 36  1  0  0  0
  8 37  1  0  0  0
  9 21  1  0  0  0
  9 31  1  0  0  0
  9 38  1  0  0  0
  9 39  1  0  0  0
 10 40  1  0  0  0
 11 12  1  0  0  0
 11 14  2  0  0  0
 11 15  1  0  0  0
 12 17  1  0  0  0
 12 28  2  0  0  0
 13 28  1  0  0  0
 13 29  2  0  0  0
 13 56  1  0  0  0
 14 29  1  0  0  0
 14 31  1  0  0  0
 15 30  2  0  0  0
 15 41  1  0  0  0
 16 17  2  0  0  0
 16 18  1  0  0  0
 16 30  1  0  0  0
 17 26  1  0  0  0
 18 23  2  0  0  0
 19 20  1  0  0  0
 19 31  1  0  0  0
 19 42  1  0  0  0
 19 43  1  0  0  0
 20 22  1  0  0  0
 20 32  1  0  0  0
 20 44  1  0  0  0
 21 32  1  0  0  0
 21 45  1  0  0  0
 22 46  1  0  0  0
 22 47  1  0  0  0
 23 48  1  0  0  0
 24 25  3  0  0  0
 25 49  1  0  0  0
 32 50  1  0  0  0
 33 51  1  0  0  0
 52 58  1  0  0  0
 52 60  1  0  0  0
 53 55  1  0  0  0
 53 56  1  0  0  0
 53 61  1  0  0  0
 53 62  1  0  0  0
 54 58  2  0  0  0
 54 59  1  0  0  0
 55 58  1  0  0  0
 55 63  1  0  0  0
 55 64  1  0  0  0
 56 65  1  0  0  0
 56 66  1  0  0  0
 57 60  1  0  0  0
 57 67  1  0  0  0
 57 68  1  0  0  0
 57 69  1  0  0  0
 59 60  2  0  0  0
 59 70  1  0  0  0
M  CHG  1  53   1
M  END
> <s_m_entry_id>
642

> <s_m_entry_name>
000000484.1

> <s_m_Source_Path>
/Users/zaksoul/Documents/3r_UNI/2nd_SEMESTER/BSC/FRAG_RECON/RESULTS/2

> <s_m_Source_File>
000000484.mol2

> <i_m_Source_File_Index>
1

$$$$
No_0_506
                    3D
 Schrodinger Suite 2022-4.
 72 78  0  0  1  0            999 V2000
   -4.9440    3.5880  -21.6330 C   0  0  0  0  0  0
   -5.2430    3.7950  -22.9590 C   0  0  0  0  0  0
   -3.7020    3.3080  -21.3300 C   0  0  0  0  0  0
   -2.8690    3.4390  -23.5180 C   0  0  0  0  0  0
   -2.6730    3.1770  -22.1050 C   0  0  0  0  0  0
   -4.2250    3.7320  -23.9990 C   0  0  0  0  0  0
   -3.5310    3.7610  -26.2170 C   0  0  0  0  0  0
    6.3250    2.7900  -21.2340 C   0  0  0  0  0  0
    6.1180    2.9600  -23.7770 C   0  0  0  0  0  0
   -4.5110    3.8780  -25.3250 C   0  0  0  0  0  0
    2.3460    3.5800  -23.6830 C   0  0  0  0  0  0
    1.5550    4.7010  -23.3510 C   0  0  0  0  0  0
    3.3940    5.8550  -22.7100 C   0  0  0  0  0  0
    3.7580    3.7410  -23.4080 C   0  0  0  0  0  0
    1.7600    2.4800  -24.3390 C   0  0  0  0  0  0
   -0.3480    3.3330  -24.1610 C   0  0  0  0  0  0
    0.2190    4.5370  -23.5660 C   0  0  0  0  0  0
   -1.8100    3.3700  -24.4750 C   0  0  0  0  0  0
    4.3230    1.2290  -23.1560 C   0  0  0  0  0  0
    5.2810    0.8440  -22.0400 C   0  0  2  0  0  0
    6.8880    2.3600  -22.6070 C   0  0  2  0  0  0
    5.3150    1.8340  -20.8630 C   0  0  0  0  0  0
   -2.1720    3.5500  -25.8910 C   0  0  0  0  0  0
   -1.3210    2.7320  -21.5490 C   0  0  0  0  0  0
   -0.2840    2.3600  -21.0750 C   0  0  0  0  0  0
   -0.5920    5.5940  -23.1880 F   0  0  0  0  0  0
   -3.4570    3.0480  -19.9560 F   0  0  0  0  0  0
    2.0690    5.8450  -22.8220 N   0  0  0  0  0  0
    4.2650    4.8780  -22.9650 N   0  0  0  0  0  0
    0.4440    2.4180  -24.6080 N   0  0  0  0  0  0
    4.6500    2.6770  -23.6200 N   0  0  0  0  0  0
    6.6750    0.8890  -22.5610 N   0  0  1  0  0  0
   -3.7430    3.7930  -27.6010 O   0  0  0  0  0  0
   -5.7243    3.6593  -20.8839 H   0  0  0  0  0  0
   -6.2625    4.0128  -23.2560 H   0  0  0  0  0  0
    5.8705    3.7879  -21.3219 H   0  0  0  0  0  0
    7.1325    2.7769  -20.4871 H   0  0  0  0  0  0
    6.4773    2.5170  -24.7176 H   0  0  0  0  0  0
    6.2816    4.0474  -23.8043 H   0  0  0  0  0  0
   -5.5268    4.0858  -25.6412 H   0  0  0  0  0  0
    2.3744    1.6418  -24.6472 H   0  0  0  0  0  0
    3.2890    1.1897  -22.7828 H   0  0  0  0  0  0
    4.4481    0.5367  -24.0016 H   0  0  0  0  0  0
    5.0479   -0.1671  -21.6747 H   0  0  0  0  0  0
    7.9596    2.5971  -22.6807 H   0  0  0  0  0  0
    4.3427    2.3429  -20.7873 H   0  0  0  0  0  0
    5.6309    1.3052  -19.9517 H   0  0  0  0  0  0
   -1.4245    3.5229  -26.6756 H   0  0  0  0  0  0
    0.6296    2.0321  -20.6592 H   0  0  0  0  0  0
    7.3320    0.3721  -21.8772 H   0  0  0  0  0  0
   -2.9123    3.6931  -28.0510 H   0  0  0  0  0  0
    4.8140    6.9880  -20.9970 N   0  0  1  0  0  0
    8.0660    7.8370  -20.7880 N   0  0  0  0  0  0
    7.0980    9.0680  -22.3090 N   0  0  0  0  0  0
    9.0200    8.2240  -21.6720 N   0  0  0  0  0  0
    5.5450    8.2160  -20.5180 C   0  0  0  0  0  0
    3.9920    7.1790  -22.2450 C   0  0  0  0  0  0
    6.8910    8.3760  -21.2040 C   0  0  0  0  0  0
    8.3360    6.9960  -19.6150 C   0  0  0  0  0  0
    8.7640    7.8540  -18.4140 C   0  0  0  0  0  0
    8.4150    8.9520  -22.5650 C   0  0  0  0  0  0
    5.5263    6.2057  -21.2141 H   0  0  0  0  0  0
    5.6940    8.1520  -19.4300 H   0  0  0  0  0  0
    4.9278    9.1063  -20.7091 H   0  0  0  0  0  0
    4.6268    7.5939  -23.0418 H   0  0  0  0  0  0
    3.1825    7.8964  -22.0449 H   0  0  0  0  0  0
    9.1339    6.2781  -19.8560 H   0  0  0  0  0  0
    7.4306    6.4274  -19.3562 H   0  0  0  0  0  0
    8.9600    7.2031  -17.5492 H   0  0  0  0  0  0
    9.6778    8.4115  -18.6672 H   0  0  0  0  0  0
    7.9601    8.5619  -18.1640 H   0  0  0  0  0  0
    8.8439    9.4379  -23.4339 H   0  0  0  0  0  0
  1  2  2  0  0  0
  1  3  1  0  0  0
  1 34  1  0  0  0
  2  6  1  0  0  0
  2 35  1  0  0  0
  3  5  2  0  0  0
  3 27  1  0  0  0
  4  5  1  0  0  0
  4  6  2  0  0  0
  4 18  1  0  0  0
  5 24  1  0  0  0
  6 10  1  0  0  0
  7 10  2  0  0  0
  7 23  1  0  0  0
  7 33  1  0  0  0
  8 21  1  0  0  0
  8 22  1  0  0  0
  8 36  1  0  0  0
  8 37  1  0  0  0
  9 21  1  0  0  0
  9 31  1  0  0  0
  9 38  1  0  0  0
  9 39  1  0  0  0
 10 40  1  0  0  0
 11 12  1  0  0  0
 11 14  2  0  0  0
 11 15  1  0  0  0
 12 17  1  0  0  0
 12 28  2  0  0  0
 13 28  1  0  0  0
 13 29  2  0  0  0
 13 57  1  0  0  0
 14 29  1  0  0  0
 14 31  1  0  0  0
 15 30  2  0  0  0
 15 41  1  0  0  0
 16 17  2  0  0  0
 16 18  1  0  0  0
 16 30  1  0  0  0
 17 26  1  0  0  0
 18 23  2  0  0  0
 19 20  1  0  0  0
 19 31  1  0  0  0
 19 42  1  0  0  0
 19 43  1  0  0  0
 20 22  1  0  0  0
 20 32  1  0  0  0
 20 44  1  0  0  0
 21 32  1  0  0  0
 21 45  1  0  0  0
 22 46  1  0  0  0
 22 47  1  0  0  0
 23 48  1  0  0  0
 24 25  3  0  0  0
 25 49  1  0  0  0
 32 50  1  0  0  0
 33 51  1  0  0  0
 52 56  1  0  0  0
 52 57  1  0  0  0
 52 62  1  0  0  0
 53 55  1  0  0  0
 53 58  1  0  0  0
 53 59  1  0  0  0
 54 58  2  0  0  0
 54 61  1  0  0  0
 55 61  2  0  0  0
 56 58  1  0  0  0
 56 63  1  0  0  0
 56 64  1  0  0  0
 57 65  1  0  0  0
 57 66  1  0  0  0
 59 60  1  0  0  0
 59 67  1  0  0  0
 59 68  1  0  0  0
 60 69  1  0  0  0
 60 70  1  0  0  0
 60 71  1  0  0  0
 61 72  1  0  0  0
M  END
> <s_m_entry_id>
643

> <s_m_entry_name>
000000485.1

> <s_m_Source_Path>
/Users/zaksoul/Documents/3r_UNI/2nd_SEMESTER/BSC/FRAG_RECON/RESULTS/2

> <s_m_Source_File>
000000485.mol2

> <i_m_Source_File_Index>
1

$$$$
No_0_507
                    3D
 Schrodinger Suite 2022-4.
 72 78  0  0  1  0            999 V2000
   -5.1810    3.6090  -21.8530 C   0  0  0  0  0  0
   -5.4520    3.8050  -23.1860 C   0  0  0  0  0  0
   -3.9420    3.3510  -21.5190 C   0  0  0  0  0  0
   -3.0590    3.4860  -23.6870 C   0  0  0  0  0  0
   -2.8930    3.2340  -22.2690 C   0  0  0  0  0  0
   -4.4090    3.7540  -24.2010 C   0  0  0  0  0  0
   -3.6630    3.7850  -26.4030 C   0  0  0  0  0  0
    6.0870    3.0010  -21.1820 C   0  0  0  0  0  0
    5.9380    3.1560  -23.7310 C   0  0  0  0  0  0
   -4.6650    3.8890  -25.5350 C   0  0  0  0  0  0
    2.1540    3.7130  -23.7290 C   0  0  0  0  0  0
    1.3370    4.8230  -23.4210 C   0  0  0  0  0  0
    3.1410    6.0110  -22.7430 C   0  0  0  0  0  0
    3.5570    3.8990  -23.4210 C   0  0  0  0  0  0
    1.6030    2.6010  -24.3930 C   0  0  0  0  0  0
   -0.5220    3.4190  -24.2700 C   0  0  0  0  0  0
    0.0100    4.6350  -23.6670 C   0  0  0  0  0  0
   -1.9770    3.4300  -24.6180 C   0  0  0  0  0  0
    4.1570    1.3990  -23.1440 C   0  0  0  0  0  0
    5.0950    1.0350  -22.0030 C   0  0  2  0  0  0
    6.6890    2.5740  -22.5390 C   0  0  2  0  0  0
    5.0840    2.0310  -20.8310 C   0  0  0  0  0  0
   -2.3080    3.5970  -26.0440 C   0  0  0  0  0  0
   -1.5470    2.8150  -21.6780 C   0  0  0  0  0  0
   -0.5150    2.4620  -21.1780 C   0  0  0  0  0  0
   -0.8280    5.6800  -23.3140 F   0  0  0  0  0  0
   -3.7260    3.1020  -20.1390 F   0  0  0  0  0  0
    1.8200    5.9780  -22.8860 N   0  0  0  0  0  0
    4.0350    5.0470  -22.9720 N   0  0  0  0  0  0
    0.2950    2.5160  -24.6930 N   0  0  0  0  0  0
    4.4710    2.8500  -23.6070 N   0  0  0  0  0  0
    6.5000    1.1010  -22.4910 N   0  0  1  0  0  0
   -3.8410    3.8060  -27.7920 O   0  0  0  0  0  0
   -5.9796    3.6712  -21.1226 H   0  0  0  0  0  0
   -6.4675    4.0037  -23.5091 H   0  0  0  0  0  0
    5.6179    3.9906  -21.2849 H   0  0  0  0  0  0
    6.8763    3.0060  -20.4159 H   0  0  0  0  0  0
    6.3275    2.7150  -24.6604 H   0  0  0  0  0  0
    6.0833    4.2460  -23.7593 H   0  0  0  0  0  0
   -5.6765    4.0776  -25.8762 H   0  0  0  0  0  0
    2.2385    1.7718  -24.6821 H   0  0  0  0  0  0
    3.1157    1.3435  -22.7939 H   0  0  0  0  0  0
    4.3144    0.7047  -23.9826 H   0  0  0  0  0  0
    4.8700    0.0218  -21.6387 H   0  0  0  0  0  0
    7.7578    2.8293  -22.5885 H   0  0  0  0  0  0
    4.1018    2.5236  -20.7805 H   0  0  0  0  0  0
    5.3877    1.5123  -19.9097 H   0  0  0  0  0  0
   -1.5411    3.5789  -26.8099 H   0  0  0  0  0  0
    0.3934    2.1519  -20.7378 H   0  0  0  0  0  0
    7.1492    0.5983  -21.7894 H   0  0  0  0  0  0
   -2.9984    3.7179  -28.2217 H   0  0  0  0  0  0
    4.7300    7.1420  -21.1850 N   0  0  1  0  0  0
    7.9000    8.2530  -21.4130 N   0  0  0  0  0  0
    6.6110    9.4970  -22.6620 N   0  0  0  0  0  0
    8.6690    8.7800  -22.4000 N   0  0  0  0  0  0
    5.4350    8.3930  -20.7270 C   0  0  0  0  0  0
    3.7060    7.3460  -22.2710 C   0  0  0  0  0  0
    6.6380    8.7160  -21.5980 C   0  0  0  0  0  0
    8.4180    7.3600  -20.3690 C   0  0  0  0  0  0
    8.9680    8.1680  -19.1830 C   0  0  0  0  0  0
    7.8760    9.5120  -23.1270 C   0  0  0  0  0  0
    5.4553    6.4417  -21.5722 H   0  0  0  0  0  0
    5.7611    8.2690  -19.6838 H   0  0  0  0  0  0
    4.7310    9.2380  -20.7470 H   0  0  0  0  0  0
    4.1719    7.8679  -23.1198 H   0  0  0  0  0  0
    2.8884    7.9757  -21.8902 H   0  0  0  0  0  0
    9.2187    6.7324  -20.7874 H   0  0  0  0  0  0
    7.6108    6.6998  -20.0189 H   0  0  0  0  0  0
    9.3488    7.4794  -18.4144 H   0  0  0  0  0  0
    9.7847    8.8187  -19.5289 H   0  0  0  0  0  0
    8.1653    8.7858  -18.7541 H   0  0  0  0  0  0
    8.1210   10.0910  -24.0100 H   0  0  0  0  0  0
  1  2  2  0  0  0
  1  3  1  0  0  0
  1 34  1  0  0  0
  2  6  1  0  0  0
  2 35  1  0  0  0
  3  5  2  0  0  0
  3 27  1  0  0  0
  4  5  1  0  0  0
  4  6  2  0  0  0
  4 18  1  0  0  0
  5 24  1  0  0  0
  6 10  1  0  0  0
  7 10  2  0  0  0
  7 23  1  0  0  0
  7 33  1  0  0  0
  8 21  1  0  0  0
  8 22  1  0  0  0
  8 36  1  0  0  0
  8 37  1  0  0  0
  9 21  1  0  0  0
  9 31  1  0  0  0
  9 38  1  0  0  0
  9 39  1  0  0  0
 10 40  1  0  0  0
 11 12  1  0  0  0
 11 14  2  0  0  0
 11 15  1  0  0  0
 12 17  1  0  0  0
 12 28  2  0  0  0
 13 28  1  0  0  0
 13 29  2  0  0  0
 13 57  1  0  0  0
 14 29  1  0  0  0
 14 31  1  0  0  0
 15 30  2  0  0  0
 15 41  1  0  0  0
 16 17  2  0  0  0
 16 18  1  0  0  0
 16 30  1  0  0  0
 17 26  1  0  0  0
 18 23  2  0  0  0
 19 20  1  0  0  0
 19 31  1  0  0  0
 19 42  1  0  0  0
 19 43  1  0  0  0
 20 22  1  0  0  0
 20 32  1  0  0  0
 20 44  1  0  0  0
 21 32  1  0  0  0
 21 45  1  0  0  0
 22 46  1  0  0  0
 22 47  1  0  0  0
 23 48  1  0  0  0
 24 25  3  0  0  0
 25 49  1  0  0  0
 32 50  1  0  0  0
 33 51  1  0  0  0
 52 56  1  0  0  0
 52 57  1  0  0  0
 52 62  1  0  0  0
 53 55  1  0  0  0
 53 58  1  0  0  0
 53 59  1  0  0  0
 54 58  2  0  0  0
 54 61  1  0  0  0
 55 61  2  0  0  0
 56 58  1  0  0  0
 56 63  1  0  0  0
 56 64  1  0  0  0
 57 65  1  0  0  0
 57 66  1  0  0  0
 59 60  1  0  0  0
 59 67  1  0  0  0
 59 68  1  0  0  0
 60 69  1  0  0  0
 60 70  1  0  0  0
 60 71  1  0  0  0
 61 72  1  0  0  0
M  END
> <s_m_entry_id>
644

> <s_m_entry_name>
000000486.1

> <s_m_Source_Path>
/Users/zaksoul/Documents/3r_UNI/2nd_SEMESTER/BSC/FRAG_RECON/RESULTS/2

> <s_m_Source_File>
000000486.mol2

> <i_m_Source_File_Index>
1

$$$$
No_0_508
                    3D
 Schrodinger Suite 2022-4.
 72 78  0  0  1  0            999 V2000
   -5.3840    3.5350  -21.8730 C   0  0  0  0  0  0
   -5.6460    3.7320  -23.2080 C   0  0  0  0  0  0
   -4.1450    3.2890  -21.5280 C   0  0  0  0  0  0
   -3.2450    3.4410  -23.6890 C   0  0  0  0  0  0
   -3.0890    3.1860  -22.2690 C   0  0  0  0  0  0
   -4.5920    3.6970  -24.2140 C   0  0  0  0  0  0
   -3.8270    3.7430  -26.4080 C   0  0  0  0  0  0
    5.8830    3.0480  -21.1040 C   0  0  0  0  0  0
    5.7550    3.2100  -23.6520 C   0  0  0  0  0  0
   -4.8390    3.8330  -25.5490 C   0  0  0  0  0  0
    1.9660    3.7260  -23.6830 C   0  0  0  0  0  0
    1.1340    4.8250  -23.3780 C   0  0  0  0  0  0
    2.9190    6.0300  -22.6800 C   0  0  0  0  0  0
    3.3630    3.9260  -23.3620 C   0  0  0  0  0  0
    1.4320    2.6100  -24.3560 C   0  0  0  0  0  0
   -0.7020    3.4040  -24.2490 C   0  0  0  0  0  0
   -0.1890    4.6240  -23.6370 C   0  0  0  0  0  0
   -2.1540    3.4010  -24.6100 C   0  0  0  0  0  0
    3.9890    1.4310  -23.0880 C   0  0  0  0  0  0
    4.9200    1.0740  -21.9400 C   0  0  2  0  0  0
    6.5030    2.6320  -22.4560 C   0  0  2  0  0  0
    4.8890    2.0650  -20.7640 C   0  0  0  0  0  0
   -2.4740    3.5690  -26.0380 C   0  0  0  0  0  0
   -1.7440    2.7800  -21.6680 C   0  0  0  0  0  0
   -0.7120    2.4360  -21.1600 C   0  0  0  0  0  0
   -1.0410    5.6590  -23.2880 F   0  0  0  0  0  0
   -3.9390    3.0370  -20.1470 F   0  0  0  0  0  0
    1.5990    5.9840  -22.8350 N   0  0  0  0  0  0
    3.8250    5.0770  -22.9040 N   0  0  0  0  0  0
    0.1280    2.5120  -24.6680 N   0  0  0  0  0  0
    4.2910    2.8870  -23.5430 N   0  0  0  0  0  0
    6.3290    1.1570  -22.4150 N   0  0  1  0  0  0
   -3.9940    3.7680  -27.7990 O   0  0  0  0  0  0
   -6.1897    3.5852  -21.1496 H   0  0  0  0  0  0
   -6.6605    3.9218  -23.5395 H   0  0  0  0  0  0
    5.4046    4.0331  -21.2080 H   0  0  0  0  0  0
    6.6658    3.0581  -20.3313 H   0  0  0  0  0  0
    6.1576    2.7762  -24.5792 H   0  0  0  0  0  0
    5.8892    4.3015  -23.6762 H   0  0  0  0  0  0
   -5.8493    4.0128  -25.8985 H   0  0  0  0  0  0
    2.0794    1.7890  -24.6421 H   0  0  0  0  0  0
    2.9454    1.3634  -22.7469 H   0  0  0  0  0  0
    4.1607    0.7411  -23.9274 H   0  0  0  0  0  0
    4.7031    0.0571  -21.5809 H   0  0  0  0  0  0
    7.5695    2.8986  -22.4954 H   0  0  0  0  0  0
    3.9013    2.5473  -20.7216 H   0  0  0  0  0  0
    5.1888    1.5462  -19.8415 H   0  0  0  0  0  0
   -1.7005    3.5620  -26.7974 H   0  0  0  0  0  0
    0.1956    2.1338  -20.7127 H   0  0  0  0  0  0
    6.9770    0.6587  -21.7092 H   0  0  0  0  0  0
   -3.1463    3.6908  -28.2209 H   0  0  0  0  0  0
    4.7180    7.1780  -21.3850 N   0  0  1  0  0  0
    7.6570    8.6240  -22.1640 N   0  0  0  0  0  0
    6.0260    9.8340  -22.9670 N   0  0  0  0  0  0
    8.1420    9.3110  -23.2300 N   0  0  0  0  0  0
    5.4040    8.4500  -20.9560 C   0  0  0  0  0  0
    3.4650    7.3700  -22.1990 C   0  0  0  0  0  0
    6.3520    8.9690  -22.0240 C   0  0  0  0  0  0
    8.4650    7.7010  -21.3570 C   0  0  0  0  0  0
    9.1990    8.4540  -20.2360 C   0  0  0  0  0  0
    7.1500   10.0190  -23.6870 C   0  0  0  0  0  0
    5.3924    6.5916  -21.9914 H   0  0  0  0  0  0
    5.9629    8.2680  -20.0262 H   0  0  0  0  0  0
    4.6472    9.2168  -20.7341 H   0  0  0  0  0  0
    3.6861    8.0093  -23.0664 H   0  0  0  0  0  0
    2.7051    7.8769  -21.5861 H   0  0  0  0  0  0
    9.2002    7.1978  -22.0022 H   0  0  0  0  0  0
    7.8126    6.9325  -20.9167 H   0  0  0  0  0  0
    9.7963    7.7436  -19.6457 H   0  0  0  0  0  0
    9.8622    9.2132  -20.6761 H   0  0  0  0  0  0
    8.4640    8.9460  -19.5820 H   0  0  0  0  0  0
    7.1450   10.6952  -24.5342 H   0  0  0  0  0  0
  1  2  2  0  0  0
  1  3  1  0  0  0
  1 34  1  0  0  0
  2  6  1  0  0  0
  2 35  1  0  0  0
  3  5  2  0  0  0
  3 27  1  0  0  0
  4  5  1  0  0  0
  4  6  2  0  0  0
  4 18  1  0  0  0
  5 24  1  0  0  0
  6 10  1  0  0  0
  7 10  2  0  0  0
  7 23  1  0  0  0
  7 33  1  0  0  0
  8 21  1  0  0  0
  8 22  1  0  0  0
  8 36  1  0  0  0
  8 37  1  0  0  0
  9 21  1  0  0  0
  9 31  1  0  0  0
  9 38  1  0  0  0
  9 39  1  0  0  0
 10 40  1  0  0  0
 11 12  1  0  0  0
 11 14  2  0  0  0
 11 15  1  0  0  0
 12 17  1  0  0  0
 12 28  2  0  0  0
 13 28  1  0  0  0
 13 29  2  0  0  0
 13 57  1  0  0  0
 14 29  1  0  0  0
 14 31  1  0  0  0
 15 30  2  0  0  0
 15 41  1  0  0  0
 16 17  2  0  0  0
 16 18  1  0  0  0
 16 30  1  0  0  0
 17 26  1  0  0  0
 18 23  2  0  0  0
 19 20  1  0  0  0
 19 31  1  0  0  0
 19 42  1  0  0  0
 19 43  1  0  0  0
 20 22  1  0  0  0
 20 32  1  0  0  0
 20 44  1  0  0  0
 21 32  1  0  0  0
 21 45  1  0  0  0
 22 46  1  0  0  0
 22 47  1  0  0  0
 23 48  1  0  0  0
 24 25  3  0  0  0
 25 49  1  0  0  0
 32 50  1  0  0  0
 33 51  1  0  0  0
 52 56  1  0  0  0
 52 57  1  0  0  0
 52 62  1  0  0  0
 53 55  1  0  0  0
 53 58  1  0  0  0
 53 59  1  0  0  0
 54 58  2  0  0  0
 54 61  1  0  0  0
 55 61  2  0  0  0
 56 58  1  0  0  0
 56 63  1  0  0  0
 56 64  1  0  0  0
 57 65  1  0  0  0
 57 66  1  0  0  0
 59 60  1  0  0  0
 59 67  1  0  0  0
 59 68  1  0  0  0
 60 69  1  0  0  0
 60 70  1  0  0  0
 60 71  1  0  0  0
 61 72  1  0  0  0
M  END
> <s_m_entry_id>
645

> <s_m_entry_name>
000000487.1

> <s_m_Source_Path>
/Users/zaksoul/Documents/3r_UNI/2nd_SEMESTER/BSC/FRAG_RECON/RESULTS/2

> <s_m_Source_File>
000000487.mol2

> <i_m_Source_File_Index>
1

$$$$
No_0_509
                    3D
 Schrodinger Suite 2022-4.
 72 78  0  0  1  0            999 V2000
   -5.3750    3.3950  -21.8750 C   0  0  0  0  0  0
   -5.6440    3.5990  -23.2080 C   0  0  0  0  0  0
   -4.1360    3.1430  -21.5380 C   0  0  0  0  0  0
   -3.2470    3.2980  -23.7030 C   0  0  0  0  0  0
   -3.0840    3.0380  -22.2850 C   0  0  0  0  0  0
   -4.5960    3.5620  -24.2190 C   0  0  0  0  0  0
   -3.8430    3.6130  -26.4180 C   0  0  0  0  0  0
    5.8940    2.8530  -21.1690 C   0  0  0  0  0  0
    5.7520    3.0250  -23.7170 C   0  0  0  0  0  0
   -4.8490    3.7040  -25.5530 C   0  0  0  0  0  0
    1.9650    3.5590  -23.7250 C   0  0  0  0  0  0
    1.1400    4.6610  -23.4120 C   0  0  0  0  0  0
    2.9350    5.8550  -22.7190 C   0  0  0  0  0  0
    3.3650    3.7510  -23.4100 C   0  0  0  0  0  0
    1.4230    2.4480  -24.3990 C   0  0  0  0  0  0
   -0.7080    3.2510  -24.2770 C   0  0  0  0  0  0
   -0.1850    4.4670  -23.6640 C   0  0  0  0  0  0
   -2.1610    3.2560  -24.6300 C   0  0  0  0  0  0
    3.9810    1.2520  -23.1490 C   0  0  0  0  0  0
    4.9170    0.8860  -22.0070 C   0  0  2  0  0  0
    6.5030    2.4390  -22.5270 C   0  0  2  0  0  0
    4.8960    1.8740  -20.8280 C   0  0  0  0  0  0
   -2.4880    3.4310  -26.0550 C   0  0  0  0  0  0
   -1.7380    2.6220  -21.6930 C   0  0  0  0  0  0
   -0.7050    2.2730  -21.1920 C   0  0  0  0  0  0
   -1.0300    5.5040  -23.3060 F   0  0  0  0  0  0
   -3.9230    2.8850  -20.1590 F   0  0  0  0  0  0
    1.6140    5.8150  -22.8670 N   0  0  0  0  0  0
    3.8350    4.8980  -22.9510 N   0  0  0  0  0  0
    0.1160    2.3570  -24.7040 N   0  0  0  0  0  0
    4.2870    2.7090  -23.6010 N   0  0  0  0  0  0
    6.3230    0.9650  -22.4900 N   0  0  1  0  0  0
   -4.0170    3.6440  -27.8070 O   0  0  0  0  0  0
   -6.1763    3.4472  -21.1469 H   0  0  0  0  0  0
   -6.6598    3.7939  -23.5325 H   0  0  0  0  0  0
    5.4186    3.8401  -21.2669 H   0  0  0  0  0  0
    6.6809    2.8570  -20.4003 H   0  0  0  0  0  0
    6.1475    2.5932  -24.6482 H   0  0  0  0  0  0
    5.8913    4.1160  -23.7372 H   0  0  0  0  0  0
   -5.8604    3.8896  -25.8961 H   0  0  0  0  0  0
    2.0646    1.6246  -24.6912 H   0  0  0  0  0  0
    2.9388    1.1874  -22.8030 H   0  0  0  0  0  0
    4.1445    0.5645  -23.9920 H   0  0  0  0  0  0
    4.6968   -0.1311  -21.6505 H   0  0  0  0  0  0
    7.5703    2.7013  -22.5714 H   0  0  0  0  0  0
    3.9108    2.3606  -20.7775 H   0  0  0  0  0  0
    5.1988    1.3501  -19.9094 H   0  0  0  0  0  0
   -1.7190    3.4240  -26.8190 H   0  0  0  0  0  0
    0.2038    1.9651  -20.7511 H   0  0  0  0  0  0
    6.9730    0.4615  -21.7898 H   0  0  0  0  0  0
   -3.1723    3.5639  -28.2343 H   0  0  0  0  0  0
    4.9090    7.0400  -21.7540 N   0  0  1  0  0  0
    7.4790    8.8040  -23.0270 N   0  0  0  0  0  0
    5.6290    9.9290  -23.3030 N   0  0  0  0  0  0
    7.6520    9.6220  -24.0970 N   0  0  0  0  0  0
    5.5910    8.3250  -21.3610 C   0  0  0  0  0  0
    3.4900    7.1910  -22.2350 C   0  0  0  0  0  0
    6.2240    9.0180  -22.5560 C   0  0  0  0  0  0
    8.5140    7.8890  -22.5290 C   0  0  0  0  0  0
    9.4400    8.6030  -21.5320 C   0  0  0  0  0  0
    6.5350   10.2760  -24.2370 C   0  0  0  0  0  0
    5.4577    6.5713  -22.5575 H   0  0  0  0  0  0
    6.3657    8.1131  -20.6093 H   0  0  0  0  0  0
    4.8596    8.9994  -20.8917 H   0  0  0  0  0  0
    3.4570    7.9200  -23.0580 H   0  0  0  0  0  0
    2.8639    7.5721  -21.4148 H   0  0  0  0  0  0
    9.1069    7.5110  -23.3749 H   0  0  0  0  0  0
    8.0361    7.0301  -22.0351 H   0  0  0  0  0  0
   10.2054    7.8996  -21.1723 H   0  0  0  0  0  0
    9.9301    9.4531  -22.0291 H   0  0  0  0  0  0
    8.8502    8.9679  -20.6782 H   0  0  0  0  0  0
    6.2862   11.0215  -24.9835 H   0  0  0  0  0  0
  1  2  2  0  0  0
  1  3  1  0  0  0
  1 34  1  0  0  0
  2  6  1  0  0  0
  2 35  1  0  0  0
  3  5  2  0  0  0
  3 27  1  0  0  0
  4  5  1  0  0  0
  4  6  2  0  0  0
  4 18  1  0  0  0
  5 24  1  0  0  0
  6 10  1  0  0  0
  7 10  2  0  0  0
  7 23  1  0  0  0
  7 33  1  0  0  0
  8 21  1  0  0  0
  8 22  1  0  0  0
  8 36  1  0  0  0
  8 37  1  0  0  0
  9 21  1  0  0  0
  9 31  1  0  0  0
  9 38  1  0  0  0
  9 39  1  0  0  0
 10 40  1  0  0  0
 11 12  1  0  0  0
 11 14  2  0  0  0
 11 15  1  0  0  0
 12 17  1  0  0  0
 12 28  2  0  0  0
 13 28  1  0  0  0
 13 29  2  0  0  0
 13 57  1  0  0  0
 14 29  1  0  0  0
 14 31  1  0  0  0
 15 30  2  0  0  0
 15 41  1  0  0  0
 16 17  2  0  0  0
 16 18  1  0  0  0
 16 30  1  0  0  0
 17 26  1  0  0  0
 18 23  2  0  0  0
 19 20  1  0  0  0
 19 31  1  0  0  0
 19 42  1  0  0  0
 19 43  1  0  0  0
 20 22  1  0  0  0
 20 32  1  0  0  0
 20 44  1  0  0  0
 21 32  1  0  0  0
 21 45  1  0  0  0
 22 46  1  0  0  0
 22 47  1  0  0  0
 23 48  1  0  0  0
 24 25  3  0  0  0
 25 49  1  0  0  0
 32 50  1  0  0  0
 33 51  1  0  0  0
 52 56  1  0  0  0
 52 57  1  0  0  0
 52 62  1  0  0  0
 53 55  1  0  0  0
 53 58  1  0  0  0
 53 59  1  0  0  0
 54 58  2  0  0  0
 54 61  1  0  0  0
 55 61  2  0  0  0
 56 58  1  0  0  0
 56 63  1  0  0  0
 56 64  1  0  0  0
 57 65  1  0  0  0
 57 66  1  0  0  0
 59 60  1  0  0  0
 59 67  1  0  0  0
 59 68  1  0  0  0
 60 69  1  0  0  0
 60 70  1  0  0  0
 60 71  1  0  0  0
 61 72  1  0  0  0
M  END
> <s_m_entry_id>
646

> <s_m_entry_name>
000000488.1

> <s_m_Source_Path>
/Users/zaksoul/Documents/3r_UNI/2nd_SEMESTER/BSC/FRAG_RECON/RESULTS/2

> <s_m_Source_File>
000000488.mol2

> <i_m_Source_File_Index>
1

$$$$
No_0_510
                    3D
 Schrodinger Suite 2022-4.
 69 75  0  0  1  0            999 V2000
   -5.3520    3.6230  -21.8960 C   0  0  0  0  0  0
   -5.6250    3.7890  -23.2330 C   0  0  0  0  0  0
   -4.1150    3.3550  -21.5600 C   0  0  0  0  0  0
   -3.2400    3.4210  -23.7350 C   0  0  0  0  0  0
   -3.0720    3.2030  -22.3110 C   0  0  0  0  0  0
   -4.5860    3.6970  -24.2500 C   0  0  0  0  0  0
   -3.8490    3.6600  -26.4540 C   0  0  0  0  0  0
    5.9080    2.8590  -21.2510 C   0  0  0  0  0  0
    5.7510    2.9520  -23.8020 C   0  0  0  0  0  0
   -4.8460    3.8010  -25.5860 C   0  0  0  0  0  0
    1.9770    3.5670  -23.8010 C   0  0  0  0  0  0
    1.1780    4.6960  -23.5180 C   0  0  0  0  0  0
    3.0030    5.8730  -22.8770 C   0  0  0  0  0  0
    3.3830    3.7390  -23.5030 C   0  0  0  0  0  0
    1.4050    2.4470  -24.4350 C   0  0  0  0  0  0
   -0.7060    3.3000  -24.3240 C   0  0  0  0  0  0
   -0.1530    4.5230  -23.7550 C   0  0  0  0  0  0
   -2.1620    3.3250  -24.6670 C   0  0  0  0  0  0
    3.9460    1.2370  -23.1640 C   0  0  0  0  0  0
    4.8830    0.8880  -22.0180 C   0  0  2  0  0  0
    6.4990    2.3890  -22.5980 C   0  0  2  0  0  0
    4.8920    1.9130  -20.8720 C   0  0  0  0  0  0
   -2.4960    3.4610  -26.0960 C   0  0  0  0  0  0
   -1.7300    2.7780  -21.7140 C   0  0  0  0  0  0
   -0.7020    2.4220  -21.2100 C   0  0  0  0  0  0
   -0.9730    5.5900  -23.4250 F   0  0  0  0  0  0
   -3.8980    3.1370  -20.1750 F   0  0  0  0  0  0
    1.6800    5.8570  -23.0140 N   0  0  0  0  0  0
    3.8800    4.8900  -23.0850 N   0  0  0  0  0  0
    0.0950    2.3740  -24.7280 N   0  0  0  0  0  0
    4.2810    2.6710  -23.6650 N   0  0  0  0  0  0
    6.2870    0.9200  -22.5130 N   0  0  1  0  0  0
   -4.0330    3.6500  -27.8430 O   0  0  0  0  0  0
   -6.1467    3.7154  -21.1646 H   0  0  0  0  0  0
   -6.6385    3.9957  -23.5571 H   0  0  0  0  0  0
    5.4539    3.8529  -21.3771 H   0  0  0  0  0  0
    6.7013    2.8711  -20.4890 H   0  0  0  0  0  0
    6.1304    2.4818  -24.7212 H   0  0  0  0  0  0
    5.9136    4.0385  -23.8585 H   0  0  0  0  0  0
   -5.8556    3.9977  -25.9282 H   0  0  0  0  0  0
    2.0270    1.6012  -24.7049 H   0  0  0  0  0  0
    2.9051    1.2067  -22.8096 H   0  0  0  0  0  0
    4.0893    0.5195  -23.9854 H   0  0  0  0  0  0
    4.6438   -0.1121  -21.6274 H   0  0  0  0  0  0
    7.5714    2.6263  -22.6586 H   0  0  0  0  0  0
    3.9181    2.4227  -20.8306 H   0  0  0  0  0  0
    5.1907    1.4135  -19.9386 H   0  0  0  0  0  0
   -1.7328    3.4118  -26.8642 H   0  0  0  0  0  0
    0.2033    2.1092  -20.7653 H   0  0  0  0  0  0
    6.9307    0.4250  -21.8009 H   0  0  0  0  0  0
   -3.1936    3.5381  -28.2736 H   0  0  0  0  0  0
    3.9380    7.2080  -20.9750 N   0  0  1  0  0  0
    7.1940    8.6270  -20.2830 N   0  0  0  0  0  0
    6.3990    8.5560  -22.2700 N   0  0  0  0  0  0
    7.7620    8.6450  -22.3470 N   0  0  0  0  0  0
    3.5900    7.2110  -22.4410 C   0  0  0  0  0  0
    6.0520    8.5440  -21.0200 C   0  0  0  0  0  0
    4.6380    8.4460  -20.4810 C   0  0  0  0  0  0
    8.2450    8.6900  -21.1450 C   0  0  0  0  0  0
    9.7070    8.7920  -20.7690 C   0  0  0  0  0  0
    3.0352    7.1120  -20.3901 H   0  0  0  0  0  0
    8.2249    8.6670  -23.2668 H   0  0  0  0  0  0
    4.4934    7.4241  -23.0313 H   0  0  0  0  0  0
    2.8643    8.0126  -22.6429 H   0  0  0  0  0  0
    4.6650    8.4380  -19.3814 H   0  0  0  0  0  0
    4.0681    9.3358  -20.7869 H   0  0  0  0  0  0
   10.3188    8.8240  -21.6826 H   0  0  0  0  0  0
    9.8730    9.7092  -20.1849 H   0  0  0  0  0  0
    9.9940    7.9171  -20.1671 H   0  0  0  0  0  0
  1  2  2  0  0  0
  1  3  1  0  0  0
  1 34  1  0  0  0
  2  6  1  0  0  0
  2 35  1  0  0  0
  3  5  2  0  0  0
  3 27  1  0  0  0
  4  5  1  0  0  0
  4  6  2  0  0  0
  4 18  1  0  0  0
  5 24  1  0  0  0
  6 10  1  0  0  0
  7 10  2  0  0  0
  7 23  1  0  0  0
  7 33  1  0  0  0
  8 21  1  0  0  0
  8 22  1  0  0  0
  8 36  1  0  0  0
  8 37  1  0  0  0
  9 21  1  0  0  0
  9 31  1  0  0  0
  9 38  1  0  0  0
  9 39  1  0  0  0
 10 40  1  0  0  0
 11 12  1  0  0  0
 11 14  2  0  0  0
 11 15  1  0  0  0
 12 17  1  0  0  0
 12 28  2  0  0  0
 13 28  1  0  0  0
 13 29  2  0  0  0
 13 56  1  0  0  0
 14 29  1  0  0  0
 14 31  1  0  0  0
 15 30  2  0  0  0
 15 41  1  0  0  0
 16 17  2  0  0  0
 16 18  1  0  0  0
 16 30  1  0  0  0
 17 26  1  0  0  0
 18 23  2  0  0  0
 19 20  1  0  0  0
 19 31  1  0  0  0
 19 42  1  0  0  0
 19 43  1  0  0  0
 20 22  1  0  0  0
 20 32  1  0  0  0
 20 44  1  0  0  0
 21 32  1  0  0  0
 21 45  1  0  0  0
 22 46  1  0  0  0
 22 47  1  0  0  0
 23 48  1  0  0  0
 24 25  3  0  0  0
 25 49  1  0  0  0
 32 50  1  0  0  0
 33 51  1  0  0  0
 52 56  1  0  0  0
 52 58  1  0  0  0
 52 61  1  0  0  0
 53 57  1  0  0  0
 53 59  2  0  0  0
 54 55  1  0  0  0
 54 57  2  0  0  0
 55 59  1  0  0  0
 55 62  1  0  0  0
 56 63  1  0  0  0
 56 64  1  0  0  0
 57 58  1  0  0  0
 58 65  1  0  0  0
 58 66  1  0  0  0
 59 60  1  0  0  0
 60 67  1  0  0  0
 60 68  1  0  0  0
 60 69  1  0  0  0
M  END
> <s_m_entry_id>
647

> <s_m_entry_name>
000000489.1

> <s_m_Source_Path>
/Users/zaksoul/Documents/3r_UNI/2nd_SEMESTER/BSC/FRAG_RECON/RESULTS/2

> <s_m_Source_File>
000000489.mol2

> <i_m_Source_File_Index>
1

$$$$
No_0_511
                    3D
 Schrodinger Suite 2022-4.
 69 75  0  0  1  0            999 V2000
   -5.0880    3.4430  -22.0040 C   0  0  0  0  0  0
   -5.3550    3.6210  -23.3400 C   0  0  0  0  0  0
   -3.8480    3.2020  -21.6610 C   0  0  0  0  0  0
   -2.9570    3.3210  -23.8270 C   0  0  0  0  0  0
   -2.7950    3.0870  -22.4040 C   0  0  0  0  0  0
   -4.3060    3.5700  -24.3500 C   0  0  0  0  0  0
   -3.5500    3.5830  -26.5480 C   0  0  0  0  0  0
    6.1820    2.9590  -21.2740 C   0  0  0  0  0  0
    6.0430    3.0840  -23.8250 C   0  0  0  0  0  0
   -4.5580    3.6860  -25.6860 C   0  0  0  0  0  0
    2.2550    3.6020  -23.8470 C   0  0  0  0  0  0
    1.4250    4.7060  -23.5550 C   0  0  0  0  0  0
    3.2130    5.9200  -22.8830 C   0  0  0  0  0  0
    3.6530    3.8060  -23.5350 C   0  0  0  0  0  0
    1.7170    2.4760  -24.5010 C   0  0  0  0  0  0
   -0.4160    3.2740  -24.3970 C   0  0  0  0  0  0
    0.1010    4.5020  -23.8050 C   0  0  0  0  0  0
   -1.8690    3.2660  -24.7510 C   0  0  0  0  0  0
    4.2780    1.3150  -23.2260 C   0  0  0  0  0  0
    5.2140    0.9740  -22.0770 C   0  0  2  0  0  0
    6.7950    2.5230  -22.6230 C   0  0  2  0  0  0
    5.1880    1.9830  -20.9160 C   0  0  0  0  0  0
   -2.1950    3.4140  -26.1810 C   0  0  0  0  0  0
   -1.4470    2.6880  -21.8030 C   0  0  0  0  0  0
   -0.4140    2.3520  -21.2940 C   0  0  0  0  0  0
   -0.7500    5.5430  -23.4680 F   0  0  0  0  0  0
   -3.6360    2.9700  -20.2770 F   0  0  0  0  0  0
    1.8930    5.8720  -23.0310 N   0  0  0  0  0  0
    4.1170    4.9630  -23.0960 N   0  0  0  0  0  0
    0.4120    2.3750  -24.8060 N   0  0  0  0  0  0
    4.5800    2.7640  -23.7040 N   0  0  0  0  0  0
    6.6210    1.0490  -22.5590 N   0  0  1  0  0  0
   -3.7230    3.5870  -27.9380 O   0  0  0  0  0  0
   -5.8904    3.5052  -21.2778 H   0  0  0  0  0  0
   -6.3708    3.8057  -23.6702 H   0  0  0  0  0  0
    5.7038    3.9427  -21.3910 H   0  0  0  0  0  0
    6.9682    2.9812  -20.5050 H   0  0  0  0  0  0
    6.4415    2.6360  -24.7472 H   0  0  0  0  0  0
    6.1782    4.1749  -23.8644 H   0  0  0  0  0  0
   -5.5696    3.8606  -26.0342 H   0  0  0  0  0  0
    2.3635    1.6508  -24.7771 H   0  0  0  0  0  0
    3.2354    1.2524  -22.8808 H   0  0  0  0  0  0
    4.4465    0.6126  -24.0556 H   0  0  0  0  0  0
    4.9980   -0.0372  -21.7016 H   0  0  0  0  0  0
    7.8614    2.7883  -22.6714 H   0  0  0  0  0  0
    4.2004    2.4657  -20.8766 H   0  0  0  0  0  0
    5.4918    1.4774  -19.9875 H   0  0  0  0  0  0
   -1.4246    3.3949  -26.9434 H   0  0  0  0  0  0
    0.4956    2.0558  -20.8467 H   0  0  0  0  0  0
    7.2720    0.5605  -21.8492 H   0  0  0  0  0  0
   -2.8772    3.5029  -28.3624 H   0  0  0  0  0  0
    4.4300    7.1590  -21.0770 N   0  0  1  0  0  0
    7.6190    8.8630  -20.9310 N   0  0  0  0  0  0
    6.4060    8.8980  -22.6950 N   0  0  0  0  0  0
    7.7030    9.1490  -23.0510 N   0  0  0  0  0  0
    3.7620    7.2670  -22.4230 C   0  0  0  0  0  0
    6.3530    8.7230  -21.4110 C   0  0  0  0  0  0
    5.1110    8.4130  -20.5980 C   0  0  0  0  0  0
    8.4390    9.1290  -21.9830 C   0  0  0  0  0  0
    9.9330    9.3590  -21.9200 C   0  0  0  0  0  0
    3.6951    6.9030  -20.3281 H   0  0  0  0  0  0
    7.9430    9.3140  -24.0390 H   0  0  0  0  0  0
    4.4867    7.6379  -23.1627 H   0  0  0  0  0  0
    2.9410    7.9970  -22.3670 H   0  0  0  0  0  0
    5.3860    8.2990  -19.5390 H   0  0  0  0  0  0
    4.4099    9.2581  -20.6640 H   0  0  0  0  0  0
   10.3190    9.5510  -22.9320 H   0  0  0  0  0  0
   10.1450   10.2268  -21.2781 H   0  0  0  0  0  0
   10.4248    8.4673  -21.5041 H   0  0  0  0  0  0
  1  2  2  0  0  0
  1  3  1  0  0  0
  1 34  1  0  0  0
  2  6  1  0  0  0
  2 35  1  0  0  0
  3  5  2  0  0  0
  3 27  1  0  0  0
  4  5  1  0  0  0
  4  6  2  0  0  0
  4 18  1  0  0  0
  5 24  1  0  0  0
  6 10  1  0  0  0
  7 10  2  0  0  0
  7 23  1  0  0  0
  7 33  1  0  0  0
  8 21  1  0  0  0
  8 22  1  0  0  0
  8 36  1  0  0  0
  8 37  1  0  0  0
  9 21  1  0  0  0
  9 31  1  0  0  0
  9 38  1  0  0  0
  9 39  1  0  0  0
 10 40  1  0  0  0
 11 12  1  0  0  0
 11 14  2  0  0  0
 11 15  1  0  0  0
 12 17  1  0  0  0
 12 28  2  0  0  0
 13 28  1  0  0  0
 13 29  2  0  0  0
 13 56  1  0  0  0
 14 29  1  0  0  0
 14 31  1  0  0  0
 15 30  2  0  0  0
 15 41  1  0  0  0
 16 17  2  0  0  0
 16 18  1  0  0  0
 16 30  1  0  0  0
 17 26  1  0  0  0
 18 23  2  0  0  0
 19 20  1  0  0  0
 19 31  1  0  0  0
 19 42  1  0  0  0
 19 43  1  0  0  0
 20 22  1  0  0  0
 20 32  1  0  0  0
 20 44  1  0  0  0
 21 32  1  0  0  0
 21 45  1  0  0  0
 22 46  1  0  0  0
 22 47  1  0  0  0
 23 48  1  0  0  0
 24 25  3  0  0  0
 25 49  1  0  0  0
 32 50  1  0  0  0
 33 51  1  0  0  0
 52 56  1  0  0  0
 52 58  1  0  0  0
 52 61  1  0  0  0
 53 57  1  0  0  0
 53 59  2  0  0  0
 54 55  1  0  0  0
 54 57  2  0  0  0
 55 59  1  0  0  0
 55 62  1  0  0  0
 56 63  1  0  0  0
 56 64  1  0  0  0
 57 58  1  0  0  0
 58 65  1  0  0  0
 58 66  1  0  0  0
 59 60  1  0  0  0
 60 67  1  0  0  0
 60 68  1  0  0  0
 60 69  1  0  0  0
M  END
> <s_m_entry_id>
648

> <s_m_entry_name>
000000490.1

> <s_m_Source_Path>
/Users/zaksoul/Documents/3r_UNI/2nd_SEMESTER/BSC/FRAG_RECON/RESULTS/2

> <s_m_Source_File>
000000490.mol2

> <i_m_Source_File_Index>
1

$$$$
No_0_512
                    3D
 Schrodinger Suite 2022-4.
 69 75  0  0  1  0            999 V2000
   -5.3920    3.3770  -22.2510 C   0  0  0  0  0  0
   -5.6430    3.5480  -23.5920 C   0  0  0  0  0  0
   -4.1560    3.1340  -21.8920 C   0  0  0  0  0  0
   -3.2400    3.2400  -24.0480 C   0  0  0  0  0  0
   -3.0950    3.0130  -22.6230 C   0  0  0  0  0  0
   -4.5820    3.4890  -24.5880 C   0  0  0  0  0  0
   -3.8010    3.4890  -26.7780 C   0  0  0  0  0  0
    5.8680    2.8680  -21.3870 C   0  0  0  0  0  0
    5.7590    2.9800  -23.9390 C   0  0  0  0  0  0
   -4.8180    3.6000  -25.9280 C   0  0  0  0  0  0
    1.9720    3.5070  -24.0090 C   0  0  0  0  0  0
    1.1420    4.6150  -23.7330 C   0  0  0  0  0  0
    2.9260    5.8280  -23.0450 C   0  0  0  0  0  0
    3.3680    3.7090  -23.6810 C   0  0  0  0  0  0
    1.4400    2.3800  -24.6630 C   0  0  0  0  0  0
   -0.6930    3.1830  -24.5880 C   0  0  0  0  0  0
   -0.1800    4.4130  -23.9970 C   0  0  0  0  0  0
   -2.1410    3.1770  -24.9600 C   0  0  0  0  0  0
    3.9830    1.2180  -23.3520 C   0  0  0  0  0  0
    4.9040    0.8810  -22.1900 C   0  0  2  0  0  0
    6.4960    2.4240  -22.7260 C   0  0  2  0  0  0
    4.8670    1.8960  -21.0360 C   0  0  0  0  0  0
   -2.4500    3.3180  -26.3930 C   0  0  0  0  0  0
   -1.7560    2.6140  -22.0040 C   0  0  0  0  0  0
   -0.7300    2.2780  -21.4810 C   0  0  0  0  0  0
   -1.0310    5.4580  -23.6750 F   0  0  0  0  0  0
   -3.9610    2.9090  -20.5050 F   0  0  0  0  0  0
    1.6070    5.7830  -23.2090 N   0  0  0  0  0  0
    3.8300    4.8680  -23.2430 N   0  0  0  0  0  0
    0.1380    2.2800  -24.9830 N   0  0  0  0  0  0
    4.2930    2.6640  -23.8350 N   0  0  0  0  0  0
    6.3160    0.9500  -22.6570 N   0  0  1  0  0  0
   -3.9570    3.4870  -28.1690 O   0  0  0  0  0  0
   -6.2027    3.4442  -21.5346 H   0  0  0  0  0  0
   -6.6544    3.7348  -23.9345 H   0  0  0  0  0  0
    5.3935    3.8522  -21.5142 H   0  0  0  0  0  0
    6.6446    2.8922  -20.6084 H   0  0  0  0  0  0
    6.1665    2.5271  -24.8549 H   0  0  0  0  0  0
    5.8973    4.0704  -23.9834 H   0  0  0  0  0  0
   -5.8251    3.7757  -26.2885 H   0  0  0  0  0  0
    2.0863    1.5511  -24.9279 H   0  0  0  0  0  0
    2.9362    1.1605  -23.0189 H   0  0  0  0  0  0
    4.1586    0.5115  -24.1766 H   0  0  0  0  0  0
    4.6810   -0.1279  -21.8127 H   0  0  0  0  0  0
    7.5635    2.6866  -22.7634 H   0  0  0  0  0  0
    3.8802    2.3813  -21.0098 H   0  0  0  0  0  0
    5.1584    1.3948  -20.1012 H   0  0  0  0  0  0
   -1.6712    3.2939  -27.1467 H   0  0  0  0  0  0
    0.1732    1.9813  -21.0214 H   0  0  0  0  0  0
    6.9572    0.4638  -21.9367 H   0  0  0  0  0  0
   -3.1067    3.3980  -28.5833 H   0  0  0  0  0  0
    6.4940    8.7410  -19.9240 O   0  0  0  0  0  0
    3.4500    7.2980  -21.0840 N   0  3  0  0  0  0
    6.0440    8.7220  -22.0070 N   0  0  0  0  0  0
    7.3890    8.8120  -21.8580 N   0  0  0  0  0  0
    3.4730    7.1760  -22.5860 C   0  0  0  0  0  0
    4.0370    8.5710  -20.5320 C   0  0  0  0  0  0
    5.5200    8.6800  -20.8280 C   0  0  0  0  0  0
    7.6420    8.8230  -20.5910 C   0  0  0  0  0  0
    9.0190    8.9170  -19.9700 C   0  0  0  0  0  0
    3.9269    6.5082  -20.6781 H   0  0  0  0  0  0
    2.5022    7.1979  -20.7557 H   0  0  0  0  0  0
    4.5050    7.2940  -22.9480 H   0  0  0  0  0  0
    2.8719    7.9842  -23.0281 H   0  0  0  0  0  0
    3.8770    8.6060  -19.4443 H   0  0  0  0  0  0
    3.5123    9.4345  -20.9668 H   0  0  0  0  0  0
    9.7771    8.9720  -20.7651 H   0  0  0  0  0  0
    9.0780    9.8194  -19.3437 H   0  0  0  0  0  0
    9.2030    8.0271  -19.3501 H   0  0  0  0  0  0
  1  2  2  0  0  0
  1  3  1  0  0  0
  1 34  1  0  0  0
  2  6  1  0  0  0
  2 35  1  0  0  0
  3  5  2  0  0  0
  3 27  1  0  0  0
  4  5  1  0  0  0
  4  6  2  0  0  0
  4 18  1  0  0  0
  5 24  1  0  0  0
  6 10  1  0  0  0
  7 10  2  0  0  0
  7 23  1  0  0  0
  7 33  1  0  0  0
  8 21  1  0  0  0
  8 22  1  0  0  0
  8 36  1  0  0  0
  8 37  1  0  0  0
  9 21  1  0  0  0
  9 31  1  0  0  0
  9 38  1  0  0  0
  9 39  1  0  0  0
 10 40  1  0  0  0
 11 12  1  0  0  0
 11 14  2  0  0  0
 11 15  1  0  0  0
 12 17  1  0  0  0
 12 28  2  0  0  0
 13 28  1  0  0  0
 13 29  2  0  0  0
 13 56  1  0  0  0
 14 29  1  0  0  0
 14 31  1  0  0  0
 15 30  2  0  0  0
 15 41  1  0  0  0
 16 17  2  0  0  0
 16 18  1  0  0  0
 16 30  1  0  0  0
 17 26  1  0  0  0
 18 23  2  0  0  0
 19 20  1  0  0  0
 19 31  1  0  0  0
 19 42  1  0  0  0
 19 43  1  0  0  0
 20 22  1  0  0  0
 20 32  1  0  0  0
 20 44  1  0  0  0
 21 32  1  0  0  0
 21 45  1  0  0  0
 22 46  1  0  0  0
 22 47  1  0  0  0
 23 48  1  0  0  0
 24 25  3  0  0  0
 25 49  1  0  0  0
 32 50  1  0  0  0
 33 51  1  0  0  0
 52 58  1  0  0  0
 52 59  1  0  0  0
 53 56  1  0  0  0
 53 57  1  0  0  0
 53 61  1  0  0  0
 53 62  1  0  0  0
 54 55  1  0  0  0
 54 58  2  0  0  0
 55 59  2  0  0  0
 56 63  1  0  0  0
 56 64  1  0  0  0
 57 58  1  0  0  0
 57 65  1  0  0  0
 57 66  1  0  0  0
 59 60  1  0  0  0
 60 67  1  0  0  0
 60 68  1  0  0  0
 60 69  1  0  0  0
M  CHG  1  53   1
M  END
> <s_m_entry_id>
649

> <s_m_entry_name>
000000491.1

> <s_m_Source_Path>
/Users/zaksoul/Documents/3r_UNI/2nd_SEMESTER/BSC/FRAG_RECON/RESULTS/2

> <s_m_Source_File>
000000491.mol2

> <i_m_Source_File_Index>
1

$$$$
No_0_513
                    3D
 Schrodinger Suite 2022-4.
 69 75  0  0  1  0            999 V2000
   -5.2840    3.6900  -21.8820 C   0  0  0  0  0  0
   -5.5600    3.8250  -23.2220 C   0  0  0  0  0  0
   -4.0440    3.4520  -21.5400 C   0  0  0  0  0  0
   -3.1680    3.4910  -23.7150 C   0  0  0  0  0  0
   -2.9970    3.3040  -22.2870 C   0  0  0  0  0  0
   -4.5190    3.7320  -24.2370 C   0  0  0  0  0  0
   -3.7790    3.6650  -26.4390 C   0  0  0  0  0  0
    5.9870    3.1460  -21.2170 C   0  0  0  0  0  0
    5.8300    3.1860  -23.7690 C   0  0  0  0  0  0
   -4.7800    3.8050  -25.5740 C   0  0  0  0  0  0
    2.0450    3.7320  -23.7820 C   0  0  0  0  0  0
    1.2260    4.8510  -23.5210 C   0  0  0  0  0  0
    3.0280    6.0740  -22.9030 C   0  0  0  0  0  0
    3.4480    3.9350  -23.4860 C   0  0  0  0  0  0
    1.4950    2.5890  -24.3930 C   0  0  0  0  0  0
   -0.6320    3.4050  -24.3010 C   0  0  0  0  0  0
   -0.1020    4.6490  -23.7550 C   0  0  0  0  0  0
   -2.0870    3.3970  -24.6450 C   0  0  0  0  0  0
    4.0570    1.4510  -23.0980 C   0  0  0  0  0  0
    4.9990    1.1420  -21.9450 C   0  0  2  0  0  0
    6.5870    2.6610  -22.5540 C   0  0  2  0  0  0
    4.9880    2.1900  -20.8190 C   0  0  0  0  0  0
   -2.4230    3.4990  -26.0760 C   0  0  0  0  0  0
   -1.6480    2.9150  -21.6820 C   0  0  0  0  0  0
   -0.6140    2.5890  -21.1690 C   0  0  0  0  0  0
   -0.9420    5.7070  -23.4470 F   0  0  0  0  0  0
   -3.8230    3.2650  -20.1500 F   0  0  0  0  0  0
    1.7060    6.0310  -23.0400 N   0  0  0  0  0  0
    3.9230    5.1030  -23.0900 N   0  0  0  0  0  0
    0.1870    2.4870  -24.6860 N   0  0  0  0  0  0
    4.3650    2.8810  -23.6270 N   0  0  0  0  0  0
    6.4020    1.1900  -22.4390 N   0  0  1  0  0  0
   -3.9620    3.6240  -27.8270 O   0  0  0  0  0  0
   -6.0806    3.7823  -21.1526 H   0  0  0  0  0  0
   -6.5770    4.0067  -23.5503 H   0  0  0  0  0  0
    5.5148    4.1288  -21.3623 H   0  0  0  0  0  0
    6.7782    3.1884  -20.4540 H   0  0  0  0  0  0
    6.2186    2.7045  -24.6785 H   0  0  0  0  0  0
    5.9723    4.2740  -23.8467 H   0  0  0  0  0  0
   -5.7928    3.9766  -25.9203 H   0  0  0  0  0  0
    2.1321    1.7492  -24.6458 H   0  0  0  0  0  0
    3.0165    1.4086  -22.7438 H   0  0  0  0  0  0
    4.2134    0.7204  -23.9053 H   0  0  0  0  0  0
    4.7780    0.1458  -21.5342 H   0  0  0  0  0  0
    7.6550    2.9164  -22.6186 H   0  0  0  0  0  0
    4.0045    2.6817  -20.7877 H   0  0  0  0  0  0
    5.2955    1.7141  -19.8762 H   0  0  0  0  0  0
   -1.6583    3.4488  -26.8427 H   0  0  0  0  0  0
    0.2965    2.3011  -20.7182 H   0  0  0  0  0  0
    7.0549    0.7212  -21.7176 H   0  0  0  0  0  0
   -3.1201    3.5191  -28.2544 H   0  0  0  0  0  0
    7.0820    9.0680  -20.5450 O   0  0  0  0  0  0
    3.9370    7.4650  -21.0260 N   0  3  0  0  0  0
    6.1260    9.1350  -22.4500 N   0  0  0  0  0  0
    7.4580    9.3190  -22.6290 N   0  0  0  0  0  0
    3.5900    7.4310  -22.4930 C   0  0  0  0  0  0
    4.5650    8.7450  -20.5410 C   0  0  0  0  0  0
    5.9170    8.9850  -21.1840 C   0  0  0  0  0  0
    8.0190    9.2770  -21.4660 C   0  0  0  0  0  0
    9.4990    9.4410  -21.1980 C   0  0  0  0  0  0
    4.5477    6.6924  -20.8111 H   0  0  0  0  0  0
    3.1094    7.2729  -20.4836 H   0  0  0  0  0  0
    4.4899    7.6490  -23.0869 H   0  0  0  0  0  0
    2.8501    8.2149  -22.7120 H   0  0  0  0  0  0
    4.6810    8.7050  -19.4479 H   0  0  0  0  0  0
    3.8972    9.5888  -20.7689 H   0  0  0  0  0  0
   10.0293    9.6001  -22.1485 H   0  0  0  0  0  0
    9.6589   10.3074  -20.5394 H   0  0  0  0  0  0
    9.8859    8.5342  -20.7101 H   0  0  0  0  0  0
  1  2  2  0  0  0
  1  3  1  0  0  0
  1 34  1  0  0  0
  2  6  1  0  0  0
  2 35  1  0  0  0
  3  5  2  0  0  0
  3 27  1  0  0  0
  4  5  1  0  0  0
  4  6  2  0  0  0
  4 18  1  0  0  0
  5 24  1  0  0  0
  6 10  1  0  0  0
  7 10  2  0  0  0
  7 23  1  0  0  0
  7 33  1  0  0  0
  8 21  1  0  0  0
  8 22  1  0  0  0
  8 36  1  0  0  0
  8 37  1  0  0  0
  9 21  1  0  0  0
  9 31  1  0  0  0
  9 38  1  0  0  0
  9 39  1  0  0  0
 10 40  1  0  0  0
 11 12  1  0  0  0
 11 14  2  0  0  0
 11 15  1  0  0  0
 12 17  1  0  0  0
 12 28  2  0  0  0
 13 28  1  0  0  0
 13 29  2  0  0  0
 13 56  1  0  0  0
 14 29  1  0  0  0
 14 31  1  0  0  0
 15 30  2  0  0  0
 15 41  1  0  0  0
 16 17  2  0  0  0
 16 18  1  0  0  0
 16 30  1  0  0  0
 17 26  1  0  0  0
 18 23  2  0  0  0
 19 20  1  0  0  0
 19 31  1  0  0  0
 19 42  1  0  0  0
 19 43  1  0  0  0
 20 22  1  0  0  0
 20 32  1  0  0  0
 20 44  1  0  0  0
 21 32  1  0  0  0
 21 45  1  0  0  0
 22 46  1  0  0  0
 22 47  1  0  0  0
 23 48  1  0  0  0
 24 25  3  0  0  0
 25 49  1  0  0  0
 32 50  1  0  0  0
 33 51  1  0  0  0
 52 58  1  0  0  0
 52 59  1  0  0  0
 53 56  1  0  0  0
 53 57  1  0  0  0
 53 61  1  0  0  0
 53 62  1  0  0  0
 54 55  1  0  0  0
 54 58  2  0  0  0
 55 59  2  0  0  0
 56 63  1  0  0  0
 56 64  1  0  0  0
 57 58  1  0  0  0
 57 65  1  0  0  0
 57 66  1  0  0  0
 59 60  1  0  0  0
 60 67  1  0  0  0
 60 68  1  0  0  0
 60 69  1  0  0  0
M  CHG  1  53   1
M  END
> <s_m_entry_id>
650

> <s_m_entry_name>
000000492.1

> <s_m_Source_Path>
/Users/zaksoul/Documents/3r_UNI/2nd_SEMESTER/BSC/FRAG_RECON/RESULTS/2

> <s_m_Source_File>
000000492.mol2

> <i_m_Source_File_Index>
1

$$$$
No_0_514
                    3D
 Schrodinger Suite 2022-4.
 75 80  0  0  1  0            999 V2000
   -5.3970    3.2560  -21.8350 C   0  0  0  0  0  0
   -5.6550    3.4600  -23.1700 C   0  0  0  0  0  0
   -4.1580    3.0150  -21.4880 C   0  0  0  0  0  0
   -3.2510    3.1850  -23.6450 C   0  0  0  0  0  0
   -3.0980    2.9220  -22.2270 C   0  0  0  0  0  0
   -4.5980    3.4370  -24.1730 C   0  0  0  0  0  0
   -3.8270    3.5010  -26.3640 C   0  0  0  0  0  0
    5.8710    2.8240  -21.0330 C   0  0  0  0  0  0
    5.7500    3.0020  -23.5810 C   0  0  0  0  0  0
   -4.8410    3.5800  -25.5080 C   0  0  0  0  0  0
    1.9580    3.4980  -23.6200 C   0  0  0  0  0  0
    1.1190    4.5900  -23.3120 C   0  0  0  0  0  0
    2.8950    5.8010  -22.6000 C   0  0  0  0  0  0
    3.3530    3.7030  -23.2930 C   0  0  0  0  0  0
    1.4330    2.3830  -24.3020 C   0  0  0  0  0  0
   -0.7070    3.1650  -24.1970 C   0  0  0  0  0  0
   -0.2020    4.3840  -23.5760 C   0  0  0  0  0  0
   -2.1570    3.1560  -24.5620 C   0  0  0  0  0  0
    3.9910    1.2100  -23.0330 C   0  0  0  0  0  0
    4.9210    0.8510  -21.8840 C   0  0  2  0  0  0
    6.4960    2.4210  -22.3860 C   0  0  2  0  0  0
    4.8800    1.8340  -20.7030 C   0  0  0  0  0  0
   -2.4730    3.3320  -25.9900 C   0  0  0  0  0  0
   -1.7530    2.5190  -21.6240 C   0  0  0  0  0  0
   -0.7210    2.1780  -21.1150 C   0  0  0  0  0  0
   -1.0610    5.4120  -23.2230 F   0  0  0  0  0  0
   -3.9540    2.7550  -20.1080 F   0  0  0  0  0  0
    1.5760    5.7480  -22.7590 N   0  0  0  0  0  0
    3.8070    4.8540  -22.8270 N   0  0  0  0  0  0
    0.1300    2.2800  -24.6190 N   0  0  0  0  0  0
    4.2870    2.6710  -23.4780 N   0  0  0  0  0  0
    6.3300    0.9440  -22.3550 N   0  0  1  0  0  0
   -3.9890    3.5340  -27.7550 O   0  0  0  0  0  0
   -6.2054    3.2972  -21.1140 H   0  0  0  0  0  0
   -6.6697    3.6457  -23.5032 H   0  0  0  0  0  0
    5.3867    3.8067  -21.1319 H   0  0  0  0  0  0
    6.6508    2.8341  -20.2572 H   0  0  0  0  0  0
    6.1579    2.5769  -24.5099 H   0  0  0  0  0  0
    5.8781    4.0944  -23.5971 H   0  0  0  0  0  0
   -5.8512    3.7566  -25.8591 H   0  0  0  0  0  0
    2.0854    1.5670  -24.5911 H   0  0  0  0  0  0
    2.9463    1.1343  -22.6969 H   0  0  0  0  0  0
    4.1696    0.5269  -23.8765 H   0  0  0  0  0  0
    4.7080   -0.1694  -21.5328 H   0  0  0  0  0  0
    7.5612    2.6934  -22.4203 H   0  0  0  0  0  0
    3.8895    2.3106  -20.6596 H   0  0  0  0  0  0
    5.1809    1.3110  -19.7832 H   0  0  0  0  0  0
   -1.6980    3.3340  -26.7479 H   0  0  0  0  0  0
    0.1870    1.8780  -20.6670 H   0  0  0  0  0  0
    6.9788    0.4448  -21.6506 H   0  0  0  0  0  0
   -3.1397    3.4637  -28.1747 H   0  0  0  0  0  0
    6.7070    8.5430  -23.0180 N   0  3  0  0  0  0
    4.7690    9.6210  -22.0270 N   0  0  0  0  0  0
    4.8090    7.3320  -22.5540 N   0  0  0  0  0  0
    5.4350    8.5390  -22.5280 C   0  0  0  0  0  0
    5.0430   11.0100  -22.3880 C   0  0  0  0  0  0
    7.7150    9.5580  -22.7240 C   0  0  0  0  0  0
    3.4330    7.1410  -22.1080 C   0  0  0  0  0  0
    7.9460    9.6660  -21.2060 C   0  0  0  0  0  0
    4.9580   11.2080  -23.9120 C   0  0  0  0  0  0
    7.0200    7.7890  -23.6460 H   0  0  0  0  0  0
    4.0118    9.4870  -21.3418 H   0  0  0  0  0  0
    5.3088    6.5004  -22.8998 H   0  0  0  0  0  0
    6.0481   11.2880  -22.0380 H   0  0  0  0  0  0
    4.3141   11.6679  -21.8921 H   0  0  0  0  0  0
    7.3808   10.5306  -23.1143 H   0  0  0  0  0  0
    8.6597    9.2901  -23.2198 H   0  0  0  0  0  0
    2.8041    7.9539  -22.5000 H   0  0  0  0  0  0
    3.3960    7.1690  -21.0090 H   0  0  0  0  0  0
    8.7071   10.4341  -21.0040 H   0  0  0  0  0  0
    7.0045    9.9449  -20.7102 H   0  0  0  0  0  0
    8.2908    8.6965  -20.8172 H   0  0  0  0  0  0
    5.1671   12.2595  -24.1581 H   0  0  0  0  0  0
    5.6972   10.5619  -24.4081 H   0  0  0  0  0  0
    3.9484   10.9451  -24.2608 H   0  0  0  0  0  0
  1  2  2  0  0  0
  1  3  1  0  0  0
  1 34  1  0  0  0
  2  6  1  0  0  0
  2 35  1  0  0  0
  3  5  2  0  0  0
  3 27  1  0  0  0
  4  5  1  0  0  0
  4  6  2  0  0  0
  4 18  1  0  0  0
  5 24  1  0  0  0
  6 10  1  0  0  0
  7 10  2  0  0  0
  7 23  1  0  0  0
  7 33  1  0  0  0
  8 21  1  0  0  0
  8 22  1  0  0  0
  8 36  1  0  0  0
  8 37  1  0  0  0
  9 21  1  0  0  0
  9 31  1  0  0  0
  9 38  1  0  0  0
  9 39  1  0  0  0
 10 40  1  0  0  0
 11 12  1  0  0  0
 11 14  2  0  0  0
 11 15  1  0  0  0
 12 17  1  0  0  0
 12 28  2  0  0  0
 13 28  1  0  0  0
 13 29  2  0  0  0
 13 58  1  0  0  0
 14 29  1  0  0  0
 14 31  1  0  0  0
 15 30  2  0  0  0
 15 41  1  0  0  0
 16 17  2  0  0  0
 16 18  1  0  0  0
 16 30  1  0  0  0
 17 26  1  0  0  0
 18 23  2  0  0  0
 19 20  1  0  0  0
 19 31  1  0  0  0
 19 42  1  0  0  0
 19 43  1  0  0  0
 20 22  1  0  0  0
 20 32  1  0  0  0
 20 44  1  0  0  0
 21 32  1  0  0  0
 21 45  1  0  0  0
 22 46  1  0  0  0
 22 47  1  0  0  0
 23 48  1  0  0  0
 24 25  3  0  0  0
 25 49  1  0  0  0
 32 50  1  0  0  0
 33 51  1  0  0  0
 52 55  2  0  0  0
 52 57  1  0  0  0
 52 61  1  0  0  0
 53 55  1  0  0  0
 53 56  1  0  0  0
 53 62  1  0  0  0
 54 55  1  0  0  0
 54 58  1  0  0  0
 54 63  1  0  0  0
 56 60  1  0  0  0
 56 64  1  0  0  0
 56 65  1  0  0  0
 57 59  1  0  0  0
 57 66  1  0  0  0
 57 67  1  0  0  0
 58 68  1  0  0  0
 58 69  1  0  0  0
 59 70  1  0  0  0
 59 71  1  0  0  0
 59 72  1  0  0  0
 60 73  1  0  0  0
 60 74  1  0  0  0
 60 75  1  0  0  0
M  CHG  1  52   1
M  END
> <s_m_entry_id>
651

> <s_m_entry_name>
000000493.1

> <s_m_Source_Path>
/Users/zaksoul/Documents/3r_UNI/2nd_SEMESTER/BSC/FRAG_RECON/RESULTS/2

> <s_m_Source_File>
000000493.mol2

> <i_m_Source_File_Index>
1

$$$$
No_0_515
                    3D
 Schrodinger Suite 2022-4.
 65 71  0  0  1  0            999 V2000
   -4.9170    3.6370  -22.0290 C   0  0  0  0  0  0
   -5.1830    3.8170  -23.3660 C   0  0  0  0  0  0
   -3.6840    3.3600  -21.6880 C   0  0  0  0  0  0
   -2.7960    3.4430  -23.8580 C   0  0  0  0  0  0
   -2.6370    3.2100  -22.4350 C   0  0  0  0  0  0
   -4.1390    3.7300  -24.3780 C   0  0  0  0  0  0
   -3.3900    3.7100  -26.5780 C   0  0  0  0  0  0
    6.3350    2.8160  -21.3300 C   0  0  0  0  0  0
    6.1920    2.9340  -23.8810 C   0  0  0  0  0  0
   -4.3910    3.8480  -25.7140 C   0  0  0  0  0  0
    2.4210    3.5660  -23.8940 C   0  0  0  0  0  0
    1.6260    4.6960  -23.6050 C   0  0  0  0  0  0
    3.4520    5.8580  -22.9430 C   0  0  0  0  0  0
    3.8260    3.7290  -23.5870 C   0  0  0  0  0  0
    1.8480    2.4540  -24.5420 C   0  0  0  0  0  0
   -0.2600    3.3160  -24.4350 C   0  0  0  0  0  0
    0.2950    4.5310  -23.8510 C   0  0  0  0  0  0
   -1.7140    3.3510  -24.7850 C   0  0  0  0  0  0
    4.3770    1.2210  -23.2690 C   0  0  0  0  0  0
    5.3050    0.8570  -22.1210 C   0  0  2  0  0  0
    6.9310    2.3560  -22.6790 C   0  0  2  0  0  0
    5.3130    1.8710  -20.9650 C   0  0  0  0  0  0
   -2.0400    3.5020  -26.2140 C   0  0  0  0  0  0
   -1.3010    2.7740  -21.8350 C   0  0  0  0  0  0
   -0.2770    2.4080  -21.3280 C   0  0  0  0  0  0
   -0.5220    5.5980  -23.5150 F   0  0  0  0  0  0
   -3.4750    3.1280  -20.3040 F   0  0  0  0  0  0
    2.1300    5.8500  -23.0880 N   0  0  0  0  0  0
    4.3260    4.8730  -23.1550 N   0  0  0  0  0  0
    0.5390    2.3910  -24.8430 N   0  0  0  0  0  0
    4.7200    2.6590  -23.7550 N   0  0  0  0  0  0
    6.7120    0.8880  -22.6080 N   0  0  1  0  0  0
   -3.5660    3.7140  -27.9680 O   0  0  0  0  0  0
   -5.7157    3.7263  -21.3016 H   0  0  0  0  0  0
   -6.1939    4.0318  -23.6932 H   0  0  0  0  0  0
    5.8860    3.8130  -21.4501 H   0  0  0  0  0  0
    7.1233    2.8170  -20.5629 H   0  0  0  0  0  0
    6.5744    2.4699  -24.8021 H   0  0  0  0  0  0
    6.3596    4.0202  -23.9264 H   0  0  0  0  0  0
   -5.3982    4.0517  -26.0591 H   0  0  0  0  0  0
    2.4674    1.6077  -24.8161 H   0  0  0  0  0  0
    3.3342    1.1918  -22.9201 H   0  0  0  0  0  0
    4.5203    0.5106  -24.0965 H   0  0  0  0  0  0
    5.0597   -0.1455  -21.7404 H   0  0  0  0  0  0
    8.0049    2.5881  -22.7315 H   0  0  0  0  0  0
    4.3411    2.3847  -20.9246 H   0  0  0  0  0  0
    5.6048    1.3611  -20.0350 H   0  0  0  0  0  0
   -1.2732    3.4568  -26.9788 H   0  0  0  0  0  0
    0.6248    2.0871  -20.8821 H   0  0  0  0  0  0
    7.3504    0.3833  -21.8980 H   0  0  0  0  0  0
   -2.7246    3.6021  -28.3946 H   0  0  0  0  0  0
    5.2850    7.1380  -21.9820 O   0  0  0  0  0  0
    3.3980    8.2090  -22.6250 O   0  0  0  0  0  0
    6.8360    8.7630  -19.8400 N   0  3  0  0  0  0
    5.4360    8.9980  -20.3100 C   0  0  0  0  0  0
    7.3550    8.1670  -21.1090 C   0  0  0  0  0  0
    5.9210    8.3870  -21.6470 C   0  0  0  0  0  0
    4.0370    7.1770  -22.4960 C   0  0  0  0  0  0
    6.8230    8.0488  -19.1288 H   0  0  0  0  0  0
    7.2833    9.6546  -19.6949 H   0  0  0  0  0  0
    5.3340   10.0808  -20.4750 H   0  0  0  0  0  0
    4.8058    8.2387  -19.8238 H   0  0  0  0  0  0
    7.4660    7.0872  -20.9310 H   0  0  0  0  0  0
    7.9918    8.9298  -21.5809 H   0  0  0  0  0  0
    5.8900    9.1102  -22.4752 H   0  0  0  0  0  0
  1  2  2  0  0  0
  1  3  1  0  0  0
  1 34  1  0  0  0
  2  6  1  0  0  0
  2 35  1  0  0  0
  3  5  2  0  0  0
  3 27  1  0  0  0
  4  5  1  0  0  0
  4  6  2  0  0  0
  4 18  1  0  0  0
  5 24  1  0  0  0
  6 10  1  0  0  0
  7 10  2  0  0  0
  7 23  1  0  0  0
  7 33  1  0  0  0
  8 21  1  0  0  0
  8 22  1  0  0  0
  8 36  1  0  0  0
  8 37  1  0  0  0
  9 21  1  0  0  0
  9 31  1  0  0  0
  9 38  1  0  0  0
  9 39  1  0  0  0
 10 40  1  0  0  0
 11 12  1  0  0  0
 11 14  2  0  0  0
 11 15  1  0  0  0
 12 17  1  0  0  0
 12 28  2  0  0  0
 13 28  1  0  0  0
 13 29  2  0  0  0
 13 58  1  0  0  0
 14 29  1  0  0  0
 14 31  1  0  0  0
 15 30  2  0  0  0
 15 41  1  0  0  0
 16 17  2  0  0  0
 16 18  1  0  0  0
 16 30  1  0  0  0
 17 26  1  0  0  0
 18 23  2  0  0  0
 19 20  1  0  0  0
 19 31  1  0  0  0
 19 42  1  0  0  0
 19 43  1  0  0  0
 20 22  1  0  0  0
 20 32  1  0  0  0
 20 44  1  0  0  0
 21 32  1  0  0  0
 21 45  1  0  0  0
 22 46  1  0  0  0
 22 47  1  0  0  0
 23 48  1  0  0  0
 24 25  3  0  0  0
 25 49  1  0  0  0
 32 50  1  0  0  0
 33 51  1  0  0  0
 52 57  1  0  0  0
 52 58  1  0  0  0
 53 58  2  0  0  0
 54 55  1  0  0  0
 54 56  1  0  0  0
 54 59  1  0  0  0
 54 60  1  0  0  0
 55 57  1  0  0  0
 55 61  1  0  0  0
 55 62  1  0  0  0
 56 57  1  0  0  0
 56 63  1  0  0  0
 56 64  1  0  0  0
 57 65  1  0  0  0
M  CHG  1  54   1
M  END
> <s_m_entry_id>
652

> <s_m_entry_name>
000000494.1

> <s_m_Source_Path>
/Users/zaksoul/Documents/3r_UNI/2nd_SEMESTER/BSC/FRAG_RECON/RESULTS/2

> <s_m_Source_File>
000000494.mol2

> <i_m_Source_File_Index>
1

$$$$
No_0_516
                    3D
 Schrodinger Suite 2022-4.
 65 71  0  0  1  0            999 V2000
   -4.9860    3.5580  -21.8570 C   0  0  0  0  0  0
   -5.2690    3.7660  -23.1860 C   0  0  0  0  0  0
   -3.7450    3.2970  -21.5350 C   0  0  0  0  0  0
   -2.8800    3.4530  -23.7090 C   0  0  0  0  0  0
   -2.7020    3.1870  -22.2950 C   0  0  0  0  0  0
   -4.2330    3.7260  -24.2100 C   0  0  0  0  0  0
   -3.5060    3.7780  -26.4170 C   0  0  0  0  0  0
    6.2870    2.9460  -21.2850 C   0  0  0  0  0  0
    6.1170    3.1260  -23.8300 C   0  0  0  0  0  0
   -4.5010    3.8730  -25.5400 C   0  0  0  0  0  0
    2.3330    3.6820  -23.7920 C   0  0  0  0  0  0
    1.5190    4.7880  -23.4660 C   0  0  0  0  0  0
    3.3280    5.9700  -22.7920 C   0  0  0  0  0  0
    3.7380    3.8650  -23.4930 C   0  0  0  0  0  0
    1.7760    2.5760  -24.4620 C   0  0  0  0  0  0
   -0.3480    3.3920  -24.3130 C   0  0  0  0  0  0
    0.1890    4.6030  -23.7030 C   0  0  0  0  0  0
   -1.8050    3.4070  -24.6490 C   0  0  0  0  0  0
    4.3410    1.3620  -23.2450 C   0  0  0  0  0  0
    5.2880    0.9880  -22.1160 C   0  0  2  0  0  0
    6.8780    2.5330  -22.6500 C   0  0  2  0  0  0
    5.2870    1.9720  -20.9340 C   0  0  0  0  0  0
   -2.1480    3.5880  -26.0710 C   0  0  0  0  0  0
   -1.3510    2.7630  -21.7190 C   0  0  0  0  0  0
   -0.3150    2.4050  -21.2310 C   0  0  0  0  0  0
   -0.6460    5.6440  -23.3330 F   0  0  0  0  0  0
   -3.5170    3.0340  -20.1590 F   0  0  0  0  0  0
    2.0050    5.9380  -22.9240 N   0  0  0  0  0  0
    4.2190    5.0090  -23.0370 N   0  0  0  0  0  0
    0.4660    2.4940  -24.7520 N   0  0  0  0  0  0
    4.6510    2.8180  -23.6970 N   0  0  0  0  0  0
    6.6890    1.0590  -22.6150 N   0  0  1  0  0  0
   -3.6960    3.8130  -27.8040 O   0  0  0  0  0  0
   -5.7786    3.6122  -21.1195 H   0  0  0  0  0  0
   -6.2871    3.9688  -23.4982 H   0  0  0  0  0  0
    5.8169    3.9365  -21.3738 H   0  0  0  0  0  0
    7.0823    2.9440  -20.5250 H   0  0  0  0  0  0
    6.4986    2.6939  -24.7668 H   0  0  0  0  0  0
    6.2614    4.2163  -23.8482 H   0  0  0  0  0  0
   -5.5153    4.0658  -25.8704 H   0  0  0  0  0  0
    2.4094    1.7498  -24.7642 H   0  0  0  0  0  0
    3.3023    1.3035  -22.8877 H   0  0  0  0  0  0
    4.4913    0.6759  -24.0915 H   0  0  0  0  0  0
    5.0661   -0.0288  -21.7599 H   0  0  0  0  0  0
    7.9465    2.7883  -22.7065 H   0  0  0  0  0  0
    4.3053    2.4643  -20.8714 H   0  0  0  0  0  0
    5.5979    1.4441  -20.0204 H   0  0  0  0  0  0
   -1.3881    3.5770  -26.8440 H   0  0  0  0  0  0
    0.5973    2.0909  -20.8019 H   0  0  0  0  0  0
    7.3443    0.5491  -21.9244 H   0  0  0  0  0  0
   -2.8568    3.7299  -28.2414 H   0  0  0  0  0  0
    5.2240    7.3340  -22.1110 O   0  0  0  0  0  0
    3.1560    8.2490  -22.1540 O   0  0  0  0  0  0
    7.1050    8.8750  -20.1810 N   0  3  0  0  0  0
    5.6170    9.0010  -20.2820 C   0  0  0  0  0  0
    7.3510    8.4870  -21.6030 C   0  0  0  0  0  0
    5.8160    8.6020  -21.7640 C   0  0  0  0  0  0
    3.8910    7.2880  -22.3160 C   0  0  0  0  0  0
    7.3230    8.0889  -19.5889 H   0  0  0  0  0  0
    7.4970    9.7901  -20.0230 H   0  0  0  0  0  0
    5.3880   10.0769  -20.2720 H   0  0  0  0  0  0
    5.1888    8.1256  -19.7718 H   0  0  0  0  0  0
    7.5911    7.4135  -21.6030 H   0  0  0  0  0  0
    7.7880    9.3651  -22.1010 H   0  0  0  0  0  0
    5.5249    9.4042  -22.4581 H   0  0  0  0  0  0
  1  2  2  0  0  0
  1  3  1  0  0  0
  1 34  1  0  0  0
  2  6  1  0  0  0
  2 35  1  0  0  0
  3  5  2  0  0  0
  3 27  1  0  0  0
  4  5  1  0  0  0
  4  6  2  0  0  0
  4 18  1  0  0  0
  5 24  1  0  0  0
  6 10  1  0  0  0
  7 10  2  0  0  0
  7 23  1  0  0  0
  7 33  1  0  0  0
  8 21  1  0  0  0
  8 22  1  0  0  0
  8 36  1  0  0  0
  8 37  1  0  0  0
  9 21  1  0  0  0
  9 31  1  0  0  0
  9 38  1  0  0  0
  9 39  1  0  0  0
 10 40  1  0  0  0
 11 12  1  0  0  0
 11 14  2  0  0  0
 11 15  1  0  0  0
 12 17  1  0  0  0
 12 28  2  0  0  0
 13 28  1  0  0  0
 13 29  2  0  0  0
 13 58  1  0  0  0
 14 29  1  0  0  0
 14 31  1  0  0  0
 15 30  2  0  0  0
 15 41  1  0  0  0
 16 17  2  0  0  0
 16 18  1  0  0  0
 16 30  1  0  0  0
 17 26  1  0  0  0
 18 23  2  0  0  0
 19 20  1  0  0  0
 19 31  1  0  0  0
 19 42  1  0  0  0
 19 43  1  0  0  0
 20 22  1  0  0  0
 20 32  1  0  0  0
 20 44  1  0  0  0
 21 32  1  0  0  0
 21 45  1  0  0  0
 22 46  1  0  0  0
 22 47  1  0  0  0
 23 48  1  0  0  0
 24 25  3  0  0  0
 25 49  1  0  0  0
 32 50  1  0  0  0
 33 51  1  0  0  0
 52 57  1  0  0  0
 52 58  1  0  0  0
 53 58  2  0  0  0
 54 55  1  0  0  0
 54 56  1  0  0  0
 54 59  1  0  0  0
 54 60  1  0  0  0
 55 57  1  0  0  0
 55 61  1  0  0  0
 55 62  1  0  0  0
 56 57  1  0  0  0
 56 63  1  0  0  0
 56 64  1  0  0  0
 57 65  1  0  0  0
M  CHG  1  54   1
M  END
> <s_m_entry_id>
653

> <s_m_entry_name>
000000495.1

> <s_m_Source_Path>
/Users/zaksoul/Documents/3r_UNI/2nd_SEMESTER/BSC/FRAG_RECON/RESULTS/2

> <s_m_Source_File>
000000495.mol2

> <i_m_Source_File_Index>
1

$$$$
No_0_517
                    3D
 Schrodinger Suite 2022-4.
 65 71  0  0  1  0            999 V2000
   -4.8960    3.6490  -21.9150 C   0  0  0  0  0  0
   -5.1790    3.8530  -23.2450 C   0  0  0  0  0  0
   -3.6540    3.3920  -21.5930 C   0  0  0  0  0  0
   -2.7890    3.5420  -23.7680 C   0  0  0  0  0  0
   -2.6110    3.2810  -22.3530 C   0  0  0  0  0  0
   -4.1430    3.8120  -24.2690 C   0  0  0  0  0  0
   -3.4160    3.8580  -26.4760 C   0  0  0  0  0  0
    6.3780    3.0580  -21.3420 C   0  0  0  0  0  0
    6.2080    3.2300  -23.8880 C   0  0  0  0  0  0
   -4.4110    3.9550  -25.6000 C   0  0  0  0  0  0
    2.4230    3.7800  -23.8510 C   0  0  0  0  0  0
    1.6070    4.8850  -23.5290 C   0  0  0  0  0  0
    3.4140    6.0720  -22.8580 C   0  0  0  0  0  0
    3.8280    3.9660  -23.5540 C   0  0  0  0  0  0
    1.8680    2.6710  -24.5180 C   0  0  0  0  0  0
   -0.2570    3.4840  -24.3720 C   0  0  0  0  0  0
    0.2780    4.6970  -23.7650 C   0  0  0  0  0  0
   -1.7140    3.4950  -24.7080 C   0  0  0  0  0  0
    4.4350    1.4650  -23.2980 C   0  0  0  0  0  0
    5.3830    1.0960  -22.1670 C   0  0  2  0  0  0
    6.9700    2.6410  -22.7060 C   0  0  2  0  0  0
    5.3800    2.0830  -20.9890 C   0  0  0  0  0  0
   -2.0580    3.6710  -26.1300 C   0  0  0  0  0  0
   -1.2600    2.8600  -21.7760 C   0  0  0  0  0  0
   -0.2230    2.5060  -21.2870 C   0  0  0  0  0  0
   -0.5590    5.7390  -23.3980 F   0  0  0  0  0  0
   -3.4260    3.1330  -20.2170 F   0  0  0  0  0  0
    2.0920    6.0380  -22.9900 N   0  0  0  0  0  0
    4.3070    5.1120  -23.1010 N   0  0  0  0  0  0
    0.5580    2.5860  -24.8080 N   0  0  0  0  0  0
    4.7430    2.9200  -23.7540 N   0  0  0  0  0  0
    6.7840    1.1670  -22.6670 N   0  0  1  0  0  0
   -3.6060    3.8890  -27.8630 O   0  0  0  0  0  0
   -5.6891    3.7042  -21.1781 H   0  0  0  0  0  0
   -6.1973    4.0528  -23.5583 H   0  0  0  0  0  0
    5.9069    4.0477  -21.4348 H   0  0  0  0  0  0
    7.1743    3.0590  -20.5831 H   0  0  0  0  0  0
    6.5905    2.7960  -24.8236 H   0  0  0  0  0  0
    6.3514    4.3204  -23.9102 H   0  0  0  0  0  0
   -5.4258    4.1437  -25.9312 H   0  0  0  0  0  0
    2.5031    1.8453  -24.8180 H   0  0  0  0  0  0
    3.3967    1.4055  -22.9398 H   0  0  0  0  0  0
    4.5864    0.7768  -24.1426 H   0  0  0  0  0  0
    5.1630    0.0799  -21.8078 H   0  0  0  0  0  0
    8.0379    2.8984  -22.7635 H   0  0  0  0  0  0
    4.3979    2.5746  -20.9274 H   0  0  0  0  0  0
    5.6919    1.5591  -20.0734 H   0  0  0  0  0  0
   -1.2976    3.6600  -26.9025 H   0  0  0  0  0  0
    0.6900    2.1950  -20.8570 H   0  0  0  0  0  0
    7.4397    0.6610  -21.9739 H   0  0  0  0  0  0
   -2.7668    3.8059  -28.3004 H   0  0  0  0  0  0
    5.3050    7.5710  -22.5370 O   0  0  0  0  0  0
    3.2360    8.2430  -21.9170 O   0  0  0  0  0  0
    7.5090    9.1180  -20.9950 N   0  3  0  0  0  0
    6.0470    9.0830  -20.6830 C   0  0  0  0  0  0
    7.3850    8.9030  -22.4690 C   0  0  0  0  0  0
    5.8620    8.8570  -22.2030 C   0  0  0  0  0  0
    3.9750    7.3930  -22.3860 C   0  0  0  0  0  0
    7.9472    8.3077  -20.5858 H   0  0  0  0  0  0
    7.8528   10.0515  -20.8321 H   0  0  0  0  0  0
    5.7412   10.1194  -20.4771 H   0  0  0  0  0  0
    5.8499    8.1187  -20.1918 H   0  0  0  0  0  0
    7.7049    7.8693  -22.6669 H   0  0  0  0  0  0
    7.5940    9.8699  -22.9500 H   0  0  0  0  0  0
    5.3248    9.6853  -22.6882 H   0  0  0  0  0  0
  1  2  2  0  0  0
  1  3  1  0  0  0
  1 34  1  0  0  0
  2  6  1  0  0  0
  2 35  1  0  0  0
  3  5  2  0  0  0
  3 27  1  0  0  0
  4  5  1  0  0  0
  4  6  2  0  0  0
  4 18  1  0  0  0
  5 24  1  0  0  0
  6 10  1  0  0  0
  7 10  2  0  0  0
  7 23  1  0  0  0
  7 33  1  0  0  0
  8 21  1  0  0  0
  8 22  1  0  0  0
  8 36  1  0  0  0
  8 37  1  0  0  0
  9 21  1  0  0  0
  9 31  1  0  0  0
  9 38  1  0  0  0
  9 39  1  0  0  0
 10 40  1  0  0  0
 11 12  1  0  0  0
 11 14  2  0  0  0
 11 15  1  0  0  0
 12 17  1  0  0  0
 12 28  2  0  0  0
 13 28  1  0  0  0
 13 29  2  0  0  0
 13 58  1  0  0  0
 14 29  1  0  0  0
 14 31  1  0  0  0
 15 30  2  0  0  0
 15 41  1  0  0  0
 16 17  2  0  0  0
 16 18  1  0  0  0
 16 30  1  0  0  0
 17 26  1  0  0  0
 18 23  2  0  0  0
 19 20  1  0  0  0
 19 31  1  0  0  0
 19 42  1  0  0  0
 19 43  1  0  0  0
 20 22  1  0  0  0
 20 32  1  0  0  0
 20 44  1  0  0  0
 21 32  1  0  0  0
 21 45  1  0  0  0
 22 46  1  0  0  0
 22 47  1  0  0  0
 23 48  1  0  0  0
 24 25  3  0  0  0
 25 49  1  0  0  0
 32 50  1  0  0  0
 33 51  1  0  0  0
 52 57  1  0  0  0
 52 58  1  0  0  0
 53 58  2  0  0  0
 54 55  1  0  0  0
 54 56  1  0  0  0
 54 59  1  0  0  0
 54 60  1  0  0  0
 55 57  1  0  0  0
 55 61  1  0  0  0
 55 62  1  0  0  0
 56 57  1  0  0  0
 56 63  1  0  0  0
 56 64  1  0  0  0
 57 65  1  0  0  0
M  CHG  1  54   1
M  END
> <s_m_entry_id>
654

> <s_m_entry_name>
000000496.1

> <s_m_Source_Path>
/Users/zaksoul/Documents/3r_UNI/2nd_SEMESTER/BSC/FRAG_RECON/RESULTS/2

> <s_m_Source_File>
000000496.mol2

> <i_m_Source_File_Index>
1

$$$$
No_0_518
                    3D
 Schrodinger Suite 2022-4.
 65 71  0  0  1  0            999 V2000
   -5.0350    3.6070  -22.1930 C   0  0  0  0  0  0
   -5.2690    3.8260  -23.5300 C   0  0  0  0  0  0
   -3.8110    3.3160  -21.8320 C   0  0  0  0  0  0
   -2.8730    3.4570  -23.9770 C   0  0  0  0  0  0
   -2.7470    3.1840  -22.5580 C   0  0  0  0  0  0
   -4.2020    3.7630  -24.5200 C   0  0  0  0  0  0
   -3.4020    3.8030  -26.7020 C   0  0  0  0  0  0
    6.1960    2.7260  -21.2570 C   0  0  0  0  0  0
    6.1130    2.9160  -23.8060 C   0  0  0  0  0  0
   -4.4230    3.9200  -25.8580 C   0  0  0  0  0  0
    2.3440    3.5620  -23.8890 C   0  0  0  0  0  0
    1.5460    4.6860  -23.5870 C   0  0  0  0  0  0
    3.3600    5.8230  -22.8500 C   0  0  0  0  0  0
    3.7420    3.7110  -23.5450 C   0  0  0  0  0  0
    1.7830    2.4710  -24.5810 C   0  0  0  0  0  0
   -0.3240    3.3370  -24.4980 C   0  0  0  0  0  0
    0.2210    4.5330  -23.8680 C   0  0  0  0  0  0
   -1.7690    3.3870  -24.8820 C   0  0  0  0  0  0
    4.2780    1.1940  -23.2850 C   0  0  0  0  0  0
    5.1790    0.7940  -22.1260 C   0  0  2  0  0  0
    6.8210    2.3020  -22.6040 C   0  0  2  0  0  0
    5.1620    1.7760  -20.9420 C   0  0  0  0  0  0
   -2.0610    3.5790  -26.3130 C   0  0  0  0  0  0
   -1.4270    2.7260  -21.9400 C   0  0  0  0  0  0
   -0.4160    2.3430  -21.4200 C   0  0  0  0  0  0
   -0.6010    5.5930  -23.5220 F   0  0  0  0  0  0
   -3.6350    3.0450  -20.4510 F   0  0  0  0  0  0
    2.0420    5.8230  -23.0260 N   0  0  0  0  0  0
    4.2360    4.8410  -23.0700 N   0  0  0  0  0  0
    0.4810    2.4210  -24.9140 N   0  0  0  0  0  0
    4.6370    2.6430  -23.7220 N   0  0  0  0  0  0
    6.5960    0.8330  -22.5800 N   0  0  1  0  0  0
   -3.5460    3.8460  -28.0940 O   0  0  0  0  0  0
   -5.8497    3.6792  -21.4816 H   0  0  0  0  0  0
   -6.2713    4.0527  -23.8751 H   0  0  0  0  0  0
    5.7531    3.7277  -21.3589 H   0  0  0  0  0  0
    6.9665    2.7028  -20.4723 H   0  0  0  0  0  0
    6.5146    2.4771  -24.7312 H   0  0  0  0  0  0
    6.2845    4.0025  -23.8171 H   0  0  0  0  0  0
   -5.4213    4.1369  -26.2206 H   0  0  0  0  0  0
    2.4063    1.6309  -24.8651 H   0  0  0  0  0  0
    3.2274    1.1587  -22.9610 H   0  0  0  0  0  0
    4.4394    0.5062  -24.1281 H   0  0  0  0  0  0
    4.9207   -0.2180  -21.7809 H   0  0  0  0  0  0
    7.8965    2.5320  -22.6252 H   0  0  0  0  0  0
    4.1905    2.2910  -20.9097 H   0  0  0  0  0  0
    5.4304    1.2382  -20.0207 H   0  0  0  0  0  0
   -1.2769    3.5529  -27.0610 H   0  0  0  0  0  0
    0.4739    2.0060  -20.9621 H   0  0  0  0  0  0
    7.2160    0.3071  -21.8691 H   0  0  0  0  0  0
   -2.6954    3.7431  -28.5044 H   0  0  0  0  0  0
    5.2020    7.4090  -22.7330 O   0  0  0  0  0  0
    3.2650    7.8740  -21.6610 O   0  0  0  0  0  0
    7.5890    8.9450  -21.4790 N   0  3  0  0  0  0
    6.2200    8.7800  -20.9000 C   0  0  0  0  0  0
    7.1890    8.8670  -22.9170 C   0  0  0  0  0  0
    5.7510    8.6910  -22.3720 C   0  0  0  0  0  0
    3.9380    7.1260  -22.3520 C   0  0  0  0  0  0
    8.1380    8.1310  -21.2510 H   0  0  0  0  0  0
    7.9128    9.8793  -21.2831 H   0  0  0  0  0  0
    5.9110    9.7680  -20.5280 H   0  0  0  0  0  0
    6.1700    7.7609  -20.4890 H   0  0  0  0  0  0
    7.5130    7.8820  -23.2840 H   0  0  0  0  0  0
    7.2530    9.8886  -23.3198 H   0  0  0  0  0  0
    5.0907    9.5243  -22.6541 H   0  0  0  0  0  0
  1  2  2  0  0  0
  1  3  1  0  0  0
  1 34  1  0  0  0
  2  6  1  0  0  0
  2 35  1  0  0  0
  3  5  2  0  0  0
  3 27  1  0  0  0
  4  5  1  0  0  0
  4  6  2  0  0  0
  4 18  1  0  0  0
  5 24  1  0  0  0
  6 10  1  0  0  0
  7 10  2  0  0  0
  7 23  1  0  0  0
  7 33  1  0  0  0
  8 21  1  0  0  0
  8 22  1  0  0  0
  8 36  1  0  0  0
  8 37  1  0  0  0
  9 21  1  0  0  0
  9 31  1  0  0  0
  9 38  1  0  0  0
  9 39  1  0  0  0
 10 40  1  0  0  0
 11 12  1  0  0  0
 11 14  2  0  0  0
 11 15  1  0  0  0
 12 17  1  0  0  0
 12 28  2  0  0  0
 13 28  1  0  0  0
 13 29  2  0  0  0
 13 58  1  0  0  0
 14 29  1  0  0  0
 14 31  1  0  0  0
 15 30  2  0  0  0
 15 41  1  0  0  0
 16 17  2  0  0  0
 16 18  1  0  0  0
 16 30  1  0  0  0
 17 26  1  0  0  0
 18 23  2  0  0  0
 19 20  1  0  0  0
 19 31  1  0  0  0
 19 42  1  0  0  0
 19 43  1  0  0  0
 20 22  1  0  0  0
 20 32  1  0  0  0
 20 44  1  0  0  0
 21 32  1  0  0  0
 21 45  1  0  0  0
 22 46  1  0  0  0
 22 47  1  0  0  0
 23 48  1  0  0  0
 24 25  3  0  0  0
 25 49  1  0  0  0
 32 50  1  0  0  0
 33 51  1  0  0  0
 52 57  1  0  0  0
 52 58  1  0  0  0
 53 58  2  0  0  0
 54 55  1  0  0  0
 54 56  1  0  0  0
 54 59  1  0  0  0
 54 60  1  0  0  0
 55 57  1  0  0  0
 55 61  1  0  0  0
 55 62  1  0  0  0
 56 57  1  0  0  0
 56 63  1  0  0  0
 56 64  1  0  0  0
 57 65  1  0  0  0
M  CHG  1  54   1
M  END
> <s_m_entry_id>
655

> <s_m_entry_name>
000000497.1

> <s_m_Source_Path>
/Users/zaksoul/Documents/3r_UNI/2nd_SEMESTER/BSC/FRAG_RECON/RESULTS/2

> <s_m_Source_File>
000000497.mol2

> <i_m_Source_File_Index>
1

$$$$
No_0_519
                    3D
 Schrodinger Suite 2022-4.
 68 74  0  0  1  0            999 V2000
   -4.9640    3.5290  -21.9560 C   0  0  0  0  0  0
   -5.2340    3.7350  -23.2890 C   0  0  0  0  0  0
   -3.7280    3.2550  -21.6240 C   0  0  0  0  0  0
   -2.8450    3.3910  -23.7920 C   0  0  0  0  0  0
   -2.6810    3.1300  -22.3750 C   0  0  0  0  0  0
   -4.1910    3.6780  -24.3040 C   0  0  0  0  0  0
   -3.4450    3.7120  -26.5050 C   0  0  0  0  0  0
    6.2960    2.7880  -21.2900 C   0  0  0  0  0  0
    6.1480    2.9590  -23.8370 C   0  0  0  0  0  0
   -4.4460    3.8230  -25.6370 C   0  0  0  0  0  0
    2.3720    3.5590  -23.8330 C   0  0  0  0  0  0
    1.5670    4.6760  -23.5190 C   0  0  0  0  0  0
    3.3850    5.8400  -22.8340 C   0  0  0  0  0  0
    3.7760    3.7270  -23.5240 C   0  0  0  0  0  0
    1.8070    2.4570  -24.5030 C   0  0  0  0  0  0
   -0.3080    3.2980  -24.3750 C   0  0  0  0  0  0
    0.2380    4.5050  -23.7650 C   0  0  0  0  0  0
   -1.7630    3.3280  -24.7230 C   0  0  0  0  0  0
    4.3480    1.2180  -23.2600 C   0  0  0  0  0  0
    5.2810    0.8380  -22.1210 C   0  0  2  0  0  0
    6.8930    2.3620  -22.6490 C   0  0  2  0  0  0
    5.2820    1.8270  -20.9440 C   0  0  0  0  0  0
   -2.0920    3.5070  -26.1470 C   0  0  0  0  0  0
   -1.3400    2.6920  -21.7860 C   0  0  0  0  0  0
   -0.3120    2.3250  -21.2880 C   0  0  0  0  0  0
   -0.5880    5.5580  -23.4070 F   0  0  0  0  0  0
   -3.5150    2.9950  -20.2450 F   0  0  0  0  0  0
    2.0630    5.8230  -22.9770 N   0  0  0  0  0  0
    4.2670    4.8670  -23.0680 N   0  0  0  0  0  0
    0.4980    2.3890  -24.8030 N   0  0  0  0  0  0
    4.6780    2.6690  -23.7160 N   0  0  0  0  0  0
    6.6870    0.8900  -22.6090 N   0  0  1  0  0  0
   -3.6230    3.7430  -27.8940 O   0  0  0  0  0  0
   -5.7619    3.5962  -21.2253 H   0  0  0  0  0  0
   -6.2472    3.9479  -23.6103 H   0  0  0  0  0  0
    5.8381    3.7834  -21.3878 H   0  0  0  0  0  0
    7.0853    2.7799  -20.5239 H   0  0  0  0  0  0
    6.5322    2.5183  -24.7688 H   0  0  0  0  0  0
    6.3065    4.0473  -23.8602 H   0  0  0  0  0  0
   -5.4550    4.0258  -25.9774 H   0  0  0  0  0  0
    2.4332    1.6221  -24.7960 H   0  0  0  0  0  0
    3.3058    1.1726  -22.9109 H   0  0  0  0  0  0
    4.4964    0.5267  -24.1027 H   0  0  0  0  0  0
    5.0440   -0.1747  -21.7629 H   0  0  0  0  0  0
    7.9649    2.6042  -22.6974 H   0  0  0  0  0  0
    4.3056    2.3308  -20.8905 H   0  0  0  0  0  0
    5.5788    1.3000  -20.0252 H   0  0  0  0  0  0
   -1.3262    3.4849  -26.9138 H   0  0  0  0  0  0
    0.5924    2.0008  -20.8498 H   0  0  0  0  0  0
    7.3303    0.3762  -21.9100 H   0  0  0  0  0  0
   -2.7813    3.6481  -28.3242 H   0  0  0  0  0  0
    5.2930    7.2090  -22.1370 O   0  0  0  0  0  0
    3.2000    8.0930  -22.2020 O   0  0  0  0  0  0
    4.6880   10.3840  -22.7030 N   0  0  0  0  0  0
    4.2570    9.8260  -20.4310 N   0  3  0  0  0  0
    5.4230    8.9590  -20.3280 C   0  0  0  0  0  0
    5.8890    9.5640  -22.7680 C   0  0  0  0  0  0
    3.9870   10.4810  -21.5670 C   0  0  0  0  0  0
    5.9100    8.4450  -21.7020 C   0  0  2  0  0  0
    3.9590    7.1530  -22.3590 C   0  0  0  0  0  0
    4.3799   10.8922  -23.5443 H   0  0  0  0  0  0
    3.6371    9.9310  -19.6151 H   0  0  0  0  0  0
    5.1861    8.1022  -19.6801 H   0  0  0  0  0  0
    6.2399    9.5029  -19.8311 H   0  0  0  0  0  0
    6.7758   10.2029  -22.6440 H   0  0  0  0  0  0
    5.9719    9.1163  -23.7693 H   0  0  0  0  0  0
    3.1182   11.1358  -21.5180 H   0  0  0  0  0  0
    6.9734    8.2019  -21.5600 H   0  0  0  0  0  0
  1  2  2  0  0  0
  1  3  1  0  0  0
  1 34  1  0  0  0
  2  6  1  0  0  0
  2 35  1  0  0  0
  3  5  2  0  0  0
  3 27  1  0  0  0
  4  5  1  0  0  0
  4  6  2  0  0  0
  4 18  1  0  0  0
  5 24  1  0  0  0
  6 10  1  0  0  0
  7 10  2  0  0  0
  7 23  1  0  0  0
  7 33  1  0  0  0
  8 21  1  0  0  0
  8 22  1  0  0  0
  8 36  1  0  0  0
  8 37  1  0  0  0
  9 21  1  0  0  0
  9 31  1  0  0  0
  9 38  1  0  0  0
  9 39  1  0  0  0
 10 40  1  0  0  0
 11 12  1  0  0  0
 11 14  2  0  0  0
 11 15  1  0  0  0
 12 17  1  0  0  0
 12 28  2  0  0  0
 13 28  1  0  0  0
 13 29  2  0  0  0
 13 60  1  0  0  0
 14 29  1  0  0  0
 14 31  1  0  0  0
 15 30  2  0  0  0
 15 41  1  0  0  0
 16 17  2  0  0  0
 16 18  1  0  0  0
 16 30  1  0  0  0
 17 26  1  0  0  0
 18 23  2  0  0  0
 19 20  1  0  0  0
 19 31  1  0  0  0
 19 42  1  0  0  0
 19 43  1  0  0  0
 20 22  1  0  0  0
 20 32  1  0  0  0
 20 44  1  0  0  0
 21 32  1  0  0  0
 21 45  1  0  0  0
 22 46  1  0  0  0
 22 47  1  0  0  0
 23 48  1  0  0  0
 24 25  3  0  0  0
 25 49  1  0  0  0
 32 50  1  0  0  0
 33 51  1  0  0  0
 52 59  1  0  0  0
 52 60  1  0  0  0
 53 60  2  0  0  0
 54 57  1  0  0  0
 54 58  1  0  0  0
 54 61  1  0  0  0
 55 56  1  0  0  0
 55 58  2  0  0  0
 55 62  1  0  0  0
 56 59  1  0  0  0
 56 63  1  0  0  0
 56 64  1  0  0  0
 57 59  1  0  0  0
 57 65  1  0  0  0
 57 66  1  0  0  0
 58 67  1  0  0  0
 59 68  1  0  0  0
M  CHG  1  55   1
M  END
> <s_m_entry_id>
656

> <s_m_entry_name>
000000498.1

> <s_m_Source_Path>
/Users/zaksoul/Documents/3r_UNI/2nd_SEMESTER/BSC/FRAG_RECON/RESULTS/2

> <s_m_Source_File>
000000498.mol2

> <i_m_Source_File_Index>
1

$$$$
No_0_520
                    3D
 Schrodinger Suite 2022-4.
 68 74  0  0  1  0            999 V2000
   -5.1560    3.6980  -21.6200 C   0  0  0  0  0  0
   -5.4540    3.8810  -22.9500 C   0  0  0  0  0  0
   -3.9170    3.4120  -21.3110 C   0  0  0  0  0  0
   -3.0840    3.4900  -23.5020 C   0  0  0  0  0  0
   -2.8900    3.2550  -22.0840 C   0  0  0  0  0  0
   -4.4370    3.7870  -23.9880 C   0  0  0  0  0  0
   -3.7440    3.7650  -26.2070 C   0  0  0  0  0  0
    6.1040    2.7980  -21.2070 C   0  0  0  0  0  0
    5.8980    2.9190  -23.7530 C   0  0  0  0  0  0
   -4.7220    3.9090  -25.3170 C   0  0  0  0  0  0
    2.1320    3.5770  -23.6710 C   0  0  0  0  0  0
    1.3520    4.7130  -23.3610 C   0  0  0  0  0  0
    3.2030    5.8620  -22.7440 C   0  0  0  0  0  0
    3.5460    3.7300  -23.3990 C   0  0  0  0  0  0
    1.5350    2.4700  -24.3050 C   0  0  0  0  0  0
   -0.5640    3.3470  -24.1430 C   0  0  0  0  0  0
    0.0150    4.5570  -23.5720 C   0  0  0  0  0  0
   -2.0250    3.3920  -24.4570 C   0  0  0  0  0  0
    4.0860    1.2190  -23.0980 C   0  0  0  0  0  0
    5.0410    0.8470  -21.9740 C   0  0  2  0  0  0
    6.6620    2.3350  -22.5710 C   0  0  2  0  0  0
    5.0850    1.8600  -20.8170 C   0  0  0  0  0  0
   -2.3860    3.5470  -25.8770 C   0  0  0  0  0  0
   -1.5420    2.8090  -21.5190 C   0  0  0  0  0  0
   -0.5080    2.4360  -21.0390 C   0  0  0  0  0  0
   -0.7860    5.6300  -23.2160 F   0  0  0  0  0  0
   -3.6740    3.1770  -19.9330 F   0  0  0  0  0  0
    1.8780    5.8620  -22.8550 N   0  0  0  0  0  0
    4.0640    4.8710  -22.9790 N   0  0  0  0  0  0
    0.2180    2.4160  -24.5720 N   0  0  0  0  0  0
    4.4270    2.6540  -23.5910 N   0  0  0  0  0  0
    6.4350    0.8680  -22.4960 N   0  0  1  0  0  0
   -3.9550    3.7710  -27.5910 O   0  0  0  0  0  0
   -5.9351    3.7914  -20.8721 H   0  0  0  0  0  0
   -6.4712    4.1027  -23.2520 H   0  0  0  0  0  0
    5.6598    3.7985  -21.3150 H   0  0  0  0  0  0
    6.9120    2.7930  -20.4606 H   0  0  0  0  0  0
    6.2532    2.4538  -24.6844 H   0  0  0  0  0  0
    6.0716    4.0041  -23.8025 H   0  0  0  0  0  0
   -5.7359    4.1198  -25.6372 H   0  0  0  0  0  0
    2.1413    1.6198  -24.5961 H   0  0  0  0  0  0
    3.0523    1.1958  -22.7225 H   0  0  0  0  0  0
    4.2041    0.5081  -23.9291 H   0  0  0  0  0  0
    4.7978   -0.1541  -21.5885 H   0  0  0  0  0  0
    7.7358    2.5600  -22.6507 H   0  0  0  0  0  0
    4.1179    2.3799  -20.7514 H   0  0  0  0  0  0
    5.3968    1.3463  -19.8956 H   0  0  0  0  0  0
   -1.6391    3.4968  -26.6610 H   0  0  0  0  0  0
    0.4022    2.1079  -20.6159 H   0  0  0  0  0  0
    7.0875    0.3578  -21.8029 H   0  0  0  0  0  0
   -3.1256    3.6542  -28.0393 H   0  0  0  0  0  0
    3.1930    8.3110  -22.7130 O   0  0  0  0  0  0
    4.8130    7.1500  -21.6220 O   0  0  0  0  0  0
    4.7230    9.4270  -20.0340 N   0  0  0  0  0  0
    6.1750    9.4550  -21.9190 N   0  3  0  0  0  0
    5.1340    9.9160  -22.8270 C   0  0  0  0  0  0
    3.5760    9.8900  -20.8000 C   0  0  0  0  0  0
    5.9180    9.2710  -20.6170 C   0  0  0  0  0  0
    3.7100    9.6030  -22.3120 C   0  0  2  0  0  0
    3.8080    7.1750  -22.3100 C   0  0  0  0  0  0
    4.6080    9.2180  -19.0320 H   0  0  0  0  0  0
    7.1184    9.2709  -22.2892 H   0  0  0  0  0  0
    5.2760    9.4491  -23.8128 H   0  0  0  0  0  0
    5.2370   11.0001  -22.9820 H   0  0  0  0  0  0
    3.4440   10.9707  -20.6430 H   0  0  0  0  0  0
    2.6629    9.4109  -20.4170 H   0  0  0  0  0  0
    6.7794    8.9699  -20.0227 H   0  0  0  0  0  0
    3.0574   10.3395  -22.8037 H   0  0  0  0  0  0
  1  2  2  0  0  0
  1  3  1  0  0  0
  1 34  1  0  0  0
  2  6  1  0  0  0
  2 35  1  0  0  0
  3  5  2  0  0  0
  3 27  1  0  0  0
  4  5  1  0  0  0
  4  6  2  0  0  0
  4 18  1  0  0  0
  5 24  1  0  0  0
  6 10  1  0  0  0
  7 10  2  0  0  0
  7 23  1  0  0  0
  7 33  1  0  0  0
  8 21  1  0  0  0
  8 22  1  0  0  0
  8 36  1  0  0  0
  8 37  1  0  0  0
  9 21  1  0  0  0
  9 31  1  0  0  0
  9 38  1  0  0  0
  9 39  1  0  0  0
 10 40  1  0  0  0
 11 12  1  0  0  0
 11 14  2  0  0  0
 11 15  1  0  0  0
 12 17  1  0  0  0
 12 28  2  0  0  0
 13 28  1  0  0  0
 13 29  2  0  0  0
 13 60  1  0  0  0
 14 29  1  0  0  0
 14 31  1  0  0  0
 15 30  2  0  0  0
 15 41  1  0  0  0
 16 17  2  0  0  0
 16 18  1  0  0  0
 16 30  1  0  0  0
 17 26  1  0  0  0
 18 23  2  0  0  0
 19 20  1  0  0  0
 19 31  1  0  0  0
 19 42  1  0  0  0
 19 43  1  0  0  0
 20 22  1  0  0  0
 20 32  1  0  0  0
 20 44  1  0  0  0
 21 32  1  0  0  0
 21 45  1  0  0  0
 22 46  1  0  0  0
 22 47  1  0  0  0
 23 48  1  0  0  0
 24 25  3  0  0  0
 25 49  1  0  0  0
 32 50  1  0  0  0
 33 51  1  0  0  0
 52 59  1  0  0  0
 52 60  1  0  0  0
 53 60  2  0  0  0
 54 57  1  0  0  0
 54 58  1  0  0  0
 54 61  1  0  0  0
 55 56  1  0  0  0
 55 58  2  0  0  0
 55 62  1  0  0  0
 56 59  1  0  0  0
 56 63  1  0  0  0
 56 64  1  0  0  0
 57 59  1  0  0  0
 57 65  1  0  0  0
 57 66  1  0  0  0
 58 67  1  0  0  0
 59 68  1  0  0  0
M  CHG  1  55   1
M  END
> <s_m_entry_id>
657

> <s_m_entry_name>
000000499.1

> <s_m_Source_Path>
/Users/zaksoul/Documents/3r_UNI/2nd_SEMESTER/BSC/FRAG_RECON/RESULTS/2

> <s_m_Source_File>
000000499.mol2

> <i_m_Source_File_Index>
1

$$$$
No_0_521
                    3D
 Schrodinger Suite 2022-4.
 67 72  0  0  1  0            999 V2000
   -4.9910    3.4750  -21.5220 C   0  0  0  0  0  0
   -5.3000    3.7120  -22.8400 C   0  0  0  0  0  0
   -3.7420    3.2130  -21.2310 C   0  0  0  0  0  0
   -2.9210    3.4210  -23.4180 C   0  0  0  0  0  0
   -2.7140    3.1250  -22.0130 C   0  0  0  0  0  0
   -4.2850    3.6990  -23.8850 C   0  0  0  0  0  0
   -3.6020    3.8030  -26.1040 C   0  0  0  0  0  0
    6.2940    2.9010  -21.1870 C   0  0  0  0  0  0
    6.0720    3.1360  -23.7240 C   0  0  0  0  0  0
   -4.5800    3.8750  -25.2060 C   0  0  0  0  0  0
    2.2890    3.6750  -23.5980 C   0  0  0  0  0  0
    1.4760    4.7700  -23.2320 C   0  0  0  0  0  0
    3.2940    5.9440  -22.5670 C   0  0  0  0  0  0
    3.6980    3.8580  -23.3240 C   0  0  0  0  0  0
    1.7230    2.5810  -24.2820 C   0  0  0  0  0  0
   -0.4010    3.3850  -24.0730 C   0  0  0  0  0  0
    0.1430    4.5840  -23.4470 C   0  0  0  0  0  0
   -1.8650    3.4000  -24.3800 C   0  0  0  0  0  0
    4.3160    1.3520  -23.1440 C   0  0  0  0  0  0
    5.2870    0.9570  -22.0420 C   0  0  2  0  0  0
    6.8600    2.5210  -22.5730 C   0  0  2  0  0  0
    5.3060    1.9150  -20.8390 C   0  0  0  0  0  0
   -2.2370    3.6110  -25.7890 C   0  0  0  0  0  0
   -1.3510    2.6930  -21.4740 C   0  0  0  0  0  0
   -0.3030    2.3300  -21.0150 C   0  0  0  0  0  0
   -0.6890    5.6130  -23.0370 F   0  0  0  0  0  0
   -3.4860    2.9200  -19.8660 F   0  0  0  0  0  0
    1.9690    5.9100  -22.6740 N   0  0  0  0  0  0
    4.1840    4.9930  -22.8520 N   0  0  0  0  0  0
    0.4070    2.5000  -24.5480 N   0  0  0  0  0  0
    4.6110    2.8190  -23.5690 N   0  0  0  0  0  0
    6.6770    1.0450  -22.5670 N   0  0  1  0  0  0
   -3.8200    3.8680  -27.4860 O   0  0  0  0  0  0
   -5.7686    3.5091  -20.7675 H   0  0  0  0  0  0
   -6.3248    3.9168  -23.1281 H   0  0  0  0  0  0
    5.8185    3.8913  -21.2445 H   0  0  0  0  0  0
    7.1043    2.8849  -20.4433 H   0  0  0  0  0  0
    6.4373    2.7273  -24.6777 H   0  0  0  0  0  0
    6.2133    4.2269  -23.7210 H   0  0  0  0  0  0
   -5.6014    4.0698  -25.5123 H   0  0  0  0  0  0
    2.3535    1.7647  -24.6153 H   0  0  0  0  0  0
    3.2853    1.2803  -22.7665 H   0  0  0  0  0  0
    4.4523    0.6855  -24.0084 H   0  0  0  0  0  0
    5.0761   -0.0683  -21.7039 H   0  0  0  0  0  0
    7.9261    2.7825  -22.6447 H   0  0  0  0  0  0
    4.3237    2.4011  -20.7452 H   0  0  0  0  0  0
    5.6368    1.3684  -19.9435 H   0  0  0  0  0  0
   -1.4924    3.6210  -26.5767 H   0  0  0  0  0  0
    0.6185    2.0098  -20.6108 H   0  0  0  0  0  0
    7.3483    0.5233  -21.9010 H   0  0  0  0  0  0
   -2.9895    3.7978  -27.9418 H   0  0  0  0  0  0
    4.9800    7.2250  -21.3170 O   0  0  0  0  0  0
    3.2810    8.2870  -22.3670 O   0  0  0  0  0  0
    5.2190   10.4970  -23.3660 N   0  3  0  0  0  0
    6.0610    9.2530  -23.3810 C   0  0  0  0  0  0
    6.6370    8.9490  -21.9830 C   0  0  0  0  0  0
    5.5870    8.4820  -20.9530 C   0  0  0  0  0  0
    3.8610    7.2540  -22.0730 C   0  0  0  0  0  0
    4.8570   10.6690  -24.2909 H   0  0  0  0  0  0
    4.4521   10.3760  -22.7231 H   0  0  0  0  0  0
    5.7818   11.2807  -23.0741 H   0  0  0  0  0  0
    6.8859    9.3780  -24.0979 H   0  0  0  0  0  0
    5.4517    8.4015  -23.7182 H   0  0  0  0  0  0
    7.1529    9.8419  -21.6001 H   0  0  0  0  0  0
    7.4252    8.1868  -22.0720 H   0  0  0  0  0  0
    6.0618    8.3870  -19.9653 H   0  0  0  0  0  0
    4.8059    9.2501  -20.8530 H   0  0  0  0  0  0
  1  2  2  0  0  0
  1  3  1  0  0  0
  1 34  1  0  0  0
  2  6  1  0  0  0
  2 35  1  0  0  0
  3  5  2  0  0  0
  3 27  1  0  0  0
  4  5  1  0  0  0
  4  6  2  0  0  0
  4 18  1  0  0  0
  5 24  1  0  0  0
  6 10  1  0  0  0
  7 10  2  0  0  0
  7 23  1  0  0  0
  7 33  1  0  0  0
  8 21  1  0  0  0
  8 22  1  0  0  0
  8 36  1  0  0  0
  8 37  1  0  0  0
  9 21  1  0  0  0
  9 31  1  0  0  0
  9 38  1  0  0  0
  9 39  1  0  0  0
 10 40  1  0  0  0
 11 12  1  0  0  0
 11 14  2  0  0  0
 11 15  1  0  0  0
 12 17  1  0  0  0
 12 28  2  0  0  0
 13 28  1  0  0  0
 13 29  2  0  0  0
 13 58  1  0  0  0
 14 29  1  0  0  0
 14 31  1  0  0  0
 15 30  2  0  0  0
 15 41  1  0  0  0
 16 17  2  0  0  0
 16 18  1  0  0  0
 16 30  1  0  0  0
 17 26  1  0  0  0
 18 23  2  0  0  0
 19 20  1  0  0  0
 19 31  1  0  0  0
 19 42  1  0  0  0
 19 43  1  0  0  0
 20 22  1  0  0  0
 20 32  1  0  0  0
 20 44  1  0  0  0
 21 32  1  0  0  0
 21 45  1  0  0  0
 22 46  1  0  0  0
 22 47  1  0  0  0
 23 48  1  0  0  0
 24 25  3  0  0  0
 25 49  1  0  0  0
 32 50  1  0  0  0
 33 51  1  0  0  0
 52 57  1  0  0  0
 52 58  1  0  0  0
 53 58  2  0  0  0
 54 55  1  0  0  0
 54 59  1  0  0  0
 54 60  1  0  0  0
 54 61  1  0  0  0
 55 56  1  0  0  0
 55 62  1  0  0  0
 55 63  1  0  0  0
 56 57  1  0  0  0
 56 64  1  0  0  0
 56 65  1  0  0  0
 57 66  1  0  0  0
 57 67  1  0  0  0
M  CHG  1  54   1
M  END
> <s_m_entry_id>
658

> <s_m_entry_name>
000000500.1

> <s_m_Source_Path>
/Users/zaksoul/Documents/3r_UNI/2nd_SEMESTER/BSC/FRAG_RECON/RESULTS/2

> <s_m_Source_File>
000000500.mol2

> <i_m_Source_File_Index>
1

$$$$
No_0_522
                    3D
 Schrodinger Suite 2022-4.
 67 72  0  0  1  0            999 V2000
   -4.8720    3.5960  -21.5750 C   0  0  0  0  0  0
   -5.1810    3.8420  -22.8920 C   0  0  0  0  0  0
   -3.6280    3.3080  -21.2890 C   0  0  0  0  0  0
   -2.8110    3.5030  -23.4780 C   0  0  0  0  0  0
   -2.6050    3.2000  -22.0750 C   0  0  0  0  0  0
   -4.1700    3.8100  -23.9400 C   0  0  0  0  0  0
   -3.4930    3.9040  -26.1620 C   0  0  0  0  0  0
    6.3990    2.7890  -21.2800 C   0  0  0  0  0  0
    6.1740    3.0330  -23.8160 C   0  0  0  0  0  0
   -4.4660    3.9940  -25.2600 C   0  0  0  0  0  0
    2.4020    3.6500  -23.6760 C   0  0  0  0  0  0
    1.6140    4.7600  -23.3060 C   0  0  0  0  0  0
    3.4580    5.8960  -22.6450 C   0  0  0  0  0  0
    3.8160    3.8030  -23.4070 C   0  0  0  0  0  0
    1.8120    2.5690  -24.3600 C   0  0  0  0  0  0
   -0.2940    3.4160  -24.1420 C   0  0  0  0  0  0
    0.2770    4.6020  -23.5160 C   0  0  0  0  0  0
   -1.7590    3.4620  -24.4440 C   0  0  0  0  0  0
    4.3830    1.2850  -23.2330 C   0  0  0  0  0  0
    5.3490    0.8680  -22.1350 C   0  0  2  0  0  0
    6.9520    2.3990  -22.6690 C   0  0  2  0  0  0
    5.3920    1.8230  -20.9300 C   0  0  0  0  0  0
   -2.1310    3.6830  -25.8520 C   0  0  0  0  0  0
   -1.2490    2.7390  -21.5410 C   0  0  0  0  0  0
   -0.2080    2.3540  -21.0870 C   0  0  0  0  0  0
   -0.5320    5.6480  -23.1020 F   0  0  0  0  0  0
   -3.3740    3.0080  -19.9250 F   0  0  0  0  0  0
    2.1320    5.8890  -22.7470 N   0  0  0  0  0  0
    4.3270    4.9270  -22.9340 N   0  0  0  0  0  0
    0.4940    2.5150  -24.6220 N   0  0  0  0  0  0
    4.7070    2.7460  -23.6570 N   0  0  0  0  0  0
    6.7390    0.9280  -22.6650 N   0  0  1  0  0  0
   -3.7140    3.9760  -27.5430 O   0  0  0  0  0  0
   -5.6467    3.6452  -20.8184 H   0  0  0  0  0  0
   -6.2025    4.0678  -23.1760 H   0  0  0  0  0  0
    5.9439    3.7889  -21.3355 H   0  0  0  0  0  0
    7.2124    2.7547  -20.5403 H   0  0  0  0  0  0
    6.5272    2.6183  -24.7716 H   0  0  0  0  0  0
    6.3365    4.1209  -23.8120 H   0  0  0  0  0  0
   -5.4844    4.2099  -25.5623 H   0  0  0  0  0  0
    2.4246    1.7404  -24.6964 H   0  0  0  0  0  0
    3.3522    1.2335  -22.8524 H   0  0  0  0  0  0
    4.5021    0.6170  -24.0988 H   0  0  0  0  0  0
    5.1189   -0.1535  -21.7979 H   0  0  0  0  0  0
    8.0229    2.6392  -22.7437 H   0  0  0  0  0  0
    4.4204    2.3295  -20.8331 H   0  0  0  0  0  0
    5.7149    1.2680  -20.0369 H   0  0  0  0  0  0
   -1.3895    3.6790  -26.6427 H   0  0  0  0  0  0
    0.7079    2.0140  -20.6861 H   0  0  0  0  0  0
    7.4017    0.3925  -22.0013 H   0  0  0  0  0  0
   -2.8864    3.8889  -28.0013 H   0  0  0  0  0  0
    5.2920    7.5320  -22.5710 O   0  0  0  0  0  0
    3.3980    7.8790  -21.3830 O   0  0  0  0  0  0
    3.3960   10.8800  -22.1760 N   0  3  0  0  0  0
    3.9540   10.1940  -23.3890 C   0  0  0  0  0  0
    5.4630    9.9190  -23.2350 C   0  0  0  0  0  0
    5.8050    8.8280  -22.1970 C   0  0  0  0  0  0
    4.0530    7.1930  -22.1510 C   0  0  0  0  0  0
    2.4105   11.0461  -22.3071 H   0  0  0  0  0  0
    3.5341   10.2967  -21.3656 H   0  0  0  0  0  0
    3.8689   11.7598  -22.0400 H   0  0  0  0  0  0
    3.7860   10.8222  -24.2762 H   0  0  0  0  0  0
    3.4234    9.2438  -23.5489 H   0  0  0  0  0  0
    5.9779   10.8528  -22.9651 H   0  0  0  0  0  0
    5.8851    9.6380  -24.2112 H   0  0  0  0  0  0
    6.8967    8.7680  -22.0760 H   0  0  0  0  0  0
    5.3959    9.1141  -21.2168 H   0  0  0  0  0  0
  1  2  2  0  0  0
  1  3  1  0  0  0
  1 34  1  0  0  0
  2  6  1  0  0  0
  2 35  1  0  0  0
  3  5  2  0  0  0
  3 27  1  0  0  0
  4  5  1  0  0  0
  4  6  2  0  0  0
  4 18  1  0  0  0
  5 24  1  0  0  0
  6 10  1  0  0  0
  7 10  2  0  0  0
  7 23  1  0  0  0
  7 33  1  0  0  0
  8 21  1  0  0  0
  8 22  1  0  0  0
  8 36  1  0  0  0
  8 37  1  0  0  0
  9 21  1  0  0  0
  9 31  1  0  0  0
  9 38  1  0  0  0
  9 39  1  0  0  0
 10 40  1  0  0  0
 11 12  1  0  0  0
 11 14  2  0  0  0
 11 15  1  0  0  0
 12 17  1  0  0  0
 12 28  2  0  0  0
 13 28  1  0  0  0
 13 29  2  0  0  0
 13 58  1  0  0  0
 14 29  1  0  0  0
 14 31  1  0  0  0
 15 30  2  0  0  0
 15 41  1  0  0  0
 16 17  2  0  0  0
 16 18  1  0  0  0
 16 30  1  0  0  0
 17 26  1  0  0  0
 18 23  2  0  0  0
 19 20  1  0  0  0
 19 31  1  0  0  0
 19 42  1  0  0  0
 19 43  1  0  0  0
 20 22  1  0  0  0
 20 32  1  0  0  0
 20 44  1  0  0  0
 21 32  1  0  0  0
 21 45  1  0  0  0
 22 46  1  0  0  0
 22 47  1  0  0  0
 23 48  1  0  0  0
 24 25  3  0  0  0
 25 49  1  0  0  0
 32 50  1  0  0  0
 33 51  1  0  0  0
 52 57  1  0  0  0
 52 58  1  0  0  0
 53 58  2  0  0  0
 54 55  1  0  0  0
 54 59  1  0  0  0
 54 60  1  0  0  0
 54 61  1  0  0  0
 55 56  1  0  0  0
 55 62  1  0  0  0
 55 63  1  0  0  0
 56 57  1  0  0  0
 56 64  1  0  0  0
 56 65  1  0  0  0
 57 66  1  0  0  0
 57 67  1  0  0  0
M  CHG  1  54   1
M  END
> <s_m_entry_id>
659

> <s_m_entry_name>
000000501.1

> <s_m_Source_Path>
/Users/zaksoul/Documents/3r_UNI/2nd_SEMESTER/BSC/FRAG_RECON/RESULTS/2

> <s_m_Source_File>
000000501.mol2

> <i_m_Source_File_Index>
1

$$$$
No_0_523
                    3D
 Schrodinger Suite 2022-4.
 66 71  0  0  1  0            999 V2000
   -5.1200    3.5860  -21.8680 C   0  0  0  0  0  0
   -5.3910    3.7810  -23.2020 C   0  0  0  0  0  0
   -3.8820    3.3270  -21.5340 C   0  0  0  0  0  0
   -2.9990    3.4590  -23.7020 C   0  0  0  0  0  0
   -2.8330    3.2080  -22.2840 C   0  0  0  0  0  0
   -4.3470    3.7290  -24.2170 C   0  0  0  0  0  0
   -3.6010    3.7570  -26.4180 C   0  0  0  0  0  0
    6.1470    2.9640  -21.1950 C   0  0  0  0  0  0
    5.9980    3.1180  -23.7430 C   0  0  0  0  0  0
   -4.6030    3.8620  -25.5510 C   0  0  0  0  0  0
    2.2160    3.6800  -23.7430 C   0  0  0  0  0  0
    1.4000    4.7900  -23.4360 C   0  0  0  0  0  0
    3.2050    5.9760  -22.7580 C   0  0  0  0  0  0
    3.6180    3.8640  -23.4350 C   0  0  0  0  0  0
    1.6620    2.5680  -24.4070 C   0  0  0  0  0  0
   -0.4610    3.3880  -24.2840 C   0  0  0  0  0  0
    0.0720    4.6040  -23.6820 C   0  0  0  0  0  0
   -1.9160    3.4010  -24.6330 C   0  0  0  0  0  0
    4.2150    1.3630  -23.1560 C   0  0  0  0  0  0
    5.1520    0.9990  -22.0140 C   0  0  2  0  0  0
    6.7490    2.5360  -22.5510 C   0  0  2  0  0  0
    5.1430    1.9950  -20.8430 C   0  0  0  0  0  0
   -2.2460    3.5680  -26.0580 C   0  0  0  0  0  0
   -1.4880    2.7870  -21.6920 C   0  0  0  0  0  0
   -0.4560    2.4330  -21.1920 C   0  0  0  0  0  0
   -0.7640    5.6510  -23.3300 F   0  0  0  0  0  0
   -3.6660    3.0780  -20.1530 F   0  0  0  0  0  0
    1.8830    5.9450  -22.9010 N   0  0  0  0  0  0
    4.0970    5.0110  -22.9860 N   0  0  0  0  0  0
    0.3550    2.4840  -24.7070 N   0  0  0  0  0  0
    4.5310    2.8140  -23.6200 N   0  0  0  0  0  0
    6.5570    1.0630  -22.5020 N   0  0  1  0  0  0
   -3.7790    3.7780  -27.8070 O   0  0  0  0  0  0
   -5.9190    3.6492  -21.1382 H   0  0  0  0  0  0
   -6.4060    3.9818  -23.5253 H   0  0  0  0  0  0
    5.6792    3.9541  -21.2989 H   0  0  0  0  0  0
    6.9363    2.9690  -20.4289 H   0  0  0  0  0  0
    6.3874    2.6762  -24.6721 H   0  0  0  0  0  0
    6.1453    4.2077  -23.7723 H   0  0  0  0  0  0
   -5.6141    4.0526  -25.8921 H   0  0  0  0  0  0
    2.2967    1.7377  -24.6948 H   0  0  0  0  0  0
    3.1736    1.3085  -22.8059 H   0  0  0  0  0  0
    4.3715    0.6675  -23.9938 H   0  0  0  0  0  0
    4.9260   -0.0140  -21.6498 H   0  0  0  0  0  0
    7.8182    2.7894  -22.6015 H   0  0  0  0  0  0
    4.1615    2.4893  -20.7936 H   0  0  0  0  0  0
    5.4449    1.4761  -19.9213 H   0  0  0  0  0  0
   -1.4801    3.5489  -26.8249 H   0  0  0  0  0  0
    0.4521    2.1220  -20.7519 H   0  0  0  0  0  0
    7.2059    0.5595  -21.8007 H   0  0  0  0  0  0
   -2.9365    3.6879  -28.2367 H   0  0  0  0  0  0
    4.8630    7.2810  -21.5040 O   0  0  0  0  0  0
    3.2080    8.3280  -22.6330 O   0  0  0  0  0  0
    6.5120    9.0130  -22.1180 N   0  0  0  0  0  0
    5.4650    8.5430  -21.1390 C   0  0  0  0  0  0
    7.4100   10.0660  -21.5300 C   0  0  0  0  0  0
    5.9400    9.4470  -23.4380 C   0  0  0  0  0  0
    3.7660    7.2980  -22.2920 C   0  0  0  0  0  0
    5.9122    8.4590  -20.1375 H   0  0  0  0  0  0
    4.6808    9.3092  -21.0490 H   0  0  0  0  0  0
    8.1542   10.3741  -22.2792 H   0  0  0  0  0  0
    6.8077   10.9365  -21.2308 H   0  0  0  0  0  0
    7.9259    9.6581  -20.6482 H   0  0  0  0  0  0
    6.7539    9.7759  -24.1009 H   0  0  0  0  0  0
    5.4070    8.6040  -23.9020 H   0  0  0  0  0  0
    5.2393   10.2797  -23.2781 H   0  0  0  0  0  0
  1  2  2  0  0  0
  1  3  1  0  0  0
  1 34  1  0  0  0
  2  6  1  0  0  0
  2 35  1  0  0  0
  3  5  2  0  0  0
  3 27  1  0  0  0
  4  5  1  0  0  0
  4  6  2  0  0  0
  4 18  1  0  0  0
  5 24  1  0  0  0
  6 10  1  0  0  0
  7 10  2  0  0  0
  7 23  1  0  0  0
  7 33  1  0  0  0
  8 21  1  0  0  0
  8 22  1  0  0  0
  8 36  1  0  0  0
  8 37  1  0  0  0
  9 21  1  0  0  0
  9 31  1  0  0  0
  9 38  1  0  0  0
  9 39  1  0  0  0
 10 40  1  0  0  0
 11 12  1  0  0  0
 11 14  2  0  0  0
 11 15  1  0  0  0
 12 17  1  0  0  0
 12 28  2  0  0  0
 13 28  1  0  0  0
 13 29  2  0  0  0
 13 58  1  0  0  0
 14 29  1  0  0  0
 14 31  1  0  0  0
 15 30  2  0  0  0
 15 41  1  0  0  0
 16 17  2  0  0  0
 16 18  1  0  0  0
 16 30  1  0  0  0
 17 26  1  0  0  0
 18 23  2  0  0  0
 19 20  1  0  0  0
 19 31  1  0  0  0
 19 42  1  0  0  0
 19 43  1  0  0  0
 20 22  1  0  0  0
 20 32  1  0  0  0
 20 44  1  0  0  0
 21 32  1  0  0  0
 21 45  1  0  0  0
 22 46  1  0  0  0
 22 47  1  0  0  0
 23 48  1  0  0  0
 24 25  3  0  0  0
 25 49  1  0  0  0
 32 50  1  0  0  0
 33 51  1  0  0  0
 52 55  1  0  0  0
 52 58  1  0  0  0
 53 58  2  0  0  0
 54 55  1  0  0  0
 54 56  1  0  0  0
 54 57  1  0  0  0
 55 59  1  0  0  0
 55 60  1  0  0  0
 56 61  1  0  0  0
 56 62  1  0  0  0
 56 63  1  0  0  0
 57 64  1  0  0  0
 57 65  1  0  0  0
 57 66  1  0  0  0
M  END
> <s_m_entry_id>
660

> <s_m_entry_name>
000000502.1

> <s_m_Source_Path>
/Users/zaksoul/Documents/3r_UNI/2nd_SEMESTER/BSC/FRAG_RECON/RESULTS/2

> <s_m_Source_File>
000000502.mol2

> <i_m_Source_File_Index>
1

$$$$
No_0_524
                    3D
 Schrodinger Suite 2022-4.
 66 71  0  0  1  0            999 V2000
   -5.0390    3.7480  -22.0390 C   0  0  0  0  0  0
   -5.3040    3.9500  -23.3730 C   0  0  0  0  0  0
   -3.8020    3.4870  -21.7000 C   0  0  0  0  0  0
   -2.9090    3.6280  -23.8640 C   0  0  0  0  0  0
   -2.7500    3.3700  -22.4460 C   0  0  0  0  0  0
   -4.2550    3.9010  -24.3830 C   0  0  0  0  0  0
   -3.4990    3.9390  -26.5810 C   0  0  0  0  0  0
    6.2240    3.1160  -21.3190 C   0  0  0  0  0  0
    6.0870    3.2820  -23.8670 C   0  0  0  0  0  0
   -4.5060    4.0410  -25.7180 C   0  0  0  0  0  0
    2.3050    3.8460  -23.8810 C   0  0  0  0  0  0
    1.4890    4.9560  -23.5720 C   0  0  0  0  0  0
    3.2920    6.1380  -22.8810 C   0  0  0  0  0  0
    3.7060    4.0280  -23.5650 C   0  0  0  0  0  0
    1.7540    2.7370  -24.5520 C   0  0  0  0  0  0
   -0.3700    3.5590  -24.4350 C   0  0  0  0  0  0
    0.1620    4.7720  -23.8250 C   0  0  0  0  0  0
   -1.8220    3.5740  -24.7900 C   0  0  0  0  0  0
    4.3010    1.5250  -23.2960 C   0  0  0  0  0  0
    5.2330    1.1550  -22.1520 C   0  0  2  0  0  0
    6.8320    2.6940  -22.6740 C   0  0  2  0  0  0
    5.2190    2.1460  -20.9760 C   0  0  0  0  0  0
   -2.1470    3.7480  -26.2160 C   0  0  0  0  0  0
   -1.4080    2.9460  -21.8510 C   0  0  0  0  0  0
   -0.3790    2.5890  -21.3470 C   0  0  0  0  0  0
   -0.6750    5.8170  -23.4720 F   0  0  0  0  0  0
   -3.5930    3.2310  -20.3200 F   0  0  0  0  0  0
    1.9710    6.1080  -23.0300 N   0  0  0  0  0  0
    4.1840    5.1730  -23.1090 N   0  0  0  0  0  0
    0.4480    2.6560  -24.8590 N   0  0  0  0  0  0
    4.6200    2.9780  -23.7520 N   0  0  0  0  0  0
    6.6400    1.2210  -22.6330 N   0  0  1  0  0  0
   -3.6720    3.9670  -27.9710 O   0  0  0  0  0  0
   -5.8410    3.8082  -21.3122 H   0  0  0  0  0  0
   -6.3176    4.1517  -23.7002 H   0  0  0  0  0  0
    5.7577    4.1071  -21.4199 H   0  0  0  0  0  0
    7.0098    3.1170  -20.5493 H   0  0  0  0  0  0
    6.4805    2.8441  -24.7962 H   0  0  0  0  0  0
    6.2353    4.3717  -23.8902 H   0  0  0  0  0  0
   -5.5155    4.2339  -26.0625 H   0  0  0  0  0  0
    2.3901    1.9082  -24.8410 H   0  0  0  0  0  0
    3.2579    1.4705  -22.9510 H   0  0  0  0  0  0
    4.4605    0.8343  -24.1371 H   0  0  0  0  0  0
    5.0039    0.1409  -21.7928 H   0  0  0  0  0  0
    7.9015    2.9473  -22.7184 H   0  0  0  0  0  0
    4.2375    2.6403  -20.9286 H   0  0  0  0  0  0
    5.5168    1.6230  -20.0552 H   0  0  0  0  0  0
   -1.3776    3.7319  -26.9794 H   0  0  0  0  0  0
    0.5274    2.2759  -20.9048 H   0  0  0  0  0  0
    7.2848    0.7141  -21.9304 H   0  0  0  0  0  0
   -2.8271    3.8790  -28.3964 H   0  0  0  0  0  0
    5.0960    7.4680  -21.8820 O   0  0  0  0  0  0
    3.1610    8.4580  -22.5020 O   0  0  0  0  0  0
    6.4410    9.3920  -22.6470 N   0  0  0  0  0  0
    5.6770    8.7420  -21.5220 C   0  0  0  0  0  0
    7.3730   10.4650  -22.1570 C   0  0  0  0  0  0
    5.5560    9.8920  -23.7550 C   0  0  0  0  0  0
    3.8510    7.4570  -22.4050 C   0  0  0  0  0  0
    6.3436    8.6071  -20.6575 H   0  0  0  0  0  0
    4.8822    9.4208  -21.1791 H   0  0  0  0  0  0
    7.9057   10.9078  -23.0115 H   0  0  0  0  0  0
    6.7958   11.2463  -21.6408 H   0  0  0  0  0  0
    8.1019   10.0271  -21.4591 H   0  0  0  0  0  0
    6.1749   10.3529  -24.5389 H   0  0  0  0  0  0
    4.9911    9.0502  -24.1819 H   0  0  0  0  0  0
    4.8540   10.6390  -23.3560 H   0  0  0  0  0  0
  1  2  2  0  0  0
  1  3  1  0  0  0
  1 34  1  0  0  0
  2  6  1  0  0  0
  2 35  1  0  0  0
  3  5  2  0  0  0
  3 27  1  0  0  0
  4  5  1  0  0  0
  4  6  2  0  0  0
  4 18  1  0  0  0
  5 24  1  0  0  0
  6 10  1  0  0  0
  7 10  2  0  0  0
  7 23  1  0  0  0
  7 33  1  0  0  0
  8 21  1  0  0  0
  8 22  1  0  0  0
  8 36  1  0  0  0
  8 37  1  0  0  0
  9 21  1  0  0  0
  9 31  1  0  0  0
  9 38  1  0  0  0
  9 39  1  0  0  0
 10 40  1  0  0  0
 11 12  1  0  0  0
 11 14  2  0  0  0
 11 15  1  0  0  0
 12 17  1  0  0  0
 12 28  2  0  0  0
 13 28  1  0  0  0
 13 29  2  0  0  0
 13 58  1  0  0  0
 14 29  1  0  0  0
 14 31  1  0  0  0
 15 30  2  0  0  0
 15 41  1  0  0  0
 16 17  2  0  0  0
 16 18  1  0  0  0
 16 30  1  0  0  0
 17 26  1  0  0  0
 18 23  2  0  0  0
 19 20  1  0  0  0
 19 31  1  0  0  0
 19 42  1  0  0  0
 19 43  1  0  0  0
 20 22  1  0  0  0
 20 32  1  0  0  0
 20 44  1  0  0  0
 21 32  1  0  0  0
 21 45  1  0  0  0
 22 46  1  0  0  0
 22 47  1  0  0  0
 23 48  1  0  0  0
 24 25  3  0  0  0
 25 49  1  0  0  0
 32 50  1  0  0  0
 33 51  1  0  0  0
 52 55  1  0  0  0
 52 58  1  0  0  0
 53 58  2  0  0  0
 54 55  1  0  0  0
 54 56  1  0  0  0
 54 57  1  0  0  0
 55 59  1  0  0  0
 55 60  1  0  0  0
 56 61  1  0  0  0
 56 62  1  0  0  0
 56 63  1  0  0  0
 57 64  1  0  0  0
 57 65  1  0  0  0
 57 66  1  0  0  0
M  END
> <s_m_entry_id>
661

> <s_m_entry_name>
000000503.1

> <s_m_Source_Path>
/Users/zaksoul/Documents/3r_UNI/2nd_SEMESTER/BSC/FRAG_RECON/RESULTS/2

> <s_m_Source_File>
000000503.mol2

> <i_m_Source_File_Index>
1

$$$$
No_0_525
                    3D
 Schrodinger Suite 2022-4.
 66 71  0  0  1  0            999 V2000
   -5.0590    3.8200  -22.0040 C   0  0  0  0  0  0
   -5.3010    4.0450  -23.3390 C   0  0  0  0  0  0
   -3.8370    3.5060  -21.6550 C   0  0  0  0  0  0
   -2.9160    3.6350  -23.8080 C   0  0  0  0  0  0
   -2.7820    3.3570  -22.3910 C   0  0  0  0  0  0
   -4.2440    3.9660  -24.3380 C   0  0  0  0  0  0
   -3.4630    3.9960  -26.5270 C   0  0  0  0  0  0
    6.1620    2.7380  -21.1710 C   0  0  0  0  0  0
    6.0600    2.9350  -23.7180 C   0  0  0  0  0  0
   -4.4740    4.1290  -25.6740 C   0  0  0  0  0  0
    2.3030    3.6470  -23.7660 C   0  0  0  0  0  0
    1.5280    4.7850  -23.4550 C   0  0  0  0  0  0
    3.3680    5.8880  -22.7320 C   0  0  0  0  0  0
    3.7070    3.7710  -23.4340 C   0  0  0  0  0  0
    1.7170    2.5680  -24.4550 C   0  0  0  0  0  0
   -0.3740    3.4710  -24.3520 C   0  0  0  0  0  0
    0.1980    4.6560  -23.7240 C   0  0  0  0  0  0
   -1.8210    3.5480  -24.7220 C   0  0  0  0  0  0
    4.2000    1.2440  -23.1840 C   0  0  0  0  0  0
    5.1030    0.8260  -22.0350 C   0  0  2  0  0  0
    6.7680    2.3060  -22.5240 C   0  0  2  0  0  0
    5.1150    1.8050  -20.8490 C   0  0  0  0  0  0
   -2.1230    3.7480  -26.1500 C   0  0  0  0  0  0
   -1.4640    2.8740  -21.7850 C   0  0  0  0  0  0
   -0.4560    2.4720  -21.2750 C   0  0  0  0  0  0
   -0.6020    5.7300  -23.3680 F   0  0  0  0  0  0
   -3.6540    3.2290  -20.2760 F   0  0  0  0  0  0
    2.0480    5.9120  -22.8950 N   0  0  0  0  0  0
    4.2240    4.8910  -22.9610 N   0  0  0  0  0  0
    0.4110    2.5410  -24.7760 N   0  0  0  0  0  0
    4.5810    2.6870  -23.6220 N   0  0  0  0  0  0
    6.5170    0.8410  -22.5000 N   0  0  1  0  0  0
   -3.6190    4.0450  -27.9180 O   0  0  0  0  0  0
   -5.8661    3.9043  -21.2853 H   0  0  0  0  0  0
   -6.3020    4.2910  -23.6744 H   0  0  0  0  0  0
    5.7359    3.7477  -21.2659 H   0  0  0  0  0  0
    6.9388    2.6997  -20.3932 H   0  0  0  0  0  0
    6.4456    2.4909  -24.6476 H   0  0  0  0  0  0
    6.2508    4.0183  -23.7281 H   0  0  0  0  0  0
   -5.4712    4.3650  -26.0275 H   0  0  0  0  0  0
    2.3226    1.7174  -24.7462 H   0  0  0  0  0  0
    3.1517    1.2268  -22.8511 H   0  0  0  0  0  0
    4.3413    0.5559  -24.0305 H   0  0  0  0  0  0
    4.8315   -0.1822  -21.6888 H   0  0  0  0  0  0
    7.8472    2.5170  -22.5533 H   0  0  0  0  0  0
    4.1531    2.3369  -20.8066 H   0  0  0  0  0  0
    5.3823    1.2612  -19.9309 H   0  0  0  0  0  0
   -1.3460    3.7099  -26.9049 H   0  0  0  0  0  0
    0.4319    2.1181  -20.8261 H   0  0  0  0  0  0
    7.1340    0.3020  -21.7963 H   0  0  0  0  0  0
   -2.7740    3.9284  -28.3361 H   0  0  0  0  0  0
    5.3010    7.2060  -21.9900 O   0  0  0  0  0  0
    3.2460    8.1440  -22.0690 O   0  0  0  0  0  0
    6.3850    9.2730  -22.7950 N   0  0  0  0  0  0
    5.9040    8.4650  -21.6160 C   0  0  0  0  0  0
    7.3660   10.3380  -22.3920 C   0  0  0  0  0  0
    5.2670    9.8350  -23.6260 C   0  0  0  0  0  0
    3.9740    7.1790  -22.2370 C   0  0  0  0  0  0
    6.7459    8.2780  -20.9331 H   0  0  0  0  0  0
    5.1809    9.0581  -21.0369 H   0  0  0  0  0  0
    7.6869   10.8979  -23.2828 H   0  0  0  0  0  0
    6.8888   11.0272  -21.6798 H   0  0  0  0  0  0
    8.2423    9.8708  -21.9188 H   0  0  0  0  0  0
    5.6860   10.4100  -24.4650 H   0  0  0  0  0  0
    4.6511    9.0122  -24.0179 H   0  0  0  0  0  0
    4.6432   10.4948  -23.0052 H   0  0  0  0  0  0
  1  2  2  0  0  0
  1  3  1  0  0  0
  1 34  1  0  0  0
  2  6  1  0  0  0
  2 35  1  0  0  0
  3  5  2  0  0  0
  3 27  1  0  0  0
  4  5  1  0  0  0
  4  6  2  0  0  0
  4 18  1  0  0  0
  5 24  1  0  0  0
  6 10  1  0  0  0
  7 10  2  0  0  0
  7 23  1  0  0  0
  7 33  1  0  0  0
  8 21  1  0  0  0
  8 22  1  0  0  0
  8 36  1  0  0  0
  8 37  1  0  0  0
  9 21  1  0  0  0
  9 31  1  0  0  0
  9 38  1  0  0  0
  9 39  1  0  0  0
 10 40  1  0  0  0
 11 12  1  0  0  0
 11 14  2  0  0  0
 11 15  1  0  0  0
 12 17  1  0  0  0
 12 28  2  0  0  0
 13 28  1  0  0  0
 13 29  2  0  0  0
 13 58  1  0  0  0
 14 29  1  0  0  0
 14 31  1  0  0  0
 15 30  2  0  0  0
 15 41  1  0  0  0
 16 17  2  0  0  0
 16 18  1  0  0  0
 16 30  1  0  0  0
 17 26  1  0  0  0
 18 23  2  0  0  0
 19 20  1  0  0  0
 19 31  1  0  0  0
 19 42  1  0  0  0
 19 43  1  0  0  0
 20 22  1  0  0  0
 20 32  1  0  0  0
 20 44  1  0  0  0
 21 32  1  0  0  0
 21 45  1  0  0  0
 22 46  1  0  0  0
 22 47  1  0  0  0
 23 48  1  0  0  0
 24 25  3  0  0  0
 25 49  1  0  0  0
 32 50  1  0  0  0
 33 51  1  0  0  0
 52 55  1  0  0  0
 52 58  1  0  0  0
 53 58  2  0  0  0
 54 55  1  0  0  0
 54 56  1  0  0  0
 54 57  1  0  0  0
 55 59  1  0  0  0
 55 60  1  0  0  0
 56 61  1  0  0  0
 56 62  1  0  0  0
 56 63  1  0  0  0
 57 64  1  0  0  0
 57 65  1  0  0  0
 57 66  1  0  0  0
M  END
> <s_m_entry_id>
662

> <s_m_entry_name>
000000504.1

> <s_m_Source_Path>
/Users/zaksoul/Documents/3r_UNI/2nd_SEMESTER/BSC/FRAG_RECON/RESULTS/2

> <s_m_Source_File>
000000504.mol2

> <i_m_Source_File_Index>
1

$$$$
No_0_526
                    3D
 Schrodinger Suite 2022-4.
 66 71  0  0  1  0            999 V2000
   -5.0190    3.5170  -21.8480 C   0  0  0  0  0  0
   -5.2660    3.7480  -23.1800 C   0  0  0  0  0  0
   -3.7940    3.2130  -21.5030 C   0  0  0  0  0  0
   -2.8780    3.3640  -23.6580 C   0  0  0  0  0  0
   -2.7390    3.0780  -22.2430 C   0  0  0  0  0  0
   -4.2110    3.6850  -24.1830 C   0  0  0  0  0  0
   -3.4360    3.7370  -26.3730 C   0  0  0  0  0  0
    6.2140    2.5370  -21.0470 C   0  0  0  0  0  0
    6.1040    2.7490  -23.5930 C   0  0  0  0  0  0
   -4.4460    3.8550  -25.5170 C   0  0  0  0  0  0
    2.3400    3.4260  -23.6280 C   0  0  0  0  0  0
    1.5550    4.5540  -23.3080 C   0  0  0  0  0  0
    3.3860    5.6700  -22.5820 C   0  0  0  0  0  0
    3.7430    3.5610  -23.2990 C   0  0  0  0  0  0
    1.7620    2.3450  -24.3230 C   0  0  0  0  0  0
   -0.3370    3.2280  -24.2090 C   0  0  0  0  0  0
    0.2250    4.4140  -23.5740 C   0  0  0  0  0  0
   -1.7860    3.2930  -24.5750 C   0  0  0  0  0  0
    4.2610    1.0370  -23.0660 C   0  0  0  0  0  0
    5.1710    0.6200  -21.9210 C   0  0  2  0  0  0
    6.8200    2.1190  -22.4040 C   0  0  2  0  0  0
    5.1770    1.5920  -20.7290 C   0  0  0  0  0  0
   -2.0920    3.4990  -26.0010 C   0  0  0  0  0  0
   -1.4150    2.6040  -21.6440 C   0  0  0  0  0  0
   -0.4020    2.2080  -21.1380 C   0  0  0  0  0  0
   -0.5840    5.4780  -23.2100 F   0  0  0  0  0  0
   -3.6040    2.9280  -20.1260 F   0  0  0  0  0  0
    2.0660    5.6820  -22.7420 N   0  0  0  0  0  0
    4.2510    4.6830  -22.8190 N   0  0  0  0  0  0
    0.4560    2.3080  -24.6410 N   0  0  0  0  0  0
    4.6270    2.4870  -23.4950 N   0  0  0  0  0  0
    6.5840    0.6520  -22.3900 N   0  0  1  0  0  0
   -3.5950    3.7930  -27.7640 O   0  0  0  0  0  0
   -5.8248    3.5892  -21.1265 H   0  0  0  0  0  0
   -6.2701    3.9857  -23.5120 H   0  0  0  0  0  0
    5.7781    3.5430  -21.1358 H   0  0  0  0  0  0
    6.9934    2.5007  -20.2716 H   0  0  0  0  0  0
    6.4914    2.3142  -24.5262 H   0  0  0  0  0  0
    6.2837    3.8342  -23.5970 H   0  0  0  0  0  0
   -5.4462    4.0840  -25.8665 H   0  0  0  0  0  0
    2.3757    1.5023  -24.6203 H   0  0  0  0  0  0
    3.2137    1.0077  -22.7310 H   0  0  0  0  0  0
    4.4074    0.3556  -23.9170 H   0  0  0  0  0  0
    4.9095   -0.3928  -21.5807 H   0  0  0  0  0  0
    7.8971    2.3399  -22.4353 H   0  0  0  0  0  0
    4.2103    2.1147  -20.6806 H   0  0  0  0  0  0
    5.4505    1.0450  -19.8147 H   0  0  0  0  0  0
   -1.3167    3.4729  -26.7582 H   0  0  0  0  0  0
    0.4901    1.8599  -20.6929 H   0  0  0  0  0  0
    7.2072    0.1143  -21.6908 H   0  0  0  0  0  0
   -2.7498    3.6871  -28.1846 H   0  0  0  0  0  0
    5.3160    7.1330  -22.1850 O   0  0  0  0  0  0
    3.2400    7.8020  -21.5920 O   0  0  0  0  0  0
    5.9400    9.4000  -22.9370 N   0  0  0  0  0  0
    5.8780    8.4080  -21.8020 C   0  0  0  0  0  0
    6.8890   10.5310  -22.6530 C   0  0  0  0  0  0
    4.5880    9.9050  -23.3600 C   0  0  0  0  0  0
    3.9800    6.9640  -22.0800 C   0  0  0  0  0  0
    6.8887    8.2549  -21.3957 H   0  0  0  0  0  0
    5.2880    8.8340  -20.9771 H   0  0  0  0  0  0
    6.8990   11.2252  -23.5062 H   0  0  0  0  0  0
    6.5631   11.0668  -21.7493 H   0  0  0  0  0  0
    7.9010   10.1300  -22.4950 H   0  0  0  0  0  0
    4.7061   10.6213  -24.1864 H   0  0  0  0  0  0
    3.9689    9.0589  -23.6930 H   0  0  0  0  0  0
    4.0999   10.4041  -22.5099 H   0  0  0  0  0  0
  1  2  2  0  0  0
  1  3  1  0  0  0
  1 34  1  0  0  0
  2  6  1  0  0  0
  2 35  1  0  0  0
  3  5  2  0  0  0
  3 27  1  0  0  0
  4  5  1  0  0  0
  4  6  2  0  0  0
  4 18  1  0  0  0
  5 24  1  0  0  0
  6 10  1  0  0  0
  7 10  2  0  0  0
  7 23  1  0  0  0
  7 33  1  0  0  0
  8 21  1  0  0  0
  8 22  1  0  0  0
  8 36  1  0  0  0
  8 37  1  0  0  0
  9 21  1  0  0  0
  9 31  1  0  0  0
  9 38  1  0  0  0
  9 39  1  0  0  0
 10 40  1  0  0  0
 11 12  1  0  0  0
 11 14  2  0  0  0
 11 15  1  0  0  0
 12 17  1  0  0  0
 12 28  2  0  0  0
 13 28  1  0  0  0
 13 29  2  0  0  0
 13 58  1  0  0  0
 14 29  1  0  0  0
 14 31  1  0  0  0
 15 30  2  0  0  0
 15 41  1  0  0  0
 16 17  2  0  0  0
 16 18  1  0  0  0
 16 30  1  0  0  0
 17 26  1  0  0  0
 18 23  2  0  0  0
 19 20  1  0  0  0
 19 31  1  0  0  0
 19 42  1  0  0  0
 19 43  1  0  0  0
 20 22  1  0  0  0
 20 32  1  0  0  0
 20 44  1  0  0  0
 21 32  1  0  0  0
 21 45  1  0  0  0
 22 46  1  0  0  0
 22 47  1  0  0  0
 23 48  1  0  0  0
 24 25  3  0  0  0
 25 49  1  0  0  0
 32 50  1  0  0  0
 33 51  1  0  0  0
 52 55  1  0  0  0
 52 58  1  0  0  0
 53 58  2  0  0  0
 54 55  1  0  0  0
 54 56  1  0  0  0
 54 57  1  0  0  0
 55 59  1  0  0  0
 55 60  1  0  0  0
 56 61  1  0  0  0
 56 62  1  0  0  0
 56 63  1  0  0  0
 57 64  1  0  0  0
 57 65  1  0  0  0
 57 66  1  0  0  0
M  END
> <s_m_entry_id>
663

> <s_m_entry_name>
000000505.1

> <s_m_Source_Path>
/Users/zaksoul/Documents/3r_UNI/2nd_SEMESTER/BSC/FRAG_RECON/RESULTS/2

> <s_m_Source_File>
000000505.mol2

> <i_m_Source_File_Index>
1

$$$$
No_0_527
                    3D
 Schrodinger Suite 2022-4.
 66 71  0  0  1  0            999 V2000
   -5.0250    3.6720  -22.0380 C   0  0  0  0  0  0
   -5.2690    3.8900  -23.3730 C   0  0  0  0  0  0
   -3.7980    3.3810  -21.6870 C   0  0  0  0  0  0
   -2.8770    3.5190  -23.8390 C   0  0  0  0  0  0
   -2.7400    3.2470  -22.4210 C   0  0  0  0  0  0
   -4.2100    3.8260  -24.3720 C   0  0  0  0  0  0
   -3.4270    3.8640  -26.5600 C   0  0  0  0  0  0
    6.2120    2.7850  -21.1890 C   0  0  0  0  0  0
    6.1090    2.9730  -23.7370 C   0  0  0  0  0  0
   -4.4410    3.9820  -25.7080 C   0  0  0  0  0  0
    2.3410    3.6220  -23.7920 C   0  0  0  0  0  0
    1.5460    4.7460  -23.4840 C   0  0  0  0  0  0
    3.3660    5.8830  -22.7620 C   0  0  0  0  0  0
    3.7420    3.7700  -23.4580 C   0  0  0  0  0  0
    1.7740    2.5300  -24.4780 C   0  0  0  0  0  0
   -0.3320    3.3980  -24.3800 C   0  0  0  0  0  0
    0.2190    4.5940  -23.7540 C   0  0  0  0  0  0
   -1.7800    3.4480  -24.7520 C   0  0  0  0  0  0
    4.2780    1.2530  -23.2010 C   0  0  0  0  0  0
    5.1870    0.8530  -22.0490 C   0  0  2  0  0  0
    6.8270    2.3600  -22.5400 C   0  0  2  0  0  0
    5.1810    1.8350  -20.8660 C   0  0  0  0  0  0
   -2.0830    3.6400  -26.1810 C   0  0  0  0  0  0
   -1.4150    2.7890  -21.8130 C   0  0  0  0  0  0
   -0.4000    2.4050  -21.3000 C   0  0  0  0  0  0
   -0.6000    5.6550  -23.4020 F   0  0  0  0  0  0
   -3.6120    3.1100  -20.3060 F   0  0  0  0  0  0
    2.0460    5.8840  -22.9270 N   0  0  0  0  0  0
    4.2400    4.9000  -22.9870 N   0  0  0  0  0  0
    0.4700    2.4810  -24.8010 N   0  0  0  0  0  0
    4.6340    2.7010  -23.6420 N   0  0  0  0  0  0
    6.6010    0.8910  -22.5130 N   0  0  1  0  0  0
   -3.5820    3.9060  -27.9510 O   0  0  0  0  0  0
   -5.8341    3.7453  -21.3203 H   0  0  0  0  0  0
   -6.2737    4.1178  -23.7102 H   0  0  0  0  0  0
    5.7690    3.7870  -21.2879 H   0  0  0  0  0  0
    6.9881    2.7618  -20.4098 H   0  0  0  0  0  0
    6.5035    2.5341  -24.6653 H   0  0  0  0  0  0
    6.2815    4.0593  -23.7501 H   0  0  0  0  0  0
   -5.4417    4.1998  -26.0633 H   0  0  0  0  0  0
    2.3947    1.6893  -24.7663 H   0  0  0  0  0  0
    3.2299    1.2177  -22.8691 H   0  0  0  0  0  0
    4.4324    0.5645  -24.0449 H   0  0  0  0  0  0
    4.9316   -0.1586  -21.7007 H   0  0  0  0  0  0
    7.9025    2.5892  -22.5693 H   0  0  0  0  0  0
    4.2106    2.3515  -20.8257 H   0  0  0  0  0  0
    5.4554    1.2983  -19.9459 H   0  0  0  0  0  0
   -1.3048    3.6129  -26.9351 H   0  0  0  0  0  0
    0.4933    2.0679  -20.8489 H   0  0  0  0  0  0
    7.2266    0.3648  -21.8072 H   0  0  0  0  0  0
   -2.7343    3.8031  -28.3674 H   0  0  0  0  0  0
    5.2090    7.4990  -22.6410 O   0  0  0  0  0  0
    3.2690    7.9000  -21.5510 O   0  0  0  0  0  0
    5.4590    9.8730  -23.2730 N   0  0  0  0  0  0
    5.7340    8.7910  -22.2600 C   0  0  0  0  0  0
    6.3510   11.0680  -23.0860 C   0  0  0  0  0  0
    4.0110   10.2680  -23.3420 C   0  0  0  0  0  0
    3.9490    7.1860  -22.2690 C   0  0  0  0  0  0
    6.8188    8.7100  -22.0970 H   0  0  0  0  0  0
    5.3109    9.0841  -21.2878 H   0  0  0  0  0  0
    6.1130   11.8269  -23.8459 H   0  0  0  0  0  0
    6.1921   11.4918  -22.0834 H   0  0  0  0  0  0
    7.4024   10.7622  -23.1909 H   0  0  0  0  0  0
    3.8811   11.0577  -24.0967 H   0  0  0  0  0  0
    3.4038    9.3937  -23.6191 H   0  0  0  0  0  0
    3.6850   10.6440  -22.3610 H   0  0  0  0  0  0
  1  2  2  0  0  0
  1  3  1  0  0  0
  1 34  1  0  0  0
  2  6  1  0  0  0
  2 35  1  0  0  0
  3  5  2  0  0  0
  3 27  1  0  0  0
  4  5  1  0  0  0
  4  6  2  0  0  0
  4 18  1  0  0  0
  5 24  1  0  0  0
  6 10  1  0  0  0
  7 10  2  0  0  0
  7 23  1  0  0  0
  7 33  1  0  0  0
  8 21  1  0  0  0
  8 22  1  0  0  0
  8 36  1  0  0  0
  8 37  1  0  0  0
  9 21  1  0  0  0
  9 31  1  0  0  0
  9 38  1  0  0  0
  9 39  1  0  0  0
 10 40  1  0  0  0
 11 12  1  0  0  0
 11 14  2  0  0  0
 11 15  1  0  0  0
 12 17  1  0  0  0
 12 28  2  0  0  0
 13 28  1  0  0  0
 13 29  2  0  0  0
 13 58  1  0  0  0
 14 29  1  0  0  0
 14 31  1  0  0  0
 15 30  2  0  0  0
 15 41  1  0  0  0
 16 17  2  0  0  0
 16 18  1  0  0  0
 16 30  1  0  0  0
 17 26  1  0  0  0
 18 23  2  0  0  0
 19 20  1  0  0  0
 19 31  1  0  0  0
 19 42  1  0  0  0
 19 43  1  0  0  0
 20 22  1  0  0  0
 20 32  1  0  0  0
 20 44  1  0  0  0
 21 32  1  0  0  0
 21 45  1  0  0  0
 22 46  1  0  0  0
 22 47  1  0  0  0
 23 48  1  0  0  0
 24 25  3  0  0  0
 25 49  1  0  0  0
 32 50  1  0  0  0
 33 51  1  0  0  0
 52 55  1  0  0  0
 52 58  1  0  0  0
 53 58  2  0  0  0
 54 55  1  0  0  0
 54 56  1  0  0  0
 54 57  1  0  0  0
 55 59  1  0  0  0
 55 60  1  0  0  0
 56 61  1  0  0  0
 56 62  1  0  0  0
 56 63  1  0  0  0
 57 64  1  0  0  0
 57 65  1  0  0  0
 57 66  1  0  0  0
M  END
> <s_m_entry_id>
664

> <s_m_entry_name>
000000506.1

> <s_m_Source_Path>
/Users/zaksoul/Documents/3r_UNI/2nd_SEMESTER/BSC/FRAG_RECON/RESULTS/2

> <s_m_Source_File>
000000506.mol2

> <i_m_Source_File_Index>
1

$$$$
No_0_528
                    3D
 Schrodinger Suite 2022-4.
 66 71  0  0  1  0            999 V2000
   -4.9180    3.8580  -21.9030 C   0  0  0  0  0  0
   -5.1970    4.0460  -23.2360 C   0  0  0  0  0  0
   -3.6790    3.5930  -21.5750 C   0  0  0  0  0  0
   -2.8110    3.7040  -23.7510 C   0  0  0  0  0  0
   -2.6370    3.4620  -22.3310 C   0  0  0  0  0  0
   -4.1610    3.9800  -24.2580 C   0  0  0  0  0  0
   -3.4300    3.9880  -26.4640 C   0  0  0  0  0  0
    6.3490    3.1640  -21.3050 C   0  0  0  0  0  0
    6.1830    3.3020  -23.8530 C   0  0  0  0  0  0
   -4.4260    4.1060  -25.5900 C   0  0  0  0  0  0
    2.4040    3.8890  -23.8300 C   0  0  0  0  0  0
    1.5990    5.0070  -23.5250 C   0  0  0  0  0  0
    3.4170    6.1860  -22.8680 C   0  0  0  0  0  0
    3.8100    4.0660  -23.5330 C   0  0  0  0  0  0
    1.8390    2.7760  -24.4820 C   0  0  0  0  0  0
   -0.2780    3.6130  -24.3500 C   0  0  0  0  0  0
    0.2680    4.8290  -23.7600 C   0  0  0  0  0  0
   -1.7350    3.6330  -24.6880 C   0  0  0  0  0  0
    4.3930    1.5630  -23.2410 C   0  0  0  0  0  0
    5.3350    1.2000  -22.1040 C   0  0  2  0  0  0
    6.9380    2.7230  -22.6620 C   0  0  2  0  0  0
    5.3410    2.2050  -20.9390 C   0  0  0  0  0  0
   -2.0750    3.7920  -26.1130 C   0  0  0  0  0  0
   -1.2900    3.0360  -21.7470 C   0  0  0  0  0  0
   -0.2580    2.6790  -21.2510 C   0  0  0  0  0  0
   -0.5590    5.8840  -23.4090 F   0  0  0  0  0  0
   -3.4560    3.3520  -20.1950 F   0  0  0  0  0  0
    2.0940    6.1630  -23.0010 N   0  0  0  0  0  0
    4.3000    5.2130  -23.0950 N   0  0  0  0  0  0
    0.5280    2.7000  -24.7720 N   0  0  0  0  0  0
    4.7150    3.0080  -23.7170 N   0  0  0  0  0  0
    6.7370    1.2510  -22.6020 N   0  0  1  0  0  0
   -3.6180    4.0010  -27.8520 O   0  0  0  0  0  0
   -5.7108    3.9323  -21.1674 H   0  0  0  0  0  0
   -6.2132    4.2506  -23.5530 H   0  0  0  0  0  0
    5.8870    4.1565  -21.4119 H   0  0  0  0  0  0
    7.1433    3.1690  -20.5440 H   0  0  0  0  0  0
    6.5625    2.8508  -24.7816 H   0  0  0  0  0  0
    6.3375    4.3905  -23.8904 H   0  0  0  0  0  0
   -5.4379    4.3008  -25.9263 H   0  0  0  0  0  0
    2.4663    1.9399  -24.7691 H   0  0  0  0  0  0
    3.3536    1.5186  -22.8838 H   0  0  0  0  0  0
    4.5383    0.8615  -24.0757 H   0  0  0  0  0  0
    5.1039    0.1918  -21.7296 H   0  0  0  0  0  0
    8.0087    2.9682  -22.7215 H   0  0  0  0  0  0
    4.3630    2.7056  -20.8855 H   0  0  0  0  0  0
    5.6457    1.6904  -20.0158 H   0  0  0  0  0  0
   -1.3138    3.7619  -26.8842 H   0  0  0  0  0  0
    0.6508    2.3641  -20.8151 H   0  0  0  0  0  0
    7.3873    0.7483  -21.9014 H   0  0  0  0  0  0
   -2.7791    3.9029  -28.2868 H   0  0  0  0  0  0
    3.3700    8.6390  -22.8120 O   0  0  0  0  0  0
    4.9900    7.5060  -21.7160 O   0  0  0  0  0  0
    3.1850   10.3160  -21.0100 N   0  0  0  0  0  0
    3.8510    9.9010  -22.2970 C   0  0  0  0  0  0
    3.3660   11.7800  -20.7200 C   0  0  0  0  0  0
    3.5810    9.4660  -19.8350 C   0  0  0  0  0  0
    3.9900    7.5070  -22.4140 C   0  0  0  0  0  0
    3.7021   10.6845  -23.0546 H   0  0  0  0  0  0
    4.9387    9.8420  -22.1439 H   0  0  0  0  0  0
    2.8649   12.0321  -19.7738 H   0  0  0  0  0  0
    4.4392   12.0070  -20.6380 H   0  0  0  0  0  0
    2.9282   12.3728  -21.5367 H   0  0  0  0  0  0
    3.0618    9.8211  -18.9326 H   0  0  0  0  0  0
    3.3041    8.4192  -20.0290 H   0  0  0  0  0  0
    4.6682    9.5340  -19.6820 H   0  0  0  0  0  0
  1  2  2  0  0  0
  1  3  1  0  0  0
  1 34  1  0  0  0
  2  6  1  0  0  0
  2 35  1  0  0  0
  3  5  2  0  0  0
  3 27  1  0  0  0
  4  5  1  0  0  0
  4  6  2  0  0  0
  4 18  1  0  0  0
  5 24  1  0  0  0
  6 10  1  0  0  0
  7 10  2  0  0  0
  7 23  1  0  0  0
  7 33  1  0  0  0
  8 21  1  0  0  0
  8 22  1  0  0  0
  8 36  1  0  0  0
  8 37  1  0  0  0
  9 21  1  0  0  0
  9 31  1  0  0  0
  9 38  1  0  0  0
  9 39  1  0  0  0
 10 40  1  0  0  0
 11 12  1  0  0  0
 11 14  2  0  0  0
 11 15  1  0  0  0
 12 17  1  0  0  0
 12 28  2  0  0  0
 13 28  1  0  0  0
 13 29  2  0  0  0
 13 58  1  0  0  0
 14 29  1  0  0  0
 14 31  1  0  0  0
 15 30  2  0  0  0
 15 41  1  0  0  0
 16 17  2  0  0  0
 16 18  1  0  0  0
 16 30  1  0  0  0
 17 26  1  0  0  0
 18 23  2  0  0  0
 19 20  1  0  0  0
 19 31  1  0  0  0
 19 42  1  0  0  0
 19 43  1  0  0  0
 20 22  1  0  0  0
 20 32  1  0  0  0
 20 44  1  0  0  0
 21 32  1  0  0  0
 21 45  1  0  0  0
 22 46  1  0  0  0
 22 47  1  0  0  0
 23 48  1  0  0  0
 24 25  3  0  0  0
 25 49  1  0  0  0
 32 50  1  0  0  0
 33 51  1  0  0  0
 52 55  1  0  0  0
 52 58  1  0  0  0
 53 58  2  0  0  0
 54 55  1  0  0  0
 54 56  1  0  0  0
 54 57  1  0  0  0
 55 59  1  0  0  0
 55 60  1  0  0  0
 56 61  1  0  0  0
 56 62  1  0  0  0
 56 63  1  0  0  0
 57 64  1  0  0  0
 57 65  1  0  0  0
 57 66  1  0  0  0
M  END
> <s_m_entry_id>
665

> <s_m_entry_name>
000000507.1

> <s_m_Source_Path>
/Users/zaksoul/Documents/3r_UNI/2nd_SEMESTER/BSC/FRAG_RECON/RESULTS/2

> <s_m_Source_File>
000000507.mol2

> <i_m_Source_File_Index>
1

$$$$
No_0_529
                    3D
 Schrodinger Suite 2022-4.
 66 71  0  0  1  0            999 V2000
   -4.9170    3.7840  -21.6920 C   0  0  0  0  0  0
   -5.2100    3.9640  -23.0230 C   0  0  0  0  0  0
   -3.6820    3.4810  -21.3800 C   0  0  0  0  0  0
   -2.8450    3.5350  -23.5700 C   0  0  0  0  0  0
   -2.6570    3.3060  -22.1510 C   0  0  0  0  0  0
   -4.1930    3.8490  -24.0600 C   0  0  0  0  0  0
   -3.4970    3.8040  -26.2770 C   0  0  0  0  0  0
    6.3290    2.7200  -21.2580 C   0  0  0  0  0  0
    6.1280    2.8300  -23.8050 C   0  0  0  0  0  0
   -4.4740    3.9680  -25.3900 C   0  0  0  0  0  0
    2.3720    3.5450  -23.7310 C   0  0  0  0  0  0
    1.6090    4.6930  -23.4290 C   0  0  0  0  0  0
    3.4750    5.8180  -22.8160 C   0  0  0  0  0  0
    3.7870    3.6780  -23.4580 C   0  0  0  0  0  0
    1.7590    2.4430  -24.3600 C   0  0  0  0  0  0
   -0.3260    3.3510  -24.2070 C   0  0  0  0  0  0
    0.2690    4.5560  -23.6420 C   0  0  0  0  0  0
   -1.7870    3.4160  -24.5230 C   0  0  0  0  0  0
    4.2900    1.1610  -23.1420 C   0  0  0  0  0  0
    5.2380    0.7810  -22.0140 C   0  0  2  0  0  0
    6.8820    2.2420  -22.6180 C   0  0  2  0  0  0
    5.2960    1.8000  -20.8640 C   0  0  0  0  0  0
   -2.1430    3.5680  -25.9440 C   0  0  0  0  0  0
   -1.3160    2.8420  -21.5810 C   0  0  0  0  0  0
   -0.2880    2.4570  -21.0970 C   0  0  0  0  0  0
   -0.5160    5.6420  -23.2920 F   0  0  0  0  0  0
   -3.4450    3.2510  -20.0000 F   0  0  0  0  0  0
    2.1500    5.8370  -22.9290 N   0  0  0  0  0  0
    4.3220    4.8130  -23.0440 N   0  0  0  0  0  0
    0.4430    2.4070  -24.6290 N   0  0  0  0  0  0
    4.6530    2.5880  -23.6420 N   0  0  0  0  0  0
    6.6330    0.7790  -22.5350 N   0  0  1  0  0  0
   -3.7070    3.8060  -27.6620 O   0  0  0  0  0  0
   -5.6955    3.8935  -20.9457 H   0  0  0  0  0  0
   -6.2234    4.1988  -23.3280 H   0  0  0  0  0  0
    5.8991    3.7262  -21.3710 H   0  0  0  0  0  0
    7.1350    2.7079  -20.5095 H   0  0  0  0  0  0
    6.4775    2.3543  -24.7332 H   0  0  0  0  0  0
    6.3176    3.9122  -23.8595 H   0  0  0  0  0  0
   -5.4845    4.1918  -25.7121 H   0  0  0  0  0  0
    2.3537    1.5826  -24.6448 H   0  0  0  0  0  0
    3.2557    1.1560  -22.7676 H   0  0  0  0  0  0
    4.3990    0.4434  -23.9686 H   0  0  0  0  0  0
    4.9795   -0.2146  -21.6242 H   0  0  0  0  0  0
    7.9591    2.4510  -22.6967 H   0  0  0  0  0  0
    4.3362    2.3339  -20.8024 H   0  0  0  0  0  0
    5.5977    1.2874  -19.9387 H   0  0  0  0  0  0
   -1.3962    3.5028  -26.7270 H   0  0  0  0  0  0
    0.6163    2.1179  -20.6699 H   0  0  0  0  0  0
    7.2768    0.2635  -21.8377 H   0  0  0  0  0  0
   -2.8787    3.6744  -28.1083 H   0  0  0  0  0  0
    3.3660    8.2520  -22.5180 O   0  0  0  0  0  0
    5.2380    7.1190  -21.9530 O   0  0  0  0  0  0
    3.5700    9.7580  -20.5730 N   0  0  0  0  0  0
    3.9170    9.4900  -22.0160 C   0  0  0  0  0  0
    3.7700   11.2000  -20.1980 C   0  0  0  0  0  0
    4.2660    8.8340  -19.6130 C   0  0  0  0  0  0
    4.0990    7.1250  -22.3890 C   0  0  0  0  0  0
    3.5638   10.3254  -22.6383 H   0  0  0  0  0  0
    5.0108    9.4760  -22.1321 H   0  0  0  0  0  0
    3.5050   11.3440  -19.1401 H   0  0  0  0  0  0
    4.8233   11.4771  -20.3520 H   0  0  0  0  0  0
    3.1279   11.8351  -20.8261 H   0  0  0  0  0  0
    3.9701    9.0839  -18.5834 H   0  0  0  0  0  0
    3.9830    7.7940  -19.8330 H   0  0  0  0  0  0
    5.3550    8.9480  -19.7180 H   0  0  0  0  0  0
  1  2  2  0  0  0
  1  3  1  0  0  0
  1 34  1  0  0  0
  2  6  1  0  0  0
  2 35  1  0  0  0
  3  5  2  0  0  0
  3 27  1  0  0  0
  4  5  1  0  0  0
  4  6  2  0  0  0
  4 18  1  0  0  0
  5 24  1  0  0  0
  6 10  1  0  0  0
  7 10  2  0  0  0
  7 23  1  0  0  0
  7 33  1  0  0  0
  8 21  1  0  0  0
  8 22  1  0  0  0
  8 36  1  0  0  0
  8 37  1  0  0  0
  9 21  1  0  0  0
  9 31  1  0  0  0
  9 38  1  0  0  0
  9 39  1  0  0  0
 10 40  1  0  0  0
 11 12  1  0  0  0
 11 14  2  0  0  0
 11 15  1  0  0  0
 12 17  1  0  0  0
 12 28  2  0  0  0
 13 28  1  0  0  0
 13 29  2  0  0  0
 13 58  1  0  0  0
 14 29  1  0  0  0
 14 31  1  0  0  0
 15 30  2  0  0  0
 15 41  1  0  0  0
 16 17  2  0  0  0
 16 18  1  0  0  0
 16 30  1  0  0  0
 17 26  1  0  0  0
 18 23  2  0  0  0
 19 20  1  0  0  0
 19 31  1  0  0  0
 19 42  1  0  0  0
 19 43  1  0  0  0
 20 22  1  0  0  0
 20 32  1  0  0  0
 20 44  1  0  0  0
 21 32  1  0  0  0
 21 45  1  0  0  0
 22 46  1  0  0  0
 22 47  1  0  0  0
 23 48  1  0  0  0
 24 25  3  0  0  0
 25 49  1  0  0  0
 32 50  1  0  0  0
 33 51  1  0  0  0
 52 55  1  0  0  0
 52 58  1  0  0  0
 53 58  2  0  0  0
 54 55  1  0  0  0
 54 56  1  0  0  0
 54 57  1  0  0  0
 55 59  1  0  0  0
 55 60  1  0  0  0
 56 61  1  0  0  0
 56 62  1  0  0  0
 56 63  1  0  0  0
 57 64  1  0  0  0
 57 65  1  0  0  0
 57 66  1  0  0  0
M  END
> <s_m_entry_id>
666

> <s_m_entry_name>
000000508.1

> <s_m_Source_Path>
/Users/zaksoul/Documents/3r_UNI/2nd_SEMESTER/BSC/FRAG_RECON/RESULTS/2

> <s_m_Source_File>
000000508.mol2

> <i_m_Source_File_Index>
1

$$$$
No_0_530
                    3D
 Schrodinger Suite 2022-4.
 70 76  0  0  1  0            999 V2000
   -5.0020    3.5170  -21.9270 C   0  0  0  0  0  0
   -5.2880    3.7020  -23.2590 C   0  0  0  0  0  0
   -3.7610    3.2520  -21.6050 C   0  0  0  0  0  0
   -2.9050    3.3580  -23.7860 C   0  0  0  0  0  0
   -2.7230    3.1190  -22.3670 C   0  0  0  0  0  0
   -4.2580    3.6320  -24.2860 C   0  0  0  0  0  0
   -3.5390    3.6350  -26.4960 C   0  0  0  0  0  0
    6.2670    2.8200  -21.3880 C   0  0  0  0  0  0
    6.0880    2.9510  -23.9360 C   0  0  0  0  0  0
   -4.5300    3.7560  -25.6180 C   0  0  0  0  0  0
    2.3100    3.5410  -23.8930 C   0  0  0  0  0  0
    1.5060    4.6600  -23.5870 C   0  0  0  0  0  0
    3.3280    5.8390  -22.9430 C   0  0  0  0  0  0
    3.7170    3.7180  -23.6040 C   0  0  0  0  0  0
    1.7410    2.4260  -24.5400 C   0  0  0  0  0  0
   -0.3760    3.2640  -24.3980 C   0  0  0  0  0  0
    0.1740    4.4810  -23.8140 C   0  0  0  0  0  0
   -1.8340    3.2840  -24.7290 C   0  0  0  0  0  0
    4.3000    1.2150  -23.3090 C   0  0  0  0  0  0
    5.2490    0.8550  -22.1760 C   0  0  2  0  0  0
    6.8490    2.3750  -22.7470 C   0  0  2  0  0  0
    5.2610    1.8620  -21.0140 C   0  0  0  0  0  0
   -2.1810    3.4390  -26.1520 C   0  0  0  0  0  0
   -1.3740    2.6940  -21.7880 C   0  0  0  0  0  0
   -0.3390    2.3370  -21.2980 C   0  0  0  0  0  0
   -0.6500    5.5370  -23.4620 F   0  0  0  0  0  0
   -3.5310    3.0150  -20.2250 F   0  0  0  0  0  0
    2.0050    5.8160  -23.0690 N   0  0  0  0  0  0
    4.2100    4.8660  -23.1730 N   0  0  0  0  0  0
    0.4280    2.3500  -24.8230 N   0  0  0  0  0  0
    4.6210    2.6590  -23.7910 N   0  0  0  0  0  0
    6.6480    0.9040  -22.6820 N   0  0  1  0  0  0
   -3.7350    3.6440  -27.8830 O   0  0  0  0  0  0
   -5.7908    3.5933  -21.1874 H   0  0  0  0  0  0
   -6.3057    3.9067  -23.5711 H   0  0  0  0  0  0
    5.8059    3.8129  -21.4950 H   0  0  0  0  0  0
    7.0662    2.8261  -20.6322 H   0  0  0  0  0  0
    6.4625    2.4978  -24.8657 H   0  0  0  0  0  0
    6.2423    4.0394  -23.9763 H   0  0  0  0  0  0
   -5.5441    3.9498  -25.9483 H   0  0  0  0  0  0
    2.3664    1.5888  -24.8281 H   0  0  0  0  0  0
    3.2623    1.1716  -22.9466 H   0  0  0  0  0  0
    4.4412    0.5109  -24.1422 H   0  0  0  0  0  0
    5.0200   -0.1526  -21.7988 H   0  0  0  0  0  0
    7.9193    2.6201  -22.8126 H   0  0  0  0  0  0
    4.2837    2.3638  -20.9575 H   0  0  0  0  0  0
    5.5709    1.3493  -20.0915 H   0  0  0  0  0  0
   -1.4244    3.4079  -26.9277 H   0  0  0  0  0  0
    0.5723    2.0239  -20.8659 H   0  0  0  0  0  0
    7.3022    0.4027  -21.9840 H   0  0  0  0  0  0
   -2.8984    3.5451  -28.3221 H   0  0  0  0  0  0
    5.0110    7.1160  -21.7220 O   0  0  0  0  0  0
    3.3690    8.2040  -22.8330 O   0  0  0  0  0  0
    8.1770   10.1100  -24.2150 N   0  0  0  0  0  0
    6.5310   11.7320  -24.7140 N   0  0  0  0  0  0
    6.5160    8.9810  -22.3420 C   0  0  3  0  0  0
    6.9430   10.6390  -24.0010 C   0  0  0  0  0  0
    6.1010   10.0670  -23.0520 C   0  0  0  0  0  0
    8.6010    9.0200  -23.5030 C   0  0  0  0  0  0
    7.7930    8.4540  -22.5780 C   0  0  0  0  0  0
    5.6020    8.3610  -21.2950 C   0  0  0  0  0  0
    3.9040    7.1610  -22.4950 C   0  0  0  0  0  0
    8.8032   10.5291  -24.9172 H   0  0  0  0  0  0
    5.5954   12.1303  -24.5499 H   0  0  0  0  0  0
    7.1560   12.1550  -25.4150 H   0  0  0  0  0  0
    5.1162   10.4849  -22.8770 H   0  0  0  0  0  0
    9.5874    8.6068  -23.6801 H   0  0  0  0  0  0
    8.1359    7.5914  -22.0182 H   0  0  0  0  0  0
    6.1691    8.1970  -20.3668 H   0  0  0  0  0  0
    4.8055    9.0744  -21.0368 H   0  0  0  0  0  0
  1  2  2  0  0  0
  1  3  1  0  0  0
  1 34  1  0  0  0
  2  6  1  0  0  0
  2 35  1  0  0  0
  3  5  2  0  0  0
  3 27  1  0  0  0
  4  5  1  0  0  0
  4  6  2  0  0  0
  4 18  1  0  0  0
  5 24  1  0  0  0
  6 10  1  0  0  0
  7 10  2  0  0  0
  7 23  1  0  0  0
  7 33  1  0  0  0
  8 21  1  0  0  0
  8 22  1  0  0  0
  8 36  1  0  0  0
  8 37  1  0  0  0
  9 21  1  0  0  0
  9 31  1  0  0  0
  9 38  1  0  0  0
  9 39  1  0  0  0
 10 40  1  0  0  0
 11 12  2  0  0  0
 11 14  1  0  0  0
 11 15  1  0  0  0
 12 17  1  0  0  0
 12 28  1  0  0  0
 13 28  2  0  0  0
 13 29  1  0  0  0
 13 62  1  0  0  0
 14 29  2  0  0  0
 14 31  1  0  0  0
 15 30  2  0  0  0
 15 41  1  0  0  0
 16 17  2  0  0  0
 16 18  1  0  0  0
 16 30  1  0  0  0
 17 26  1  0  0  0
 18 23  2  0  0  0
 19 20  1  0  0  0
 19 31  1  0  0  0
 19 42  1  0  0  0
 19 43  1  0  0  0
 20 22  1  0  0  0
 20 32  1  0  0  0
 20 44  1  0  0  0
 21 32  1  0  0  0
 21 45  1  0  0  0
 22 46  1  0  0  0
 22 47  1  0  0  0
 23 48  1  0  0  0
 24 25  3  0  0  0
 25 49  1  0  0  0
 32 50  1  0  0  0
 33 51  1  0  0  0
 52 61  1  0  0  0
 52 62  1  0  0  0
 53 62  2  0  0  0
 54 57  1  0  0  0
 54 59  1  0  0  0
 54 63  1  0  0  0
 55 57  1  0  0  0
 55 64  1  0  0  0
 55 65  1  0  0  0
 56 58  1  0  0  0
 56 60  1  0  0  0
 56 61  1  0  0  0
 57 58  2  0  0  0
 58 66  1  0  0  0
 59 60  2  0  0  0
 59 67  1  0  0  0
 60 68  1  0  0  0
 61 69  1  0  0  0
 61 70  1  0  0  0
M  END
> <s_m_entry_id>
667

> <s_m_entry_name>
000000509.1

> <s_m_Source_Path>
/Users/zaksoul/Documents/3r_UNI/2nd_SEMESTER/BSC/FRAG_RECON/RESULTS/2

> <s_m_Source_File>
000000509.mol2

> <i_m_Source_File_Index>
1

$$$$
No_0_531
                    3D
 Schrodinger Suite 2022-4.
 70 76  0  0  1  0            999 V2000
   -4.8750    3.6050  -21.5430 C   0  0  0  0  0  0
   -5.1700    3.8350  -22.8660 C   0  0  0  0  0  0
   -3.6400    3.2910  -21.2440 C   0  0  0  0  0  0
   -2.8050    3.4280  -23.4310 C   0  0  0  0  0  0
   -2.6150    3.1450  -22.0220 C   0  0  0  0  0  0
   -4.1540    3.7600  -23.9070 C   0  0  0  0  0  0
   -3.4610    3.7990  -26.1260 C   0  0  0  0  0  0
    6.3710    2.5300  -21.1610 C   0  0  0  0  0  0
    6.1680    2.7360  -23.7020 C   0  0  0  0  0  0
   -4.4370    3.9280  -25.2320 C   0  0  0  0  0  0
    2.4110    3.4450  -23.5980 C   0  0  0  0  0  0
    1.6480    4.5810  -23.2510 C   0  0  0  0  0  0
    3.5150    5.6830  -22.5980 C   0  0  0  0  0  0
    3.8270    3.5690  -23.3210 C   0  0  0  0  0  0
    1.7990    2.3680  -24.2670 C   0  0  0  0  0  0
   -0.2870    3.2690  -24.0770 C   0  0  0  0  0  0
    0.3080    4.4520  -23.4680 C   0  0  0  0  0  0
   -1.7480    3.3450  -24.3890 C   0  0  0  0  0  0
    4.3310    1.0420  -23.1000 C   0  0  0  0  0  0
    5.2800    0.6200  -21.9890 C   0  0  2  0  0  0
    6.9230    2.1030  -22.5390 C   0  0  2  0  0  0
    5.3390    1.5950  -20.8010 C   0  0  0  0  0  0
   -2.1060    3.5510  -25.8030 C   0  0  0  0  0  0
   -1.2740    2.6610  -21.4710 C   0  0  0  0  0  0
   -0.2460    2.2580  -21.0030 C   0  0  0  0  0  0
   -0.4770    5.5240  -23.0770 F   0  0  0  0  0  0
   -3.4020    3.0090  -19.8740 F   0  0  0  0  0  0
    2.1900    5.7060  -22.7090 N   0  0  0  0  0  0
    4.3620    4.6880  -22.8650 N   0  0  0  0  0  0
    0.4820    2.3410  -24.5360 N   0  0  0  0  0  0
    4.6930    2.4870  -23.5470 N   0  0  0  0  0  0
    6.6750    0.6380  -22.5110 N   0  0  1  0  0  0
   -3.6710    3.8520  -27.5090 O   0  0  0  0  0  0
   -5.6528    3.6863  -20.7923 H   0  0  0  0  0  0
   -6.1837    4.0809  -23.1611 H   0  0  0  0  0  0
    5.9409    3.5397  -21.2357 H   0  0  0  0  0  0
    7.1785    2.4896  -20.4151 H   0  0  0  0  0  0
    6.5163    2.2958  -24.6480 H   0  0  0  0  0  0
    6.3568    3.8196  -23.7151 H   0  0  0  0  0  0
   -5.4476    4.1638  -25.5451 H   0  0  0  0  0  0
    2.3933    1.5187  -24.5842 H   0  0  0  0  0  0
    3.2968    1.0218  -22.7257 H   0  0  0  0  0  0
    4.4399    0.3562  -23.9532 H   0  0  0  0  0  0
    5.0226   -0.3894  -21.6357 H   0  0  0  0  0  0
    8.0000    2.3150  -22.6107 H   0  0  0  0  0  0
    4.3792    2.1259  -20.7182 H   0  0  0  0  0  0
    5.6417    1.0481  -19.8959 H   0  0  0  0  0  0
   -1.3603    3.5149  -26.5889 H   0  0  0  0  0  0
    0.6597    1.9041  -20.5911 H   0  0  0  0  0  0
    7.3197    0.0970  -21.8342 H   0  0  0  0  0  0
   -2.8434    3.7382  -27.9614 H   0  0  0  0  0  0
    5.3990    6.9020  -21.6410 O   0  0  0  0  0  0
    3.5050    8.0140  -22.1830 O   0  0  0  0  0  0
    7.7830   10.3740  -24.3740 N   0  0  0  0  0  0
    6.0140   11.9380  -24.2540 N   0  0  0  0  0  0
    6.6530    8.9200  -22.3360 C   0  0  3  0  0  0
    6.6190   10.7940  -23.8100 C   0  0  0  0  0  0
    6.0460   10.0580  -22.7770 C   0  0  0  0  0  0
    8.3980    9.2330  -23.9340 C   0  0  0  0  0  0
    7.8530    8.5080  -22.9310 C   0  0  0  0  0  0
    6.0350    8.1200  -21.1990 C   0  0  0  0  0  0
    4.1390    6.9730  -22.1230 C   0  0  0  0  0  0
    8.2101   10.9152  -25.1392 H   0  0  0  0  0  0
    5.1326   12.2541  -23.8248 H   0  0  0  0  0  0
    6.4407   12.4836  -25.0164 H   0  0  0  0  0  0
    5.1181   10.3880  -22.3240 H   0  0  0  0  0  0
    9.3267    8.9081  -24.3889 H   0  0  0  0  0  0
    8.3458    7.6054  -22.5882 H   0  0  0  0  0  0
    6.8120    7.8780  -20.4590 H   0  0  0  0  0  0
    5.3004    8.7445  -20.6696 H   0  0  0  0  0  0
  1  2  2  0  0  0
  1  3  1  0  0  0
  1 34  1  0  0  0
  2  6  1  0  0  0
  2 35  1  0  0  0
  3  5  2  0  0  0
  3 27  1  0  0  0
  4  5  1  0  0  0
  4  6  2  0  0  0
  4 18  1  0  0  0
  5 24  1  0  0  0
  6 10  1  0  0  0
  7 10  2  0  0  0
  7 23  1  0  0  0
  7 33  1  0  0  0
  8 21  1  0  0  0
  8 22  1  0  0  0
  8 36  1  0  0  0
  8 37  1  0  0  0
  9 21  1  0  0  0
  9 31  1  0  0  0
  9 38  1  0  0  0
  9 39  1  0  0  0
 10 40  1  0  0  0
 11 12  2  0  0  0
 11 14  1  0  0  0
 11 15  1  0  0  0
 12 17  1  0  0  0
 12 28  1  0  0  0
 13 28  2  0  0  0
 13 29  1  0  0  0
 13 62  1  0  0  0
 14 29  2  0  0  0
 14 31  1  0  0  0
 15 30  2  0  0  0
 15 41  1  0  0  0
 16 17  2  0  0  0
 16 18  1  0  0  0
 16 30  1  0  0  0
 17 26  1  0  0  0
 18 23  2  0  0  0
 19 20  1  0  0  0
 19 31  1  0  0  0
 19 42  1  0  0  0
 19 43  1  0  0  0
 20 22  1  0  0  0
 20 32  1  0  0  0
 20 44  1  0  0  0
 21 32  1  0  0  0
 21 45  1  0  0  0
 22 46  1  0  0  0
 22 47  1  0  0  0
 23 48  1  0  0  0
 24 25  3  0  0  0
 25 49  1  0  0  0
 32 50  1  0  0  0
 33 51  1  0  0  0
 52 61  1  0  0  0
 52 62  1  0  0  0
 53 62  2  0  0  0
 54 57  1  0  0  0
 54 59  1  0  0  0
 54 63  1  0  0  0
 55 57  1  0  0  0
 55 64  1  0  0  0
 55 65  1  0  0  0
 56 58  1  0  0  0
 56 60  1  0  0  0
 56 61  1  0  0  0
 57 58  2  0  0  0
 58 66  1  0  0  0
 59 60  2  0  0  0
 59 67  1  0  0  0
 60 68  1  0  0  0
 61 69  1  0  0  0
 61 70  1  0  0  0
M  END
> <s_m_entry_id>
668

> <s_m_entry_name>
000000510.1

> <s_m_Source_Path>
/Users/zaksoul/Documents/3r_UNI/2nd_SEMESTER/BSC/FRAG_RECON/RESULTS/2

> <s_m_Source_File>
000000510.mol2

> <i_m_Source_File_Index>
1

$$$$
No_0_532
                    3D
 Schrodinger Suite 2022-4.
 72 78  0  0  1  0            999 V2000
   -5.1810    3.6090  -21.8530 C   0  0  0  0  0  0
   -5.4520    3.8050  -23.1860 C   0  0  0  0  0  0
   -3.9420    3.3510  -21.5190 C   0  0  0  0  0  0
   -3.0590    3.4860  -23.6870 C   0  0  0  0  0  0
   -2.8930    3.2340  -22.2690 C   0  0  0  0  0  0
   -4.4090    3.7540  -24.2010 C   0  0  0  0  0  0
   -3.6630    3.7850  -26.4030 C   0  0  0  0  0  0
    6.0870    3.0010  -21.1820 C   0  0  0  0  0  0
    5.9380    3.1560  -23.7310 C   0  0  0  0  0  0
   -4.6650    3.8890  -25.5350 C   0  0  0  0  0  0
    2.1540    3.7130  -23.7290 C   0  0  0  0  0  0
    1.3370    4.8230  -23.4210 C   0  0  0  0  0  0
    3.1410    6.0110  -22.7430 C   0  0  0  0  0  0
    3.5570    3.8990  -23.4210 C   0  0  0  0  0  0
    1.6030    2.6010  -24.3930 C   0  0  0  0  0  0
   -0.5220    3.4190  -24.2700 C   0  0  0  0  0  0
    0.0100    4.6350  -23.6670 C   0  0  0  0  0  0
   -1.9770    3.4300  -24.6180 C   0  0  0  0  0  0
    4.1570    1.3990  -23.1440 C   0  0  0  0  0  0
    5.0950    1.0350  -22.0030 C   0  0  2  0  0  0
    6.6890    2.5740  -22.5390 C   0  0  2  0  0  0
    5.0840    2.0310  -20.8310 C   0  0  0  0  0  0
   -2.3080    3.5970  -26.0440 C   0  0  0  0  0  0
   -1.5470    2.8150  -21.6780 C   0  0  0  0  0  0
   -0.5150    2.4620  -21.1780 C   0  0  0  0  0  0
   -0.8280    5.6800  -23.3140 F   0  0  0  0  0  0
   -3.7260    3.1020  -20.1390 F   0  0  0  0  0  0
    1.8200    5.9780  -22.8860 N   0  0  0  0  0  0
    4.0350    5.0470  -22.9720 N   0  0  0  0  0  0
    0.2950    2.5160  -24.6930 N   0  0  0  0  0  0
    4.4710    2.8500  -23.6070 N   0  0  0  0  0  0
    6.5000    1.1010  -22.4910 N   0  0  1  0  0  0
   -3.8410    3.8060  -27.7920 O   0  0  0  0  0  0
   -5.9796    3.6712  -21.1226 H   0  0  0  0  0  0
   -6.4675    4.0037  -23.5091 H   0  0  0  0  0  0
    5.6179    3.9906  -21.2849 H   0  0  0  0  0  0
    6.8763    3.0060  -20.4159 H   0  0  0  0  0  0
    6.3275    2.7150  -24.6604 H   0  0  0  0  0  0
    6.0833    4.2460  -23.7593 H   0  0  0  0  0  0
   -5.6765    4.0776  -25.8762 H   0  0  0  0  0  0
    2.2385    1.7718  -24.6821 H   0  0  0  0  0  0
    3.1157    1.3435  -22.7939 H   0  0  0  0  0  0
    4.3144    0.7047  -23.9826 H   0  0  0  0  0  0
    4.8700    0.0218  -21.6387 H   0  0  0  0  0  0
    7.7578    2.8293  -22.5885 H   0  0  0  0  0  0
    4.1018    2.5236  -20.7805 H   0  0  0  0  0  0
    5.3877    1.5123  -19.9097 H   0  0  0  0  0  0
   -1.5411    3.5789  -26.8099 H   0  0  0  0  0  0
    0.3934    2.1519  -20.7378 H   0  0  0  0  0  0
    7.1492    0.5983  -21.7894 H   0  0  0  0  0  0
   -2.9984    3.7179  -28.2217 H   0  0  0  0  0  0
    4.7620    7.3020  -21.4370 O   0  0  0  0  0  0
    3.1760    8.3660  -22.6540 O   0  0  0  0  0  0
    6.4510    9.8150  -22.9530 N   0  0  0  0  0  0
    7.7860    8.6000  -21.7510 N   0  0  0  0  0  0
    6.5040    8.9840  -21.8960 C   0  0  0  0  0  0
    5.2650   10.4360  -23.5210 C   0  0  0  0  0  0
    7.7180    9.9560  -23.4600 C   0  0  0  0  0  0
    8.3420    7.6880  -20.7420 C   0  0  0  0  0  0
    8.5220    9.2210  -22.7280 C   0  0  0  0  0  0
    5.3400    8.5540  -21.0100 C   0  0  0  0  0  0
    3.7010    7.3330  -22.2760 C   0  0  0  0  0  0
    5.5541   11.0602  -24.3793 H   0  0  0  0  0  0
    4.5658    9.6548  -23.8541 H   0  0  0  0  0  0
    4.7790   11.0630  -22.7590 H   0  0  0  0  0  0
    7.8900   10.5941  -24.3192 H   0  0  0  0  0  0
    9.4255    7.5830  -20.8999 H   0  0  0  0  0  0
    8.1560    8.0950  -19.7371 H   0  0  0  0  0  0
    7.8618    6.7026  -20.8330 H   0  0  0  0  0  0
    9.5915    9.0551  -22.7890 H   0  0  0  0  0  0
    5.6869    8.4600  -19.9704 H   0  0  0  0  0  0
    4.5662    9.3358  -21.0170 H   0  0  0  0  0  0
  1  2  2  0  0  0
  1  3  1  0  0  0
  1 34  1  0  0  0
  2  6  1  0  0  0
  2 35  1  0  0  0
  3  5  2  0  0  0
  3 27  1  0  0  0
  4  5  1  0  0  0
  4  6  2  0  0  0
  4 18  1  0  0  0
  5 24  1  0  0  0
  6 10  1  0  0  0
  7 10  2  0  0  0
  7 23  1  0  0  0
  7 33  1  0  0  0
  8 21  1  0  0  0
  8 22  1  0  0  0
  8 36  1  0  0  0
  8 37  1  0  0  0
  9 21  1  0  0  0
  9 31  1  0  0  0
  9 38  1  0  0  0
  9 39  1  0  0  0
 10 40  1  0  0  0
 11 12  2  0  0  0
 11 14  1  0  0  0
 11 15  1  0  0  0
 12 17  1  0  0  0
 12 28  1  0  0  0
 13 28  2  0  0  0
 13 29  1  0  0  0
 13 62  1  0  0  0
 14 29  2  0  0  0
 14 31  1  0  0  0
 15 30  2  0  0  0
 15 41  1  0  0  0
 16 17  2  0  0  0
 16 18  1  0  0  0
 16 30  1  0  0  0
 17 26  1  0  0  0
 18 23  2  0  0  0
 19 20  1  0  0  0
 19 31  1  0  0  0
 19 42  1  0  0  0
 19 43  1  0  0  0
 20 22  1  0  0  0
 20 32  1  0  0  0
 20 44  1  0  0  0
 21 32  1  0  0  0
 21 45  1  0  0  0
 22 46  1  0  0  0
 22 47  1  0  0  0
 23 48  1  0  0  0
 24 25  3  0  0  0
 25 49  1  0  0  0
 32 50  1  0  0  0
 33 51  1  0  0  0
 52 61  1  0  0  0
 52 62  1  0  0  0
 53 62  2  0  0  0
 54 56  1  0  0  0
 54 57  1  0  0  0
 54 58  1  0  0  0
 55 56  1  0  0  0
 55 59  1  0  0  0
 55 60  1  0  0  0
 56 61  1  0  0  0
 57 63  1  0  0  0
 57 64  1  0  0  0
 57 65  1  0  0  0
 58 60  2  0  0  0
 58 66  1  0  0  0
 59 67  1  0  0  0
 59 68  1  0  0  0
 59 69  1  0  0  0
 60 70  1  0  0  0
 61 71  1  0  0  0
 61 72  1  0  0  0
M  END
> <s_m_entry_id>
669

> <s_m_entry_name>
000000511.1

> <s_m_Source_Path>
/Users/zaksoul/Documents/3r_UNI/2nd_SEMESTER/BSC/FRAG_RECON/RESULTS/2

> <s_m_Source_File>
000000511.mol2

> <i_m_Source_File_Index>
1

$$$$
No_0_533
                    3D
 Schrodinger Suite 2022-4.
 72 78  0  0  1  0            999 V2000
   -4.9880    3.4020  -21.9210 C   0  0  0  0  0  0
   -5.2550    3.6220  -23.2520 C   0  0  0  0  0  0
   -3.7530    3.1220  -21.5900 C   0  0  0  0  0  0
   -2.8670    3.2760  -23.7560 C   0  0  0  0  0  0
   -2.7050    3.0010  -22.3410 C   0  0  0  0  0  0
   -4.2110    3.5710  -24.2670 C   0  0  0  0  0  0
   -3.4630    3.6240  -26.4670 C   0  0  0  0  0  0
    6.2690    2.6250  -21.2520 C   0  0  0  0  0  0
    6.1250    2.8200  -23.7970 C   0  0  0  0  0  0
   -4.4650    3.7290  -25.5980 C   0  0  0  0  0  0
    2.3500    3.4310  -23.7900 C   0  0  0  0  0  0
    1.5480    4.5460  -23.4660 C   0  0  0  0  0  0
    3.3680    5.6990  -22.7690 C   0  0  0  0  0  0
    3.7540    3.5920  -23.4780 C   0  0  0  0  0  0
    1.7830    2.3360  -24.4710 C   0  0  0  0  0  0
   -0.3300    3.1820  -24.3370 C   0  0  0  0  0  0
    0.2190    4.3810  -23.7160 C   0  0  0  0  0  0
   -1.7840    3.2190  -24.6860 C   0  0  0  0  0  0
    4.3190    1.0790  -23.2380 C   0  0  0  0  0  0
    5.2500    0.6850  -22.1020 C   0  0  2  0  0  0
    6.8670    2.2100  -22.6140 C   0  0  2  0  0  0
    5.2530    1.6640  -20.9150 C   0  0  0  0  0  0
   -2.1110    3.4120  -26.1100 C   0  0  0  0  0  0
   -1.3660    2.5540  -21.7550 C   0  0  0  0  0  0
   -0.3400    2.1790  -21.2600 C   0  0  0  0  0  0
   -0.6040    5.4330  -23.3480 F   0  0  0  0  0  0
   -3.5420    2.8490  -20.2140 F   0  0  0  0  0  0
    2.0460    5.6870  -22.9140 N   0  0  0  0  0  0
    4.2480    4.7260  -23.0120 N   0  0  0  0  0  0
    0.4740    2.2740  -24.7740 N   0  0  0  0  0  0
    4.6540    2.5330  -23.6790 N   0  0  0  0  0  0
    6.6570    0.7390  -22.5880 N   0  0  1  0  0  0
   -3.6400    3.6690  -27.8550 O   0  0  0  0  0  0
   -5.7861    3.4642  -21.1901 H   0  0  0  0  0  0
   -6.2675    3.8398  -23.5721 H   0  0  0  0  0  0
    5.8145    3.6229  -21.3399 H   0  0  0  0  0  0
    7.0577    2.6068  -20.4855 H   0  0  0  0  0  0
    6.5085    2.3870  -24.7326 H   0  0  0  0  0  0
    6.2865    3.9080  -23.8091 H   0  0  0  0  0  0
   -5.4731    3.9378  -25.9374 H   0  0  0  0  0  0
    2.4070    1.5023  -24.7720 H   0  0  0  0  0  0
    3.2765    1.0336  -22.8898 H   0  0  0  0  0  0
    4.4673    0.3949  -24.0865 H   0  0  0  0  0  0
    5.0108   -0.3303  -21.7528 H   0  0  0  0  0  0
    7.9395    2.4501  -22.6594 H   0  0  0  0  0  0
    4.2778    2.1698  -20.8585 H   0  0  0  0  0  0
    5.5478    1.1269  -20.0014 H   0  0  0  0  0  0
   -1.3441    3.3949  -26.8759 H   0  0  0  0  0  0
    0.5636    1.8492  -20.8242 H   0  0  0  0  0  0
    7.2985    0.2162  -21.8941 H   0  0  0  0  0  0
   -2.7985    3.5749  -28.2857 H   0  0  0  0  0  0
    5.1700    6.9740  -21.7080 O   0  0  0  0  0  0
    3.2930    8.0270  -22.4090 O   0  0  0  0  0  0
    6.3280    9.7580  -23.2470 N   0  0  0  0  0  0
    7.9670    8.5360  -22.5240 N   0  0  0  0  0  0
    6.6670    8.8290  -22.3350 C   0  0  0  0  0  0
    5.0120   10.3380  -23.4600 C   0  0  0  0  0  0
    7.4360   10.0540  -24.0000 C   0  0  0  0  0  0
    8.7880    7.5730  -21.7790 C   0  0  0  0  0  0
    8.4250    9.3130  -23.5580 C   0  0  0  0  0  0
    5.7610    8.2160  -21.2720 C   0  0  0  0  0  0
    3.9460    7.0060  -22.2820 C   0  0  0  0  0  0
    5.0610   11.0698  -24.2798 H   0  0  0  0  0  0
    4.2986    9.5427  -23.7218 H   0  0  0  0  0  0
    4.6777   10.8404  -22.5403 H   0  0  0  0  0  0
    7.3710   10.7901  -24.7931 H   0  0  0  0  0  0
    9.8111    7.5730  -22.1830 H   0  0  0  0  0  0
    8.8140    7.8562  -20.7164 H   0  0  0  0  0  0
    8.3549    6.5668  -21.8790 H   0  0  0  0  0  0
    9.4601    9.2420  -23.8720 H   0  0  0  0  0  0
    6.3408    8.0431  -20.3533 H   0  0  0  0  0  0
    4.9639    8.9291  -21.0150 H   0  0  0  0  0  0
  1  2  2  0  0  0
  1  3  1  0  0  0
  1 34  1  0  0  0
  2  6  1  0  0  0
  2 35  1  0  0  0
  3  5  2  0  0  0
  3 27  1  0  0  0
  4  5  1  0  0  0
  4  6  2  0  0  0
  4 18  1  0  0  0
  5 24  1  0  0  0
  6 10  1  0  0  0
  7 10  2  0  0  0
  7 23  1  0  0  0
  7 33  1  0  0  0
  8 21  1  0  0  0
  8 22  1  0  0  0
  8 36  1  0  0  0
  8 37  1  0  0  0
  9 21  1  0  0  0
  9 31  1  0  0  0
  9 38  1  0  0  0
  9 39  1  0  0  0
 10 40  1  0  0  0
 11 12  2  0  0  0
 11 14  1  0  0  0
 11 15  1  0  0  0
 12 17  1  0  0  0
 12 28  1  0  0  0
 13 28  2  0  0  0
 13 29  1  0  0  0
 13 62  1  0  0  0
 14 29  2  0  0  0
 14 31  1  0  0  0
 15 30  2  0  0  0
 15 41  1  0  0  0
 16 17  2  0  0  0
 16 18  1  0  0  0
 16 30  1  0  0  0
 17 26  1  0  0  0
 18 23  2  0  0  0
 19 20  1  0  0  0
 19 31  1  0  0  0
 19 42  1  0  0  0
 19 43  1  0  0  0
 20 22  1  0  0  0
 20 32  1  0  0  0
 20 44  1  0  0  0
 21 32  1  0  0  0
 21 45  1  0  0  0
 22 46  1  0  0  0
 22 47  1  0  0  0
 23 48  1  0  0  0
 24 25  3  0  0  0
 25 49  1  0  0  0
 32 50  1  0  0  0
 33 51  1  0  0  0
 52 61  1  0  0  0
 52 62  1  0  0  0
 53 62  2  0  0  0
 54 56  1  0  0  0
 54 57  1  0  0  0
 54 58  1  0  0  0
 55 56  1  0  0  0
 55 59  1  0  0  0
 55 60  1  0  0  0
 56 61  1  0  0  0
 57 63  1  0  0  0
 57 64  1  0  0  0
 57 65  1  0  0  0
 58 60  2  0  0  0
 58 66  1  0  0  0
 59 67  1  0  0  0
 59 68  1  0  0  0
 59 69  1  0  0  0
 60 70  1  0  0  0
 61 71  1  0  0  0
 61 72  1  0  0  0
M  END
> <s_m_entry_id>
670

> <s_m_entry_name>
000000512.1

> <s_m_Source_Path>
/Users/zaksoul/Documents/3r_UNI/2nd_SEMESTER/BSC/FRAG_RECON/RESULTS/2

> <s_m_Source_File>
000000512.mol2

> <i_m_Source_File_Index>
1

$$$$
No_0_534
                    3D
 Schrodinger Suite 2022-4.
 76 82  0  0  1  0            999 V2000
   -5.2540    3.4490  -21.8340 C   0  0  0  0  0  0
   -5.5590    3.6170  -23.1640 C   0  0  0  0  0  0
   -4.0110    3.1740  -21.5270 C   0  0  0  0  0  0
   -3.1880    3.2350  -23.7230 C   0  0  0  0  0  0
   -2.9870    3.0150  -22.3030 C   0  0  0  0  0  0
   -4.5450    3.5180  -24.2060 C   0  0  0  0  0  0
   -3.8620    3.4770  -26.4270 C   0  0  0  0  0  0
    6.0140    2.6210  -21.4610 C   0  0  0  0  0  0
    5.7960    2.7150  -24.0070 C   0  0  0  0  0  0
   -4.8370    3.6240  -25.5350 C   0  0  0  0  0  0
    2.0260    3.3510  -23.9150 C   0  0  0  0  0  0
    1.2410    4.4850  -23.6130 C   0  0  0  0  0  0
    3.0870    5.6510  -23.0170 C   0  0  0  0  0  0
    3.4400    3.5150  -23.6510 C   0  0  0  0  0  0
    1.4330    2.2340  -24.5350 C   0  0  0  0  0  0
   -0.6700    3.1000  -24.3730 C   0  0  0  0  0  0
   -0.0970    4.3190  -23.8170 C   0  0  0  0  0  0
   -2.1340    3.1330  -24.6810 C   0  0  0  0  0  0
    3.9970    1.0100  -23.3260 C   0  0  0  0  0  0
    4.9590    0.6560  -22.2020 C   0  0  2  0  0  0
    6.5690    2.1470  -22.8220 C   0  0  2  0  0  0
    5.0020    1.6810  -21.0560 C   0  0  0  0  0  0
   -2.5010    3.2710  -26.1010 C   0  0  0  0  0  0
   -1.6340    2.5830  -21.7390 C   0  0  0  0  0  0
   -0.5960    2.2210  -21.2590 C   0  0  0  0  0  0
   -0.9030    5.3910  -23.4680 F   0  0  0  0  0  0
   -3.7620    2.9540  -20.1480 F   0  0  0  0  0  0
    1.7610    5.6430  -23.1220 N   0  0  0  0  0  0
    3.9540    4.6630  -23.2450 N   0  0  0  0  0  0
    0.1160    2.1690  -24.7960 N   0  0  0  0  0  0
    4.3270    2.4430  -23.8350 N   0  0  0  0  0  0
    6.3510    0.6800  -22.7310 N   0  0  1  0  0  0
   -4.0790    3.4680  -27.8100 O   0  0  0  0  0  0
   -6.0299    3.5454  -21.0832 H   0  0  0  0  0  0
   -6.5791    3.8289  -23.4632 H   0  0  0  0  0  0
    5.5618    3.6172  -21.5761 H   0  0  0  0  0  0
    6.8244    2.6281  -20.7172 H   0  0  0  0  0  0
    6.1491    2.2418  -24.9351 H   0  0  0  0  0  0
    5.9626    3.8006  -24.0676 H   0  0  0  0  0  0
   -5.8537    3.8257  -25.8522 H   0  0  0  0  0  0
    2.0435    1.3845  -24.8192 H   0  0  0  0  0  0
    2.9651    0.9858  -22.9457 H   0  0  0  0  0  0
    4.1162    0.2911  -24.1500 H   0  0  0  0  0  0
    4.7239   -0.3428  -21.8055 H   0  0  0  0  0  0
    7.6410    2.3782  -22.9078 H   0  0  0  0  0  0
    4.0320    2.1958  -20.9914 H   0  0  0  0  0  0
    5.3200    1.1792  -20.1302 H   0  0  0  0  0  0
   -1.7573    3.2168  -26.8878 H   0  0  0  0  0  0
    0.3182    1.9029  -20.8369 H   0  0  0  0  0  0
    7.0089    0.1815  -22.0346 H   0  0  0  0  0  0
   -3.2511    3.3513  -28.2610 H   0  0  0  0  0  0
    6.0150    8.3160  -21.4010 N   0  3  0  0  0  0
    4.0540    6.9540  -21.1810 N   0  0  0  0  0  0
    5.5990    7.0730  -19.4590 N   0  0  0  0  0  0
    8.1100    9.5420  -20.8890 C   0  0  0  0  0  0
    6.0570   10.7540  -21.7000 C   0  0  0  0  0  0
    7.5960   10.7080  -21.7550 C   0  0  0  0  0  0
    5.4710    9.4160  -22.1960 C   0  0  0  0  0  0
    7.4750    8.2250  -21.3750 C   0  0  0  0  0  0
    5.2230    7.4570  -20.7020 C   0  0  0  0  0  0
    3.6920    6.9860  -22.5950 C   0  0  0  0  0  0
    3.3752    6.5261  -20.5352 H   0  0  0  0  0  0
    5.0081    6.4231  -18.9211 H   0  0  0  0  0  0
    6.4752    7.4301  -19.0519 H   0  0  0  0  0  0
    7.8341    9.7159  -19.8385 H   0  0  0  0  0  0
    9.2044    9.4750  -20.9770 H   0  0  0  0  0  0
    5.6921   11.5718  -22.3388 H   0  0  0  0  0  0
    5.7320   10.9360  -20.6650 H   0  0  0  0  0  0
    7.9221   10.5629  -22.7955 H   0  0  0  0  0  0
    8.0051   11.6553  -21.3739 H   0  0  0  0  0  0
    4.3760    9.4350  -22.0930 H   0  0  0  0  0  0
    5.7352    9.2689  -23.2536 H   0  0  0  0  0  0
    7.8450    7.9900  -22.3839 H   0  0  0  0  0  0
    7.7790    7.4040  -20.7090 H   0  0  0  0  0  0
    4.5892    7.1890  -23.1981 H   0  0  0  0  0  0
    2.9618    7.7903  -22.7681 H   0  0  0  0  0  0
  1  2  2  0  0  0
  1  3  1  0  0  0
  1 34  1  0  0  0
  2  6  1  0  0  0
  2 35  1  0  0  0
  3  5  2  0  0  0
  3 27  1  0  0  0
  4  5  1  0  0  0
  4  6  2  0  0  0
  4 18  1  0  0  0
  5 24  1  0  0  0
  6 10  1  0  0  0
  7 10  2  0  0  0
  7 23  1  0  0  0
  7 33  1  0  0  0
  8 21  1  0  0  0
  8 22  1  0  0  0
  8 36  1  0  0  0
  8 37  1  0  0  0
  9 21  1  0  0  0
  9 31  1  0  0  0
  9 38  1  0  0  0
  9 39  1  0  0  0
 10 40  1  0  0  0
 11 12  1  0  0  0
 11 14  2  0  0  0
 11 15  1  0  0  0
 12 17  1  0  0  0
 12 28  2  0  0  0
 13 28  1  0  0  0
 13 29  2  0  0  0
 13 61  1  0  0  0
 14 29  1  0  0  0
 14 31  1  0  0  0
 15 30  2  0  0  0
 15 41  1  0  0  0
 16 17  2  0  0  0
 16 18  1  0  0  0
 16 30  1  0  0  0
 17 26  1  0  0  0
 18 23  2  0  0  0
 19 20  1  0  0  0
 19 31  1  0  0  0
 19 42  1  0  0  0
 19 43  1  0  0  0
 20 22  1  0  0  0
 20 32  1  0  0  0
 20 44  1  0  0  0
 21 32  1  0  0  0
 21 45  1  0  0  0
 22 46  1  0  0  0
 22 47  1  0  0  0
 23 48  1  0  0  0
 24 25  3  0  0  0
 25 49  1  0  0  0
 32 50  1  0  0  0
 33 51  1  0  0  0
 52 58  1  0  0  0
 52 59  1  0  0  0
 52 60  2  0  0  0
 53 60  1  0  0  0
 53 61  1  0  0  0
 53 62  1  0  0  0
 54 60  1  0  0  0
 54 63  1  0  0  0
 54 64  1  0  0  0
 55 57  1  0  0  0
 55 59  1  0  0  0
 55 65  1  0  0  0
 55 66  1  0  0  0
 56 57  1  0  0  0
 56 58  1  0  0  0
 56 67  1  0  0  0
 56 68  1  0  0  0
 57 69  1  0  0  0
 57 70  1  0  0  0
 58 71  1  0  0  0
 58 72  1  0  0  0
 59 73  1  0  0  0
 59 74  1  0  0  0
 61 75  1  0  0  0
 61 76  1  0  0  0
M  CHG  1  52   1
M  END
> <s_m_entry_id>
671

> <s_m_entry_name>
000000513.1

> <s_m_Source_Path>
/Users/zaksoul/Documents/3r_UNI/2nd_SEMESTER/BSC/FRAG_RECON/RESULTS/2

> <s_m_Source_File>
000000513.mol2

> <i_m_Source_File_Index>
1

$$$$
No_0_535
                    3D
 Schrodinger Suite 2022-4.
 76 82  0  0  1  0            999 V2000
   -5.2290    3.5040  -21.7130 C   0  0  0  0  0  0
   -5.5210    3.6410  -23.0490 C   0  0  0  0  0  0
   -3.9820    3.2780  -21.3860 C   0  0  0  0  0  0
   -3.1300    3.3370  -23.5700 C   0  0  0  0  0  0
   -2.9420    3.1460  -22.1450 C   0  0  0  0  0  0
   -4.4900    3.5640  -24.0760 C   0  0  0  0  0  0
   -3.7740    3.5150  -26.2870 C   0  0  0  0  0  0
    6.0550    3.0910  -21.1740 C   0  0  0  0  0  0
    5.8690    3.1400  -23.7240 C   0  0  0  0  0  0
   -4.7660    3.6400  -25.4100 C   0  0  0  0  0  0
    2.0780    3.6400  -23.6930 C   0  0  0  0  0  0
    1.2480    4.7490  -23.4190 C   0  0  0  0  0  0
    3.0430    5.9900  -22.8150 C   0  0  0  0  0  0
    3.4810    3.8590  -23.4120 C   0  0  0  0  0  0
    1.5350    2.4930  -24.3040 C   0  0  0  0  0  0
   -0.6000    3.2840  -24.1840 C   0  0  0  0  0  0
   -0.0790    4.5310  -23.6390 C   0  0  0  0  0  0
   -2.0590    3.2590  -24.5120 C   0  0  0  0  0  0
    4.1240    1.3810  -23.0410 C   0  0  0  0  0  0
    5.0820    1.0790  -21.9000 C   0  0  2  0  0  0
    6.6460    2.6180  -22.5200 C   0  0  2  0  0  0
    5.0720    2.1210  -20.7690 C   0  0  0  0  0  0
   -2.4120    3.3630  -25.9390 C   0  0  0  0  0  0
   -1.5820    2.7710  -21.5560 C   0  0  0  0  0  0
   -0.5380    2.4550  -21.0570 C   0  0  0  0  0  0
   -0.9280    5.5780  -23.3170 F   0  0  0  0  0  0
   -3.7440    3.0890  -20.0000 F   0  0  0  0  0  0
    1.7200    5.9320  -22.9380 N   0  0  0  0  0  0
    3.9470    5.0310  -23.0170 N   0  0  0  0  0  0
    0.2250    2.3770  -24.5820 N   0  0  0  0  0  0
    4.4100    2.8170  -23.5680 N   0  0  0  0  0  0
    6.4790    1.1450  -22.4090 N   0  0  1  0  0  0
   -3.9710    3.4780  -27.6730 O   0  0  0  0  0  0
   -6.0191    3.5833  -20.9751 H   0  0  0  0  0  0
   -6.5435    3.8116  -23.3661 H   0  0  0  0  0  0
    5.5697    4.0687  -21.3102 H   0  0  0  0  0  0
    6.8544    3.1395  -20.4200 H   0  0  0  0  0  0
    6.2533    2.6670  -24.6398 H   0  0  0  0  0  0
    5.9982    4.2298  -23.7987 H   0  0  0  0  0  0
   -5.7848    3.7996  -25.7442 H   0  0  0  0  0  0
    2.1798    1.6623  -24.5672 H   0  0  0  0  0  0
    3.0880    1.3245  -22.6755 H   0  0  0  0  0  0
    4.2804    0.6557  -23.8531 H   0  0  0  0  0  0
    4.8772    0.0784  -21.4915 H   0  0  0  0  0  0
    7.7101    2.8865  -22.5947 H   0  0  0  0  0  0
    4.0833    2.6012  -20.7256 H   0  0  0  0  0  0
    5.3949    1.6447  -19.8315 H   0  0  0  0  0  0
   -1.6556    3.3249  -26.7145 H   0  0  0  0  0  0
    0.3806    2.1761  -20.6172 H   0  0  0  0  0  0
    7.1455    0.6818  -21.6965 H   0  0  0  0  0  0
   -3.1329    3.3840  -28.1103 H   0  0  0  0  0  0
    5.9810    8.8520  -21.6080 N   0  3  0  0  0  0
    4.2580    7.2610  -21.1090 N   0  0  0  0  0  0
    6.1250    7.4330  -19.7490 N   0  0  0  0  0  0
    8.0090   10.2710  -21.4340 C   0  0  0  0  0  0
    5.7190   11.2940  -21.6760 C   0  0  0  0  0  0
    7.2060   11.4290  -22.0580 C   0  0  0  0  0  0
    5.1720    9.9360  -22.1610 C   0  0  0  0  0  0
    7.4130    8.9280  -21.8990 C   0  0  0  0  0  0
    5.4500    7.8590  -20.8420 C   0  0  0  0  0  0
    3.5930    7.3520  -22.4060 C   0  0  0  0  0  0
    3.7820    6.7120  -20.3790 H   0  0  0  0  0  0
    5.7330    6.6829  -19.1620 H   0  0  0  0  0  0
    7.0302    7.8591  -19.5040 H   0  0  0  0  0  0
    7.9550   10.3360  -20.3372 H   0  0  0  0  0  0
    9.0583   10.3380  -21.7571 H   0  0  0  0  0  0
    5.1450   12.1079  -22.1430 H   0  0  0  0  0  0
    5.6140   11.3620  -20.5831 H   0  0  0  0  0  0
    7.3070   11.3980  -23.1529 H   0  0  0  0  0  0
    7.5939   12.3877  -21.6831 H   0  0  0  0  0  0
    4.1296    9.8211  -21.8292 H   0  0  0  0  0  0
    5.2090    9.8970  -23.2597 H   0  0  0  0  0  0
    7.5741    8.8109  -22.9808 H   0  0  0  0  0  0
    7.9338    8.1023  -21.3922 H   0  0  0  0  0  0
    4.3123    7.6992  -23.1623 H   0  0  0  0  0  0
    2.7680    8.0770  -22.3440 H   0  0  0  0  0  0
  1  2  2  0  0  0
  1  3  1  0  0  0
  1 34  1  0  0  0
  2  6  1  0  0  0
  2 35  1  0  0  0
  3  5  2  0  0  0
  3 27  1  0  0  0
  4  5  1  0  0  0
  4  6  2  0  0  0
  4 18  1  0  0  0
  5 24  1  0  0  0
  6 10  1  0  0  0
  7 10  2  0  0  0
  7 23  1  0  0  0
  7 33  1  0  0  0
  8 21  1  0  0  0
  8 22  1  0  0  0
  8 36  1  0  0  0
  8 37  1  0  0  0
  9 21  1  0  0  0
  9 31  1  0  0  0
  9 38  1  0  0  0
  9 39  1  0  0  0
 10 40  1  0  0  0
 11 12  1  0  0  0
 11 14  2  0  0  0
 11 15  1  0  0  0
 12 17  1  0  0  0
 12 28  2  0  0  0
 13 28  1  0  0  0
 13 29  2  0  0  0
 13 61  1  0  0  0
 14 29  1  0  0  0
 14 31  1  0  0  0
 15 30  2  0  0  0
 15 41  1  0  0  0
 16 17  2  0  0  0
 16 18  1  0  0  0
 16 30  1  0  0  0
 17 26  1  0  0  0
 18 23  2  0  0  0
 19 20  1  0  0  0
 19 31  1  0  0  0
 19 42  1  0  0  0
 19 43  1  0  0  0
 20 22  1  0  0  0
 20 32  1  0  0  0
 20 44  1  0  0  0
 21 32  1  0  0  0
 21 45  1  0  0  0
 22 46  1  0  0  0
 22 47  1  0  0  0
 23 48  1  0  0  0
 24 25  3  0  0  0
 25 49  1  0  0  0
 32 50  1  0  0  0
 33 51  1  0  0  0
 52 58  1  0  0  0
 52 59  1  0  0  0
 52 60  2  0  0  0
 53 60  1  0  0  0
 53 61  1  0  0  0
 53 62  1  0  0  0
 54 60  1  0  0  0
 54 63  1  0  0  0
 54 64  1  0  0  0
 55 57  1  0  0  0
 55 59  1  0  0  0
 55 65  1  0  0  0
 55 66  1  0  0  0
 56 57  1  0  0  0
 56 58  1  0  0  0
 56 67  1  0  0  0
 56 68  1  0  0  0
 57 69  1  0  0  0
 57 70  1  0  0  0
 58 71  1  0  0  0
 58 72  1  0  0  0
 59 73  1  0  0  0
 59 74  1  0  0  0
 61 75  1  0  0  0
 61 76  1  0  0  0
M  CHG  1  52   1
M  END
> <s_m_entry_id>
672

> <s_m_entry_name>
000000514.1

> <s_m_Source_Path>
/Users/zaksoul/Documents/3r_UNI/2nd_SEMESTER/BSC/FRAG_RECON/RESULTS/2

> <s_m_Source_File>
000000514.mol2

> <i_m_Source_File_Index>
1

$$$$
No_0_536
                    3D
 Schrodinger Suite 2022-4.
 76 82  0  0  1  0            999 V2000
   -5.1810    3.6090  -21.8530 C   0  0  0  0  0  0
   -5.4520    3.8050  -23.1860 C   0  0  0  0  0  0
   -3.9420    3.3510  -21.5190 C   0  0  0  0  0  0
   -3.0590    3.4860  -23.6870 C   0  0  0  0  0  0
   -2.8930    3.2340  -22.2690 C   0  0  0  0  0  0
   -4.4090    3.7540  -24.2010 C   0  0  0  0  0  0
   -3.6630    3.7850  -26.4030 C   0  0  0  0  0  0
    6.0870    3.0010  -21.1820 C   0  0  0  0  0  0
    5.9380    3.1560  -23.7310 C   0  0  0  0  0  0
   -4.6650    3.8890  -25.5350 C   0  0  0  0  0  0
    2.1540    3.7130  -23.7290 C   0  0  0  0  0  0
    1.3370    4.8230  -23.4210 C   0  0  0  0  0  0
    3.1410    6.0110  -22.7430 C   0  0  0  0  0  0
    3.5570    3.8990  -23.4210 C   0  0  0  0  0  0
    1.6030    2.6010  -24.3930 C   0  0  0  0  0  0
   -0.5220    3.4190  -24.2700 C   0  0  0  0  0  0
    0.0100    4.6350  -23.6670 C   0  0  0  0  0  0
   -1.9770    3.4300  -24.6180 C   0  0  0  0  0  0
    4.1570    1.3990  -23.1440 C   0  0  0  0  0  0
    5.0950    1.0350  -22.0030 C   0  0  2  0  0  0
    6.6890    2.5740  -22.5390 C   0  0  2  0  0  0
    5.0840    2.0310  -20.8310 C   0  0  0  0  0  0
   -2.3080    3.5970  -26.0440 C   0  0  0  0  0  0
   -1.5470    2.8150  -21.6780 C   0  0  0  0  0  0
   -0.5150    2.4620  -21.1780 C   0  0  0  0  0  0
   -0.8280    5.6800  -23.3140 F   0  0  0  0  0  0
   -3.7260    3.1020  -20.1390 F   0  0  0  0  0  0
    1.8200    5.9780  -22.8860 N   0  0  0  0  0  0
    4.0350    5.0470  -22.9720 N   0  0  0  0  0  0
    0.2950    2.5160  -24.6930 N   0  0  0  0  0  0
    4.4710    2.8500  -23.6070 N   0  0  0  0  0  0
    6.5000    1.1010  -22.4910 N   0  0  1  0  0  0
   -3.8410    3.8060  -27.7920 O   0  0  0  0  0  0
   -5.9796    3.6712  -21.1226 H   0  0  0  0  0  0
   -6.4675    4.0037  -23.5091 H   0  0  0  0  0  0
    5.6179    3.9906  -21.2849 H   0  0  0  0  0  0
    6.8763    3.0060  -20.4159 H   0  0  0  0  0  0
    6.3275    2.7150  -24.6604 H   0  0  0  0  0  0
    6.0833    4.2460  -23.7593 H   0  0  0  0  0  0
   -5.6765    4.0776  -25.8762 H   0  0  0  0  0  0
    2.2385    1.7718  -24.6821 H   0  0  0  0  0  0
    3.1157    1.3435  -22.7939 H   0  0  0  0  0  0
    4.3144    0.7047  -23.9826 H   0  0  0  0  0  0
    4.8700    0.0218  -21.6387 H   0  0  0  0  0  0
    7.7578    2.8293  -22.5885 H   0  0  0  0  0  0
    4.1018    2.5236  -20.7805 H   0  0  0  0  0  0
    5.3877    1.5123  -19.9097 H   0  0  0  0  0  0
   -1.5411    3.5789  -26.8099 H   0  0  0  0  0  0
    0.3934    2.1519  -20.7378 H   0  0  0  0  0  0
    7.1492    0.5983  -21.7894 H   0  0  0  0  0  0
   -2.9984    3.7179  -28.2217 H   0  0  0  0  0  0
    6.1430    8.8760  -21.7110 N   0  3  0  0  0  0
    4.5890    7.1460  -21.1250 N   0  0  0  0  0  0
    6.6550    7.2670  -20.0870 N   0  0  0  0  0  0
    8.1180   10.3770  -21.7110 C   0  0  0  0  0  0
    5.7870   11.2920  -21.4400 C   0  0  0  0  0  0
    7.1790   11.5520  -22.0470 C   0  0  0  0  0  0
    5.2120    9.9690  -21.9860 C   0  0  0  0  0  0
    7.4990    9.0630  -22.2270 C   0  0  0  0  0  0
    5.7870    7.7760  -20.9920 C   0  0  0  0  0  0
    3.7060    7.3460  -22.2710 C   0  0  0  0  0  0
    4.2660    6.4929  -20.3969 H   0  0  0  0  0  0
    6.3980    6.4350  -19.5370 H   0  0  0  0  0  0
    7.5736    7.7118  -19.9481 H   0  0  0  0  0  0
    8.2530   10.3150  -20.6211 H   0  0  0  0  0  0
    9.0928   10.5370  -22.1949 H   0  0  0  0  0  0
    5.1130   12.1209  -21.7020 H   0  0  0  0  0  0
    5.8700   11.2310  -20.3448 H   0  0  0  0  0  0
    7.0910   11.6490  -23.1392 H   0  0  0  0  0  0
    7.5930   12.4819  -21.6300 H   0  0  0  0  0  0
    4.2474    9.7601  -21.5002 H   0  0  0  0  0  0
    5.0600   10.0560  -23.0720 H   0  0  0  0  0  0
    7.4730    9.0770  -23.3266 H   0  0  0  0  0  0
    8.1284    8.2155  -21.9178 H   0  0  0  0  0  0
    4.2701    7.8160  -23.0901 H   0  0  0  0  0  0
    2.8792    8.0128  -21.9851 H   0  0  0  0  0  0
  1  2  2  0  0  0
  1  3  1  0  0  0
  1 34  1  0  0  0
  2  6  1  0  0  0
  2 35  1  0  0  0
  3  5  2  0  0  0
  3 27  1  0  0  0
  4  5  1  0  0  0
  4  6  2  0  0  0
  4 18  1  0  0  0
  5 24  1  0  0  0
  6 10  1  0  0  0
  7 10  2  0  0  0
  7 23  1  0  0  0
  7 33  1  0  0  0
  8 21  1  0  0  0
  8 22  1  0  0  0
  8 36  1  0  0  0
  8 37  1  0  0  0
  9 21  1  0  0  0
  9 31  1  0  0  0
  9 38  1  0  0  0
  9 39  1  0  0  0
 10 40  1  0  0  0
 11 12  1  0  0  0
 11 14  2  0  0  0
 11 15  1  0  0  0
 12 17  1  0  0  0
 12 28  2  0  0  0
 13 28  1  0  0  0
 13 29  2  0  0  0
 13 61  1  0  0  0
 14 29  1  0  0  0
 14 31  1  0  0  0
 15 30  2  0  0  0
 15 41  1  0  0  0
 16 17  2  0  0  0
 16 18  1  0  0  0
 16 30  1  0  0  0
 17 26  1  0  0  0
 18 23  2  0  0  0
 19 20  1  0  0  0
 19 31  1  0  0  0
 19 42  1  0  0  0
 19 43  1  0  0  0
 20 22  1  0  0  0
 20 32  1  0  0  0
 20 44  1  0  0  0
 21 32  1  0  0  0
 21 45  1  0  0  0
 22 46  1  0  0  0
 22 47  1  0  0  0
 23 48  1  0  0  0
 24 25  3  0  0  0
 25 49  1  0  0  0
 32 50  1  0  0  0
 33 51  1  0  0  0
 52 58  1  0  0  0
 52 59  1  0  0  0
 52 60  2  0  0  0
 53 60  1  0  0  0
 53 61  1  0  0  0
 53 62  1  0  0  0
 54 60  1  0  0  0
 54 63  1  0  0  0
 54 64  1  0  0  0
 55 57  1  0  0  0
 55 59  1  0  0  0
 55 65  1  0  0  0
 55 66  1  0  0  0
 56 57  1  0  0  0
 56 58  1  0  0  0
 56 67  1  0  0  0
 56 68  1  0  0  0
 57 69  1  0  0  0
 57 70  1  0  0  0
 58 71  1  0  0  0
 58 72  1  0  0  0
 59 73  1  0  0  0
 59 74  1  0  0  0
 61 75  1  0  0  0
 61 76  1  0  0  0
M  CHG  1  52   1
M  END
> <s_m_entry_id>
673

> <s_m_entry_name>
000000515.1

> <s_m_Source_Path>
/Users/zaksoul/Documents/3r_UNI/2nd_SEMESTER/BSC/FRAG_RECON/RESULTS/2

> <s_m_Source_File>
000000515.mol2

> <i_m_Source_File_Index>
1

$$$$
No_0_537
                    3D
 Schrodinger Suite 2022-4.
 76 82  0  0  1  0            999 V2000
   -5.3310    3.4850  -21.9710 C   0  0  0  0  0  0
   -5.6050    3.6750  -23.3050 C   0  0  0  0  0  0
   -4.0910    3.2320  -21.6370 C   0  0  0  0  0  0
   -3.2110    3.3630  -23.8070 C   0  0  0  0  0  0
   -3.0430    3.1160  -22.3880 C   0  0  0  0  0  0
   -4.5610    3.6250  -24.3210 C   0  0  0  0  0  0
   -3.8180    3.6510  -26.5230 C   0  0  0  0  0  0
    5.9390    2.9150  -21.3080 C   0  0  0  0  0  0
    5.7870    3.0620  -23.8560 C   0  0  0  0  0  0
   -4.8200    3.7550  -25.6550 C   0  0  0  0  0  0
    2.0020    3.6070  -23.8530 C   0  0  0  0  0  0
    1.1820    4.7140  -23.5480 C   0  0  0  0  0  0
    2.9820    5.9100  -22.8750 C   0  0  0  0  0  0
    3.4040    3.7980  -23.5470 C   0  0  0  0  0  0
    1.4530    2.4910  -24.5140 C   0  0  0  0  0  0
   -0.6740    3.3020  -24.3910 C   0  0  0  0  0  0
   -0.1450    4.5220  -23.7930 C   0  0  0  0  0  0
   -2.1290    3.3080  -24.7380 C   0  0  0  0  0  0
    4.0130    1.3010  -23.2630 C   0  0  0  0  0  0
    4.9520    0.9430  -22.1210 C   0  0  2  0  0  0
    6.5420    2.4860  -22.6630 C   0  0  2  0  0  0
    4.9400    1.9430  -20.9520 C   0  0  0  0  0  0
   -2.4620    3.4690  -26.1640 C   0  0  0  0  0  0
   -1.6950    2.7030  -21.7970 C   0  0  0  0  0  0
   -0.6620    2.3550  -21.2970 C   0  0  0  0  0  0
   -0.9860    5.5660  -23.4420 F   0  0  0  0  0  0
   -3.8740    2.9870  -20.2560 F   0  0  0  0  0  0
    1.6610    5.8730  -23.0170 N   0  0  0  0  0  0
    3.8780    4.9490  -23.1020 N   0  0  0  0  0  0
    0.1450    2.4010  -24.8130 N   0  0  0  0  0  0
    4.3220    2.7510  -23.7310 N   0  0  0  0  0  0
    6.3570    1.0120  -22.6110 N   0  0  1  0  0  0
   -3.9970    3.6680  -27.9110 O   0  0  0  0  0  0
   -6.1296    3.5462  -21.2406 H   0  0  0  0  0  0
   -6.6213    3.8708  -23.6274 H   0  0  0  0  0  0
    5.4667    3.9029  -21.4129 H   0  0  0  0  0  0
    6.7293    2.9251  -20.5429 H   0  0  0  0  0  0
    6.1774    2.6191  -24.7841 H   0  0  0  0  0  0
    5.9293    4.1523  -23.8883 H   0  0  0  0  0  0
   -5.8324    3.9398  -25.9955 H   0  0  0  0  0  0
    2.0914    1.6629  -24.8001 H   0  0  0  0  0  0
    2.9721    1.2425  -22.9120 H   0  0  0  0  0  0
    4.1714    0.6040  -24.0992 H   0  0  0  0  0  0
    4.7308   -0.0699  -21.7534 H   0  0  0  0  0  0
    7.6099    2.7444  -22.7155 H   0  0  0  0  0  0
    3.9561    2.4324  -20.9026 H   0  0  0  0  0  0
    5.2448    1.4272  -20.0295 H   0  0  0  0  0  0
   -1.6961    3.4519  -26.9309 H   0  0  0  0  0  0
    0.2479    2.0490  -20.8570 H   0  0  0  0  0  0
    7.0083    0.5136  -21.9083 H   0  0  0  0  0  0
   -3.1546    3.5819  -28.3416 H   0  0  0  0  0  0
    5.9440    8.9140  -22.1760 N   0  3  0  0  0  0
    4.6330    7.0380  -21.4600 N   0  0  0  0  0  0
    6.8460    7.2410  -20.8050 N   0  0  0  0  0  0
    7.7910   10.5530  -22.4130 C   0  0  0  0  0  0
    5.5000   11.2730  -21.6530 C   0  0  0  0  0  0
    6.7370   11.6760  -22.4790 C   0  0  0  0  0  0
    4.9140    9.9510  -22.1910 C   0  0  0  0  0  0
    7.1670    9.2360  -22.9120 C   0  0  0  0  0  0
    5.7950    7.7440  -21.4950 C   0  0  0  0  0  0
    3.5430    7.2490  -22.4080 C   0  0  0  0  0  0
    4.4919    6.3155  -20.7395 H   0  0  0  0  0  0
    6.7450    6.3570  -20.2860 H   0  0  0  0  0  0
    7.7453    7.7432  -20.7990 H   0  0  0  0  0  0
    8.1291   10.4280  -21.3737 H   0  0  0  0  0  0
    8.6478   10.8180  -23.0499 H   0  0  0  0  0  0
    4.7404   12.0656  -21.7220 H   0  0  0  0  0  0
    5.7880   11.1450  -20.5991 H   0  0  0  0  0  0
    6.4408   11.8401  -23.5256 H   0  0  0  0  0  0
    7.1640   12.6040  -22.0710 H   0  0  0  0  0  0
    4.0710    9.6390  -21.5570 H   0  0  0  0  0  0
    4.5580   10.1000  -23.2211 H   0  0  0  0  0  0
    6.9370    9.3220  -23.9842 H   0  0  0  0  0  0
    7.8927    8.4183  -22.7910 H   0  0  0  0  0  0
    3.9162    7.8133  -23.2754 H   0  0  0  0  0  0
    2.7450    7.8320  -21.9250 H   0  0  0  0  0  0
  1  2  2  0  0  0
  1  3  1  0  0  0
  1 34  1  0  0  0
  2  6  1  0  0  0
  2 35  1  0  0  0
  3  5  2  0  0  0
  3 27  1  0  0  0
  4  5  1  0  0  0
  4  6  2  0  0  0
  4 18  1  0  0  0
  5 24  1  0  0  0
  6 10  1  0  0  0
  7 10  2  0  0  0
  7 23  1  0  0  0
  7 33  1  0  0  0
  8 21  1  0  0  0
  8 22  1  0  0  0
  8 36  1  0  0  0
  8 37  1  0  0  0
  9 21  1  0  0  0
  9 31  1  0  0  0
  9 38  1  0  0  0
  9 39  1  0  0  0
 10 40  1  0  0  0
 11 12  1  0  0  0
 11 14  2  0  0  0
 11 15  1  0  0  0
 12 17  1  0  0  0
 12 28  2  0  0  0
 13 28  1  0  0  0
 13 29  2  0  0  0
 13 61  1  0  0  0
 14 29  1  0  0  0
 14 31  1  0  0  0
 15 30  2  0  0  0
 15 41  1  0  0  0
 16 17  2  0  0  0
 16 18  1  0  0  0
 16 30  1  0  0  0
 17 26  1  0  0  0
 18 23  2  0  0  0
 19 20  1  0  0  0
 19 31  1  0  0  0
 19 42  1  0  0  0
 19 43  1  0  0  0
 20 22  1  0  0  0
 20 32  1  0  0  0
 20 44  1  0  0  0
 21 32  1  0  0  0
 21 45  1  0  0  0
 22 46  1  0  0  0
 22 47  1  0  0  0
 23 48  1  0  0  0
 24 25  3  0  0  0
 25 49  1  0  0  0
 32 50  1  0  0  0
 33 51  1  0  0  0
 52 58  1  0  0  0
 52 59  1  0  0  0
 52 60  2  0  0  0
 53 60  1  0  0  0
 53 61  1  0  0  0
 53 62  1  0  0  0
 54 60  1  0  0  0
 54 63  1  0  0  0
 54 64  1  0  0  0
 55 57  1  0  0  0
 55 59  1  0  0  0
 55 65  1  0  0  0
 55 66  1  0  0  0
 56 57  1  0  0  0
 56 58  1  0  0  0
 56 67  1  0  0  0
 56 68  1  0  0  0
 57 69  1  0  0  0
 57 70  1  0  0  0
 58 71  1  0  0  0
 58 72  1  0  0  0
 59 73  1  0  0  0
 59 74  1  0  0  0
 61 75  1  0  0  0
 61 76  1  0  0  0
M  CHG  1  52   1
M  END
> <s_m_entry_id>
674

> <s_m_entry_name>
000000516.1

> <s_m_Source_Path>
/Users/zaksoul/Documents/3r_UNI/2nd_SEMESTER/BSC/FRAG_RECON/RESULTS/2

> <s_m_Source_File>
000000516.mol2

> <i_m_Source_File_Index>
1

$$$$
No_0_538
                    3D
 Schrodinger Suite 2022-4.
 76 82  0  0  1  0            999 V2000
   -5.3860    3.6190  -21.9830 C   0  0  0  0  0  0
   -5.6360    3.8470  -23.3160 C   0  0  0  0  0  0
   -4.1550    3.3350  -21.6380 C   0  0  0  0  0  0
   -3.2420    3.5020  -23.7920 C   0  0  0  0  0  0
   -3.0980    3.2180  -22.3770 C   0  0  0  0  0  0
   -4.5800    3.8020  -24.3180 C   0  0  0  0  0  0
   -3.8040    3.8680  -26.5080 C   0  0  0  0  0  0
    5.8620    2.8250  -21.1790 C   0  0  0  0  0  0
    5.7490    3.0370  -23.7250 C   0  0  0  0  0  0
   -4.8160    3.9690  -25.6510 C   0  0  0  0  0  0
    1.9750    3.6510  -23.7610 C   0  0  0  0  0  0
    1.1710    4.7660  -23.4400 C   0  0  0  0  0  0
    2.9830    5.9120  -22.7130 C   0  0  0  0  0  0
    3.3750    3.8090  -23.4300 C   0  0  0  0  0  0
    1.4150    2.5620  -24.4560 C   0  0  0  0  0  0
   -0.6980    3.4090  -24.3420 C   0  0  0  0  0  0
   -0.1560    4.6040  -23.7070 C   0  0  0  0  0  0
   -2.1480    3.4500  -24.7090 C   0  0  0  0  0  0
    3.9350    1.2940  -23.1990 C   0  0  0  0  0  0
    4.8520    0.8920  -22.0540 C   0  0  2  0  0  0
    6.4760    2.4180  -22.5360 C   0  0  2  0  0  0
    4.8400    1.8630  -20.8610 C   0  0  0  0  0  0
   -2.4570    3.6530  -26.1350 C   0  0  0  0  0  0
   -1.7670    2.7660  -21.7780 C   0  0  0  0  0  0
   -0.7470    2.3870  -21.2720 C   0  0  0  0  0  0
   -0.9830    5.6540  -23.3420 F   0  0  0  0  0  0
   -3.9620    3.0530  -20.2610 F   0  0  0  0  0  0
    1.6630    5.9020  -22.8730 N   0  0  0  0  0  0
    3.8640    4.9400  -22.9500 N   0  0  0  0  0  0
    0.1110    2.5030  -24.7750 N   0  0  0  0  0  0
    4.2770    2.7500  -23.6270 N   0  0  0  0  0  0
    6.2640    0.9470  -22.5220 N   0  0  1  0  0  0
   -3.9640    3.9220  -27.8980 O   0  0  0  0  0  0
   -6.1934    3.6772  -21.2620 H   0  0  0  0  0  0
   -6.6440    4.0689  -23.6473 H   0  0  0  0  0  0
    5.4099    3.8240  -21.2668 H   0  0  0  0  0  0
    6.6412    2.8018  -20.4029 H   0  0  0  0  0  0
    6.1446    2.6101  -24.6584 H   0  0  0  0  0  0
    5.9115    4.1249  -23.7280 H   0  0  0  0  0  0
   -5.8199    4.1806  -26.0010 H   0  0  0  0  0  0
    2.0420    1.7294  -24.7539 H   0  0  0  0  0  0
    2.8883    1.2476  -22.8639 H   0  0  0  0  0  0
    4.0925    0.6154  -24.0503 H   0  0  0  0  0  0
    4.6068   -0.1253  -21.7149 H   0  0  0  0  0  0
    7.5490    2.6582  -22.5663 H   0  0  0  0  0  0
    3.8648    2.3698  -20.8136 H   0  0  0  0  0  0
    5.1237    1.3199  -19.9474 H   0  0  0  0  0  0
   -1.6811    3.6389  -26.8918 H   0  0  0  0  0  0
    0.1507    2.0531  -20.8272 H   0  0  0  0  0  0
    6.8964    0.4195  -21.8233 H   0  0  0  0  0  0
   -3.1170    3.8310  -28.3185 H   0  0  0  0  0  0
    5.9270    8.9560  -22.1250 N   0  3  0  0  0  0
    4.7660    6.9820  -21.4170 N   0  0  0  0  0  0
    7.0360    7.2130  -21.0200 N   0  0  0  0  0  0
    7.6860   10.6770  -22.4440 C   0  0  0  0  0  0
    5.4880   11.2480  -21.3540 C   0  0  0  0  0  0
    6.6020   11.7610  -22.2860 C   0  0  0  0  0  0
    4.8760    9.9530  -21.9270 C   0  0  0  0  0  0
    7.0410    9.3810  -22.9730 C   0  0  0  0  0  0
    5.8950    7.7310  -21.5330 C   0  0  0  0  0  0
    3.5610    7.2280  -22.2050 C   0  0  0  0  0  0
    4.7330    6.1984  -20.7493 H   0  0  0  0  0  0
    7.0240    6.2871  -20.5690 H   0  0  0  0  0  0
    7.9157    7.7454  -21.0800 H   0  0  0  0  0  0
    8.1528   10.4811  -21.4674 H   0  0  0  0  0  0
    8.4503   11.0232  -23.1553 H   0  0  0  0  0  0
    4.7039   12.0141  -21.2630 H   0  0  0  0  0  0
    5.9081   11.0450  -20.3578 H   0  0  0  0  0  0
    6.1751   11.9979  -23.2717 H   0  0  0  0  0  0
    7.0512   12.6683  -21.8559 H   0  0  0  0  0  0
    4.1266    9.5593  -21.2246 H   0  0  0  0  0  0
    4.3910   10.1710  -22.8900 H   0  0  0  0  0  0
    6.6783    9.5459  -23.9983 H   0  0  0  0  0  0
    7.7976    8.5834  -23.0110 H   0  0  0  0  0  0
    3.8090    7.8740  -23.0601 H   0  0  0  0  0  0
    2.8139    7.7401  -21.5809 H   0  0  0  0  0  0
  1  2  2  0  0  0
  1  3  1  0  0  0
  1 34  1  0  0  0
  2  6  1  0  0  0
  2 35  1  0  0  0
  3  5  2  0  0  0
  3 27  1  0  0  0
  4  5  1  0  0  0
  4  6  2  0  0  0
  4 18  1  0  0  0
  5 24  1  0  0  0
  6 10  1  0  0  0
  7 10  2  0  0  0
  7 23  1  0  0  0
  7 33  1  0  0  0
  8 21  1  0  0  0
  8 22  1  0  0  0
  8 36  1  0  0  0
  8 37  1  0  0  0
  9 21  1  0  0  0
  9 31  1  0  0  0
  9 38  1  0  0  0
  9 39  1  0  0  0
 10 40  1  0  0  0
 11 12  1  0  0  0
 11 14  2  0  0  0
 11 15  1  0  0  0
 12 17  1  0  0  0
 12 28  2  0  0  0
 13 28  1  0  0  0
 13 29  2  0  0  0
 13 61  1  0  0  0
 14 29  1  0  0  0
 14 31  1  0  0  0
 15 30  2  0  0  0
 15 41  1  0  0  0
 16 17  2  0  0  0
 16 18  1  0  0  0
 16 30  1  0  0  0
 17 26  1  0  0  0
 18 23  2  0  0  0
 19 20  1  0  0  0
 19 31  1  0  0  0
 19 42  1  0  0  0
 19 43  1  0  0  0
 20 22  1  0  0  0
 20 32  1  0  0  0
 20 44  1  0  0  0
 21 32  1  0  0  0
 21 45  1  0  0  0
 22 46  1  0  0  0
 22 47  1  0  0  0
 23 48  1  0  0  0
 24 25  3  0  0  0
 25 49  1  0  0  0
 32 50  1  0  0  0
 33 51  1  0  0  0
 52 58  1  0  0  0
 52 59  1  0  0  0
 52 60  2  0  0  0
 53 60  1  0  0  0
 53 61  1  0  0  0
 53 62  1  0  0  0
 54 60  1  0  0  0
 54 63  1  0  0  0
 54 64  1  0  0  0
 55 57  1  0  0  0
 55 59  1  0  0  0
 55 65  1  0  0  0
 55 66  1  0  0  0
 56 57  1  0  0  0
 56 58  1  0  0  0
 56 67  1  0  0  0
 56 68  1  0  0  0
 57 69  1  0  0  0
 57 70  1  0  0  0
 58 71  1  0  0  0
 58 72  1  0  0  0
 59 73  1  0  0  0
 59 74  1  0  0  0
 61 75  1  0  0  0
 61 76  1  0  0  0
M  CHG  1  52   1
M  END
> <s_m_entry_id>
675

> <s_m_entry_name>
000000517.1

> <s_m_Source_Path>
/Users/zaksoul/Documents/3r_UNI/2nd_SEMESTER/BSC/FRAG_RECON/RESULTS/2

> <s_m_Source_File>
000000517.mol2

> <i_m_Source_File_Index>
1

$$$$
No_0_539
                    3D
 Schrodinger Suite 2022-4.
 74 80  0  0  1  0            999 V2000
   -5.2860    3.8820  -22.0260 C   0  0  0  0  0  0
   -5.5350    4.0430  -23.3680 C   0  0  0  0  0  0
   -4.0590    3.5960  -21.6680 C   0  0  0  0  0  0
   -3.1480    3.6330  -23.8290 C   0  0  0  0  0  0
   -3.0060    3.4220  -22.4010 C   0  0  0  0  0  0
   -4.4820    3.9260  -24.3680 C   0  0  0  0  0  0
   -3.7100    3.8620  -26.5600 C   0  0  0  0  0  0
    5.9490    2.9430  -21.1950 C   0  0  0  0  0  0
    5.8340    3.0200  -23.7480 C   0  0  0  0  0  0
   -4.7190    4.0260  -25.7090 C   0  0  0  0  0  0
    2.0700    3.6950  -23.8120 C   0  0  0  0  0  0
    1.2860    4.8390  -23.5500 C   0  0  0  0  0  0
    3.1180    5.9910  -22.8880 C   0  0  0  0  0  0
    3.4740    3.8470  -23.4920 C   0  0  0  0  0  0
    1.4910    2.5800  -24.4470 C   0  0  0  0  0  0
   -0.6080    3.4670  -24.3770 C   0  0  0  0  0  0
   -0.0440    4.6850  -23.8070 C   0  0  0  0  0  0
   -2.0570    3.5130  -24.7430 C   0  0  0  0  0  0
    3.9920    1.3390  -23.1280 C   0  0  0  0  0  0
    4.9040    0.9830  -21.9640 C   0  0  2  0  0  0
    6.5530    2.4540  -22.5290 C   0  0  2  0  0  0
    4.9120    2.0160  -20.8250 C   0  0  0  0  0  0
   -2.3660    3.6440  -26.1780 C   0  0  0  0  0  0
   -1.6820    2.9800  -21.7800 C   0  0  0  0  0  0
   -0.6670    2.6110  -21.2560 C   0  0  0  0  0  0
   -0.8520    5.7670  -23.4980 F   0  0  0  0  0  0
   -3.8680    3.3850  -20.2780 F   0  0  0  0  0  0
    1.7980    5.9950  -23.0460 N   0  0  0  0  0  0
    3.9830    4.9930  -23.0740 N   0  0  0  0  0  0
    0.1850    2.5260  -24.7610 N   0  0  0  0  0  0
    4.3570    2.7640  -23.6330 N   0  0  0  0  0  0
    6.3160    0.9900  -22.4360 N   0  0  1  0  0  0
   -3.8720    3.8450  -27.9510 O   0  0  0  0  0  0
   -6.0906    3.9915  -21.3078 H   0  0  0  0  0  0
   -6.5398    4.2628  -23.7103 H   0  0  0  0  0  0
    5.5130    3.9431  -21.3353 H   0  0  0  0  0  0
    6.7288    2.9480  -20.4192 H   0  0  0  0  0  0
    6.2195    2.5376  -24.6583 H   0  0  0  0  0  0
    6.0146    4.1033  -23.8095 H   0  0  0  0  0  0
   -5.7201    4.2349  -26.0685 H   0  0  0  0  0  0
    2.1031    1.7221  -24.7009 H   0  0  0  0  0  0
    2.9456    1.3279  -22.7890 H   0  0  0  0  0  0
    4.1364    0.6131  -23.9418 H   0  0  0  0  0  0
    4.6426   -0.0103  -21.5703 H   0  0  0  0  0  0
    7.6301    2.6730  -22.5734 H   0  0  0  0  0  0
    3.9459    2.5414  -20.8028 H   0  0  0  0  0  0
    5.1875    1.5185  -19.8834 H   0  0  0  0  0  0
   -1.5919    3.5777  -26.9340 H   0  0  0  0  0  0
    0.2261    2.2870  -20.7950 H   0  0  0  0  0  0
    6.9406    0.4895  -21.7109 H   0  0  0  0  0  0
   -3.0276    3.7163  -28.3668 H   0  0  0  0  0  0
    7.2310   11.3540  -21.7100 O   0  0  0  0  0  0
    6.0850    8.8020  -21.4890 N   0  3  0  0  0  0
    4.3430    7.1820  -21.1380 N   0  0  0  0  0  0
    6.1370    7.3010  -19.6870 N   0  0  0  0  0  0
    5.8060   11.2230  -21.5370 C   0  0  0  0  0  0
    7.9600   10.2990  -21.0540 C   0  0  0  0  0  0
    7.5320    8.9390  -21.6350 C   0  0  0  0  0  0
    5.3010    9.8770  -22.0930 C   0  0  0  0  0  0
    5.5190    7.7750  -20.7950 C   0  0  0  0  0  0
    3.7200    7.3230  -22.4510 C   0  0  0  0  0  0
    3.8430    6.5950  -20.4551 H   0  0  0  0  0  0
    5.7178    6.5246  -19.1557 H   0  0  0  0  0  0
    7.0260    7.7180  -19.3760 H   0  0  0  0  0  0
    5.2970   12.0480  -22.0570 H   0  0  0  0  0  0
    5.5589   11.2940  -20.4675 H   0  0  0  0  0  0
    7.7449   10.3200  -19.9754 H   0  0  0  0  0  0
    9.0385   10.4429  -21.2159 H   0  0  0  0  0  0
    7.7991    8.8960  -22.7012 H   0  0  0  0  0  0
    8.0341    8.1309  -21.0829 H   0  0  0  0  0  0
    4.2401    9.7470  -21.8330 H   0  0  0  0  0  0
    5.4350    9.8580  -23.1846 H   0  0  0  0  0  0
    4.4765    7.6408  -23.1836 H   0  0  0  0  0  0
    2.9272    8.0839  -22.4010 H   0  0  0  0  0  0
  1  2  2  0  0  0
  1  3  1  0  0  0
  1 34  1  0  0  0
  2  6  1  0  0  0
  2 35  1  0  0  0
  3  5  2  0  0  0
  3 27  1  0  0  0
  4  5  1  0  0  0
  4  6  2  0  0  0
  4 18  1  0  0  0
  5 24  1  0  0  0
  6 10  1  0  0  0
  7 10  2  0  0  0
  7 23  1  0  0  0
  7 33  1  0  0  0
  8 21  1  0  0  0
  8 22  1  0  0  0
  8 36  1  0  0  0
  8 37  1  0  0  0
  9 21  1  0  0  0
  9 31  1  0  0  0
  9 38  1  0  0  0
  9 39  1  0  0  0
 10 40  1  0  0  0
 11 12  1  0  0  0
 11 14  2  0  0  0
 11 15  1  0  0  0
 12 17  1  0  0  0
 12 28  2  0  0  0
 13 28  1  0  0  0
 13 29  2  0  0  0
 13 61  1  0  0  0
 14 29  1  0  0  0
 14 31  1  0  0  0
 15 30  2  0  0  0
 15 41  1  0  0  0
 16 17  2  0  0  0
 16 18  1  0  0  0
 16 30  1  0  0  0
 17 26  1  0  0  0
 18 23  2  0  0  0
 19 20  1  0  0  0
 19 31  1  0  0  0
 19 42  1  0  0  0
 19 43  1  0  0  0
 20 22  1  0  0  0
 20 32  1  0  0  0
 20 44  1  0  0  0
 21 32  1  0  0  0
 21 45  1  0  0  0
 22 46  1  0  0  0
 22 47  1  0  0  0
 23 48  1  0  0  0
 24 25  3  0  0  0
 25 49  1  0  0  0
 32 50  1  0  0  0
 33 51  1  0  0  0
 52 56  1  0  0  0
 52 57  1  0  0  0
 53 58  1  0  0  0
 53 59  1  0  0  0
 53 60  2  0  0  0
 54 60  1  0  0  0
 54 61  1  0  0  0
 54 62  1  0  0  0
 55 60  1  0  0  0
 55 63  1  0  0  0
 55 64  1  0  0  0
 56 59  1  0  0  0
 56 65  1  0  0  0
 56 66  1  0  0  0
 57 58  1  0  0  0
 57 67  1  0  0  0
 57 68  1  0  0  0
 58 69  1  0  0  0
 58 70  1  0  0  0
 59 71  1  0  0  0
 59 72  1  0  0  0
 61 73  1  0  0  0
 61 74  1  0  0  0
M  CHG  1  53   1
M  END
> <s_m_entry_id>
676

> <s_m_entry_name>
000000518.1

> <s_m_Source_Path>
/Users/zaksoul/Documents/3r_UNI/2nd_SEMESTER/BSC/FRAG_RECON/RESULTS/2

> <s_m_Source_File>
000000518.mol2

> <i_m_Source_File_Index>
1

$$$$
No_0_540
                    3D
 Schrodinger Suite 2022-4.
 74 80  0  0  1  0            999 V2000
   -5.2220    3.5030  -21.8090 C   0  0  0  0  0  0
   -5.4880    3.7050  -23.1430 C   0  0  0  0  0  0
   -3.9850    3.2450  -21.4700 C   0  0  0  0  0  0
   -3.0920    3.3930  -23.6340 C   0  0  0  0  0  0
   -2.9320    3.1340  -22.2160 C   0  0  0  0  0  0
   -4.4390    3.6620  -24.1530 C   0  0  0  0  0  0
   -3.6820    3.7050  -26.3510 C   0  0  0  0  0  0
    6.0430    2.9120  -21.0870 C   0  0  0  0  0  0
    5.9060    3.0800  -23.6340 C   0  0  0  0  0  0
   -4.6890    3.8030  -25.4870 C   0  0  0  0  0  0
    2.1220    3.6310  -23.6490 C   0  0  0  0  0  0
    1.3010    4.7360  -23.3390 C   0  0  0  0  0  0
    3.1000    5.9240  -22.6460 C   0  0  0  0  0  0
    3.5220    3.8170  -23.3330 C   0  0  0  0  0  0
    1.5750    2.5210  -24.3220 C   0  0  0  0  0  0
   -0.5520    3.3340  -24.2040 C   0  0  0  0  0  0
   -0.0250    4.5480  -23.5920 C   0  0  0  0  0  0
   -2.0040    3.3440  -24.5590 C   0  0  0  0  0  0
    4.1260    1.3160  -23.0660 C   0  0  0  0  0  0
    5.0590    0.9480  -21.9220 C   0  0  2  0  0  0
    6.6530    2.4930  -22.4420 C   0  0  2  0  0  0
    5.0410    1.9380  -20.7450 C   0  0  0  0  0  0
   -2.3290    3.5190  -25.9860 C   0  0  0  0  0  0
   -1.5880    2.7140  -21.6210 C   0  0  0  0  0  0
   -0.5580    2.3610  -21.1180 C   0  0  0  0  0  0
   -0.8660    5.5900  -23.2380 F   0  0  0  0  0  0
   -3.7750    2.9890  -20.0910 F   0  0  0  0  0  0
    1.7790    5.8900  -22.7950 N   0  0  0  0  0  0
    3.9960    4.9630  -22.8750 N   0  0  0  0  0  0
    0.2690    2.4350  -24.6290 N   0  0  0  0  0  0
    4.4400    2.7710  -23.5200 N   0  0  0  0  0  0
    6.4660    1.0200  -22.4030 N   0  0  1  0  0  0
   -3.8540    3.7340  -27.7400 O   0  0  0  0  0  0
   -6.0246    3.5592  -21.0826 H   0  0  0  0  0  0
   -6.5021    3.9038  -23.4703 H   0  0  0  0  0  0
    5.5726    3.9013  -21.1869 H   0  0  0  0  0  0
    6.8288    2.9140  -20.3173 H   0  0  0  0  0  0
    6.3005    2.6452  -24.5642 H   0  0  0  0  0  0
    6.0502    4.1703  -23.6562 H   0  0  0  0  0  0
   -5.6990    3.9918  -25.8324 H   0  0  0  0  0  0
    2.2140    1.6944  -24.6109 H   0  0  0  0  0  0
    3.0828    1.2575  -22.7220 H   0  0  0  0  0  0
    4.2885    0.6267  -23.9077 H   0  0  0  0  0  0
    4.8339   -0.0677  -21.5646 H   0  0  0  0  0  0
    7.7216    2.7503  -22.4854 H   0  0  0  0  0  0
    4.0575    2.4282  -20.6966 H   0  0  0  0  0  0
    5.3396    1.4144  -19.8249 H   0  0  0  0  0  0
   -1.5585    3.5060  -26.7484 H   0  0  0  0  0  0
    0.3486    2.0492  -20.6752 H   0  0  0  0  0  0
    7.1129    0.5142  -21.7015 H   0  0  0  0  0  0
   -3.0092    3.6499  -28.1663 H   0  0  0  0  0  0
    6.7460   11.6670  -21.7620 O   0  0  0  0  0  0
    6.0300    8.9550  -21.7030 N   0  3  0  0  0  0
    4.6940    7.0300  -21.1590 N   0  0  0  0  0  0
    6.8430    7.2330  -20.3340 N   0  0  0  0  0  0
    5.4840   11.2740  -21.1900 C   0  0  0  0  0  0
    7.7650   10.6640  -21.5810 C   0  0  0  0  0  0
    7.3220    9.3540  -22.2560 C   0  0  0  0  0  0
    4.9760    9.9600  -21.8160 C   0  0  0  0  0  0
    5.8440    7.7550  -21.0840 C   0  0  0  0  0  0
    3.6600    7.2580  -22.1630 C   0  0  0  0  0  0
    4.5180    6.2730  -20.4830 H   0  0  0  0  0  0
    6.7140    6.3267  -19.8619 H   0  0  0  0  0  0
    7.7330    7.7420  -20.2360 H   0  0  0  0  0  0
    4.7432   12.0698  -21.3570 H   0  0  0  0  0  0
    5.5990   11.1420  -20.1040 H   0  0  0  0  0  0
    7.9190   10.4880  -20.5061 H   0  0  0  0  0  0
    8.7050   11.0110  -22.0350 H   0  0  0  0  0  0
    7.2230    9.5149  -23.3397 H   0  0  0  0  0  0
    8.0653    8.5687  -22.0542 H   0  0  0  0  0  0
    4.0832    9.6161  -21.2731 H   0  0  0  0  0  0
    4.7411   10.1260  -22.8777 H   0  0  0  0  0  0
    4.0899    7.8039  -23.0158 H   0  0  0  0  0  0
    2.8493    7.8588  -21.7251 H   0  0  0  0  0  0
  1  2  2  0  0  0
  1  3  1  0  0  0
  1 34  1  0  0  0
  2  6  1  0  0  0
  2 35  1  0  0  0
  3  5  2  0  0  0
  3 27  1  0  0  0
  4  5  1  0  0  0
  4  6  2  0  0  0
  4 18  1  0  0  0
  5 24  1  0  0  0
  6 10  1  0  0  0
  7 10  2  0  0  0
  7 23  1  0  0  0
  7 33  1  0  0  0
  8 21  1  0  0  0
  8 22  1  0  0  0
  8 36  1  0  0  0
  8 37  1  0  0  0
  9 21  1  0  0  0
  9 31  1  0  0  0
  9 38  1  0  0  0
  9 39  1  0  0  0
 10 40  1  0  0  0
 11 12  1  0  0  0
 11 14  2  0  0  0
 11 15  1  0  0  0
 12 17  1  0  0  0
 12 28  2  0  0  0
 13 28  1  0  0  0
 13 29  2  0  0  0
 13 61  1  0  0  0
 14 29  1  0  0  0
 14 31  1  0  0  0
 15 30  2  0  0  0
 15 41  1  0  0  0
 16 17  2  0  0  0
 16 18  1  0  0  0
 16 30  1  0  0  0
 17 26  1  0  0  0
 18 23  2  0  0  0
 19 20  1  0  0  0
 19 31  1  0  0  0
 19 42  1  0  0  0
 19 43  1  0  0  0
 20 22  1  0  0  0
 20 32  1  0  0  0
 20 44  1  0  0  0
 21 32  1  0  0  0
 21 45  1  0  0  0
 22 46  1  0  0  0
 22 47  1  0  0  0
 23 48  1  0  0  0
 24 25  3  0  0  0
 25 49  1  0  0  0
 32 50  1  0  0  0
 33 51  1  0  0  0
 52 56  1  0  0  0
 52 57  1  0  0  0
 53 58  1  0  0  0
 53 59  1  0  0  0
 53 60  2  0  0  0
 54 60  1  0  0  0
 54 61  1  0  0  0
 54 62  1  0  0  0
 55 60  1  0  0  0
 55 63  1  0  0  0
 55 64  1  0  0  0
 56 59  1  0  0  0
 56 65  1  0  0  0
 56 66  1  0  0  0
 57 58  1  0  0  0
 57 67  1  0  0  0
 57 68  1  0  0  0
 58 69  1  0  0  0
 58 70  1  0  0  0
 59 71  1  0  0  0
 59 72  1  0  0  0
 61 73  1  0  0  0
 61 74  1  0  0  0
M  CHG  1  53   1
M  END
> <s_m_entry_id>
677

> <s_m_entry_name>
000000519.1

> <s_m_Source_Path>
/Users/zaksoul/Documents/3r_UNI/2nd_SEMESTER/BSC/FRAG_RECON/RESULTS/2

> <s_m_Source_File>
000000519.mol2

> <i_m_Source_File_Index>
1

$$$$
No_0_541
                    3D
 Schrodinger Suite 2022-4.
 75 80  0  0  1  0            999 V2000
   -5.0440    3.7510  -22.1030 C   0  0  0  0  0  0
   -5.2890    3.9160  -23.4460 C   0  0  0  0  0  0
   -3.8180    3.4700  -21.7420 C   0  0  0  0  0  0
   -2.8980    3.5200  -23.8990 C   0  0  0  0  0  0
   -2.7610    3.3040  -22.4710 C   0  0  0  0  0  0
   -4.2320    3.8090  -24.4420 C   0  0  0  0  0  0
   -3.4510    3.7580  -26.6310 C   0  0  0  0  0  0
    6.1920    2.8660  -21.2320 C   0  0  0  0  0  0
    6.0860    2.9530  -23.7860 C   0  0  0  0  0  0
   -4.4640    3.9130  -25.7830 C   0  0  0  0  0  0
    2.3200    3.6090  -23.8610 C   0  0  0  0  0  0
    1.5280    4.7480  -23.5980 C   0  0  0  0  0  0
    3.3520    5.9070  -22.9230 C   0  0  0  0  0  0
    3.7210    3.7670  -23.5360 C   0  0  0  0  0  0
    1.7490    2.4940  -24.5040 C   0  0  0  0  0  0
   -0.3550    3.3700  -24.4370 C   0  0  0  0  0  0
    0.2000    4.5880  -23.8600 C   0  0  0  0  0  0
   -1.8030    3.4100  -24.8090 C   0  0  0  0  0  0
    4.2510    1.2600  -23.1800 C   0  0  0  0  0  0
    5.1600    0.9040  -22.0140 C   0  0  2  0  0  0
    6.8040    2.3850  -22.5660 C   0  0  2  0  0  0
    5.1580    1.9320  -20.8700 C   0  0  0  0  0  0
   -2.1070    3.5460  -26.2440 C   0  0  0  0  0  0
   -1.4360    2.8660  -21.8470 C   0  0  0  0  0  0
   -0.4220    2.5010  -21.3210 C   0  0  0  0  0  0
   -0.6150    5.6650  -23.5500 F   0  0  0  0  0  0
   -3.6300    3.2530  -20.3520 F   0  0  0  0  0  0
    2.0330    5.9050  -23.0870 N   0  0  0  0  0  0
    4.2230    4.9140  -23.1110 N   0  0  0  0  0  0
    0.4440    2.4350  -24.8220 N   0  0  0  0  0  0
    4.6110    2.6890  -23.6780 N   0  0  0  0  0  0
    6.5740    0.9190  -22.4810 N   0  0  1  0  0  0
   -3.6080    3.7460  -28.0220 O   0  0  0  0  0  0
   -5.8518    3.8534  -21.3875 H   0  0  0  0  0  0
   -6.2937    4.1328  -23.7903 H   0  0  0  0  0  0
    5.7509    3.8642  -21.3703 H   0  0  0  0  0  0
    6.9693    2.8710  -20.4537 H   0  0  0  0  0  0
    6.4785    2.4758  -24.6961 H   0  0  0  0  0  0
    6.2615    4.0375  -23.8415 H   0  0  0  0  0  0
   -5.4647    4.1188  -26.1453 H   0  0  0  0  0  0
    2.3661    1.6400  -24.7589 H   0  0  0  0  0  0
    3.2030    1.2418  -22.8461 H   0  0  0  0  0  0
    4.4024    0.5385  -23.9964 H   0  0  0  0  0  0
    4.9026   -0.0923  -21.6254 H   0  0  0  0  0  0
    7.8798    2.6111  -22.6064 H   0  0  0  0  0  0
    4.1888    2.4519  -20.8498 H   0  0  0  0  0  0
    5.4326    1.4312  -19.9299 H   0  0  0  0  0  0
   -1.3302    3.4858  -26.9977 H   0  0  0  0  0  0
    0.4709    2.1791  -20.8581 H   0  0  0  0  0  0
    7.1984    0.4197  -21.7550 H   0  0  0  0  0  0
   -2.7615    3.6234  -28.4354 H   0  0  0  0  0  0
    5.1450    7.0190  -21.6770 N   0  3  0  0  0  0
    5.6660    9.3110  -21.6120 N   0  0  0  0  0  0
    7.0350    7.6190  -20.5220 N   0  0  0  0  0  0
    5.9650    8.0240  -21.2650 C   0  0  0  0  0  0
    6.5800   10.4450  -21.5080 C   0  0  0  0  0  0
    3.9450    7.2400  -22.4790 C   0  0  0  0  0  0
    7.8730    8.4880  -19.7050 C   0  0  0  0  0  0
    6.5260   11.1130  -23.9560 C   0  0  0  0  0  0
    6.2190   11.5540  -22.5140 C   0  0  0  0  0  0
    5.3590    6.0440  -21.4230 H   0  0  0  0  0  0
    4.7316    9.5411  -21.9792 H   0  0  0  0  0  0
    7.3068    6.6256  -20.5090 H   0  0  0  0  0  0
    7.6090   10.1030  -21.6930 H   0  0  0  0  0  0
    6.5450   10.8509  -20.4862 H   0  0  0  0  0  0
    4.2019    7.8397  -23.3646 H   0  0  0  0  0  0
    3.2023    7.7908  -21.8832 H   0  0  0  0  0  0
    8.6580    7.8900  -19.2190 H   0  0  0  0  0  0
    8.3382    9.2544  -20.3423 H   0  0  0  0  0  0
    7.2554    8.9757  -18.9365 H   0  0  0  0  0  0
    6.2590   11.9219  -24.6519 H   0  0  0  0  0  0
    7.5984   10.8869  -24.0500 H   0  0  0  0  0  0
    5.9399   10.2139  -24.1970 H   0  0  0  0  0  0
    6.7928   12.4626  -22.2791 H   0  0  0  0  0  0
    5.1497   11.7961  -22.4250 H   0  0  0  0  0  0
  1  2  2  0  0  0
  1  3  1  0  0  0
  1 34  1  0  0  0
  2  6  1  0  0  0
  2 35  1  0  0  0
  3  5  2  0  0  0
  3 27  1  0  0  0
  4  5  1  0  0  0
  4  6  2  0  0  0
  4 18  1  0  0  0
  5 24  1  0  0  0
  6 10  1  0  0  0
  7 10  2  0  0  0
  7 23  1  0  0  0
  7 33  1  0  0  0
  8 21  1  0  0  0
  8 22  1  0  0  0
  8 36  1  0  0  0
  8 37  1  0  0  0
  9 21  1  0  0  0
  9 31  1  0  0  0
  9 38  1  0  0  0
  9 39  1  0  0  0
 10 40  1  0  0  0
 11 12  1  0  0  0
 11 14  2  0  0  0
 11 15  1  0  0  0
 12 17  1  0  0  0
 12 28  2  0  0  0
 13 28  1  0  0  0
 13 29  2  0  0  0
 13 57  1  0  0  0
 14 29  1  0  0  0
 14 31  1  0  0  0
 15 30  2  0  0  0
 15 41  1  0  0  0
 16 17  2  0  0  0
 16 18  1  0  0  0
 16 30  1  0  0  0
 17 26  1  0  0  0
 18 23  2  0  0  0
 19 20  1  0  0  0
 19 31  1  0  0  0
 19 42  1  0  0  0
 19 43  1  0  0  0
 20 22  1  0  0  0
 20 32  1  0  0  0
 20 44  1  0  0  0
 21 32  1  0  0  0
 21 45  1  0  0  0
 22 46  1  0  0  0
 22 47  1  0  0  0
 23 48  1  0  0  0
 24 25  3  0  0  0
 25 49  1  0  0  0
 32 50  1  0  0  0
 33 51  1  0  0  0
 52 55  2  0  0  0
 52 57  1  0  0  0
 52 61  1  0  0  0
 53 55  1  0  0  0
 53 56  1  0  0  0
 53 62  1  0  0  0
 54 55  1  0  0  0
 54 58  1  0  0  0
 54 63  1  0  0  0
 56 60  1  0  0  0
 56 64  1  0  0  0
 56 65  1  0  0  0
 57 66  1  0  0  0
 57 67  1  0  0  0
 58 68  1  0  0  0
 58 69  1  0  0  0
 58 70  1  0  0  0
 59 60  1  0  0  0
 59 71  1  0  0  0
 59 72  1  0  0  0
 59 73  1  0  0  0
 60 74  1  0  0  0
 60 75  1  0  0  0
M  CHG  1  52   1
M  END
> <s_m_entry_id>
678

> <s_m_entry_name>
000000520.1

> <s_m_Source_Path>
/Users/zaksoul/Documents/3r_UNI/2nd_SEMESTER/BSC/FRAG_RECON/RESULTS/2

> <s_m_Source_File>
000000520.mol2

> <i_m_Source_File_Index>
1

$$$$
No_0_542
                    3D
 Schrodinger Suite 2022-4.
 70 76  0  0  1  0            999 V2000
   -5.4010    3.5090  -22.2320 C   0  0  0  0  0  0
   -5.6510    3.6990  -23.5700 C   0  0  0  0  0  0
   -4.1680    3.2490  -21.8760 C   0  0  0  0  0  0
   -3.2510    3.3710  -24.0310 C   0  0  0  0  0  0
   -3.1080    3.1250  -22.6090 C   0  0  0  0  0  0
   -4.5910    3.6400  -24.5680 C   0  0  0  0  0  0
   -3.8100    3.6580  -26.7570 C   0  0  0  0  0  0
    5.8530    2.8730  -21.3780 C   0  0  0  0  0  0
    5.7450    3.0160  -23.9290 C   0  0  0  0  0  0
   -4.8260    3.7690  -25.9060 C   0  0  0  0  0  0
    1.9640    3.5840  -23.9900 C   0  0  0  0  0  0
    1.1450    4.6970  -23.7010 C   0  0  0  0  0  0
    2.9410    5.8830  -23.0000 C   0  0  0  0  0  0
    3.3610    3.7670  -23.6610 C   0  0  0  0  0  0
    1.4190    2.4700  -24.6580 C   0  0  0  0  0  0
   -0.7050    3.2940  -24.5730 C   0  0  0  0  0  0
   -0.1790    4.5120  -23.9670 C   0  0  0  0  0  0
   -2.1540    3.3080  -24.9440 C   0  0  0  0  0  0
    3.9500    1.2660  -23.3620 C   0  0  0  0  0  0
    4.8680    0.9050  -22.2050 C   0  0  2  0  0  0
    6.4760    2.4380  -22.7220 C   0  0  2  0  0  0
    4.8420    1.9070  -21.0380 C   0  0  0  0  0  0
   -2.4610    3.4690  -26.3760 C   0  0  0  0  0  0
   -1.7730    2.7050  -21.9950 C   0  0  0  0  0  0
   -0.7500    2.3520  -21.4770 C   0  0  0  0  0  0
   -1.0190    5.5610  -23.6320 F   0  0  0  0  0  0
   -3.9750    3.0050  -20.4920 F   0  0  0  0  0  0
    1.6220    5.8530  -23.1630 N   0  0  0  0  0  0
    3.8350    4.9160  -23.2090 N   0  0  0  0  0  0
    0.1160    2.3870  -24.9790 N   0  0  0  0  0  0
    4.2760    2.7150  -23.8270 N   0  0  0  0  0  0
    6.2810    0.9650  -22.6700 N   0  0  1  0  0  0
   -3.9660    3.6740  -28.1490 O   0  0  0  0  0  0
   -6.2108    3.5762  -21.5145 H   0  0  0  0  0  0
   -6.6605    3.8989  -23.9105 H   0  0  0  0  0  0
    5.3886    3.8635  -21.4931 H   0  0  0  0  0  0
    6.6298    2.8791  -20.5992 H   0  0  0  0  0  0
    6.1480    2.5696  -24.8501 H   0  0  0  0  0  0
    5.8943    4.1054  -23.9593 H   0  0  0  0  0  0
   -5.8311    3.9598  -26.2645 H   0  0  0  0  0  0
    2.0568    1.6377  -24.9328 H   0  0  0  0  0  0
    2.9029    1.2155  -23.0288 H   0  0  0  0  0  0
    4.1186    0.5674  -24.1948 H   0  0  0  0  0  0
    4.6348   -0.1056  -21.8385 H   0  0  0  0  0  0
    7.5463    2.6894  -22.7563 H   0  0  0  0  0  0
    3.8604    2.4024  -21.0057 H   0  0  0  0  0  0
    5.1284    1.3917  -20.1093 H   0  0  0  0  0  0
   -1.6827    3.4449  -27.1302 H   0  0  0  0  0  0
    0.1502    2.0409  -21.0209 H   0  0  0  0  0  0
    6.9176    0.4632  -21.9563 H   0  0  0  0  0  0
   -3.1168    3.5819  -28.5647 H   0  0  0  0  0  0
    3.7970    7.1480  -21.0960 N   0  3  0  0  0  0
    5.0360    7.6270  -19.1840 N   0  0  0  0  0  0
    6.8340    9.0660  -20.6700 N   0  0  0  0  0  0
    5.5710    8.9360  -21.1230 C   0  0  0  0  0  0
    3.5020    7.2190  -22.5250 C   0  0  0  0  0  0
    4.7540    7.8690  -20.4740 C   0  0  0  0  0  0
    5.7880   10.7800  -22.6890 C   0  0  0  0  0  0
    5.0140    9.7990  -22.1320 C   0  0  0  0  0  0
    7.5640   10.0430  -21.2390 C   0  0  0  0  0  0
    7.0720   10.9190  -22.2590 C   0  0  0  0  0  0
    3.2146    6.4917  -20.5566 H   0  0  0  0  0  0
    5.7658    8.1738  -18.7051 H   0  0  0  0  0  0
    4.5228    6.8947  -18.6728 H   0  0  0  0  0  0
    4.4251    7.4470  -23.0781 H   0  0  0  0  0  0
    2.7624    8.0126  -22.7069 H   0  0  0  0  0  0
    5.3752   11.4268  -23.4547 H   0  0  0  0  0  0
    3.9850    9.6690  -22.4470 H   0  0  0  0  0  0
    8.5904   10.2021  -20.9289 H   0  0  0  0  0  0
    7.7069   11.6858  -22.6879 H   0  0  0  0  0  0
  1  2  2  0  0  0
  1  3  1  0  0  0
  1 34  1  0  0  0
  2  6  1  0  0  0
  2 35  1  0  0  0
  3  5  2  0  0  0
  3 27  1  0  0  0
  4  5  1  0  0  0
  4  6  2  0  0  0
  4 18  1  0  0  0
  5 24  1  0  0  0
  6 10  1  0  0  0
  7 10  2  0  0  0
  7 23  1  0  0  0
  7 33  1  0  0  0
  8 21  1  0  0  0
  8 22  1  0  0  0
  8 36  1  0  0  0
  8 37  1  0  0  0
  9 21  1  0  0  0
  9 31  1  0  0  0
  9 38  1  0  0  0
  9 39  1  0  0  0
 10 40  1  0  0  0
 11 12  1  0  0  0
 11 14  2  0  0  0
 11 15  1  0  0  0
 12 17  1  0  0  0
 12 28  2  0  0  0
 13 28  1  0  0  0
 13 29  2  0  0  0
 13 56  1  0  0  0
 14 29  1  0  0  0
 14 31  1  0  0  0
 15 30  2  0  0  0
 15 41  1  0  0  0
 16 17  2  0  0  0
 16 18  1  0  0  0
 16 30  1  0  0  0
 17 26  1  0  0  0
 18 23  2  0  0  0
 19 20  1  0  0  0
 19 31  1  0  0  0
 19 42  1  0  0  0
 19 43  1  0  0  0
 20 22  1  0  0  0
 20 32  1  0  0  0
 20 44  1  0  0  0
 21 32  1  0  0  0
 21 45  1  0  0  0
 22 46  1  0  0  0
 22 47  1  0  0  0
 23 48  1  0  0  0
 24 25  3  0  0  0
 25 49  1  0  0  0
 32 50  1  0  0  0
 33 51  1  0  0  0
 52 56  1  0  0  0
 52 57  2  0  0  0
 52 62  1  0  0  0
 53 57  1  0  0  0
 53 63  1  0  0  0
 53 64  1  0  0  0
 54 55  2  0  0  0
 54 60  1  0  0  0
 55 57  1  0  0  0
 55 59  1  0  0  0
 56 65  1  0  0  0
 56 66  1  0  0  0
 58 59  2  0  0  0
 58 61  1  0  0  0
 58 67  1  0  0  0
 59 68  1  0  0  0
 60 61  2  0  0  0
 60 69  1  0  0  0
 61 70  1  0  0  0
M  CHG  1  52   1
M  END
> <s_m_entry_id>
679

> <s_m_entry_name>
000000521.1

> <s_m_Source_Path>
/Users/zaksoul/Documents/3r_UNI/2nd_SEMESTER/BSC/FRAG_RECON/RESULTS/2

> <s_m_Source_File>
000000521.mol2

> <i_m_Source_File_Index>
1

$$$$
No_0_543
                    3D
 Schrodinger Suite 2022-4.
 70 76  0  0  1  0            999 V2000
   -5.3830    3.6930  -22.2270 C   0  0  0  0  0  0
   -5.6300    3.8780  -23.5670 C   0  0  0  0  0  0
   -4.1550    3.4110  -21.8710 C   0  0  0  0  0  0
   -3.2380    3.4970  -24.0280 C   0  0  0  0  0  0
   -3.0990    3.2600  -22.6040 C   0  0  0  0  0  0
   -4.5730    3.7900  -24.5650 C   0  0  0  0  0  0
   -3.7940    3.7750  -26.7550 C   0  0  0  0  0  0
    5.8560    2.8340  -21.3790 C   0  0  0  0  0  0
    5.7490    2.9600  -23.9310 C   0  0  0  0  0  0
   -4.8070    3.9130  -25.9050 C   0  0  0  0  0  0
    1.9800    3.6040  -23.9940 C   0  0  0  0  0  0
    1.1840    4.7360  -23.7120 C   0  0  0  0  0  0
    3.0050    5.8900  -23.0220 C   0  0  0  0  0  0
    3.3810    3.7620  -23.6670 C   0  0  0  0  0  0
    1.4120    2.4960  -24.6520 C   0  0  0  0  0  0
   -0.6950    3.3640  -24.5710 C   0  0  0  0  0  0
   -0.1430    4.5750  -23.9760 C   0  0  0  0  0  0
   -2.1430    3.4050  -24.9410 C   0  0  0  0  0  0
    3.9190    1.2510  -23.3490 C   0  0  0  0  0  0
    4.8310    0.8810  -22.1900 C   0  0  2  0  0  0
    6.4690    2.3760  -22.7210 C   0  0  2  0  0  0
    4.8260    1.8920  -21.0310 C   0  0  0  0  0  0
   -2.4490    3.5610  -26.3740 C   0  0  0  0  0  0
   -1.7720    2.8170  -21.9880 C   0  0  0  0  0  0
   -0.7560    2.4480  -21.4680 C   0  0  0  0  0  0
   -0.9620    5.6440  -23.6480 F   0  0  0  0  0  0
   -3.9660    3.1740  -20.4850 F   0  0  0  0  0  0
    1.6850    5.8860  -23.1840 N   0  0  0  0  0  0
    3.8790    4.9030  -23.2250 N   0  0  0  0  0  0
    0.1070    2.4370  -24.9710 N   0  0  0  0  0  0
    4.2740    2.6890  -23.8260 N   0  0  0  0  0  0
    6.2440    0.9080  -22.6570 N   0  0  1  0  0  0
   -3.9520    3.7830  -28.1470 O   0  0  0  0  0  0
   -6.1912    3.7824  -21.5102 H   0  0  0  0  0  0
   -6.6356    4.0958  -23.9082 H   0  0  0  0  0  0
    5.4121    3.8329  -21.5021 H   0  0  0  0  0  0
    6.6343    2.8310  -20.6017 H   0  0  0  0  0  0
    6.1417    2.4977  -24.8486 H   0  0  0  0  0  0
    5.9196    4.0459  -23.9714 H   0  0  0  0  0  0
   -5.8087    4.1208  -26.2633 H   0  0  0  0  0  0
    2.0324    1.6488  -24.9210 H   0  0  0  0  0  0
    2.8716    1.2248  -23.0140 H   0  0  0  0  0  0
    4.0724    0.5426  -24.1765 H   0  0  0  0  0  0
    4.5768   -0.1217  -21.8158 H   0  0  0  0  0  0
    7.5440    2.6061  -22.7583 H   0  0  0  0  0  0
    3.8549    2.4078  -21.0017 H   0  0  0  0  0  0
    5.1035    1.3784  -20.0987 H   0  0  0  0  0  0
   -1.6717    3.5158  -27.1282 H   0  0  0  0  0  0
    0.1379    2.1220  -21.0100 H   0  0  0  0  0  0
    6.8716    0.4002  -21.9396 H   0  0  0  0  0  0
   -3.1053    3.6692  -28.5625 H   0  0  0  0  0  0
    3.9010    7.1880  -21.1310 N   0  3  0  0  0  0
    5.2420    7.6350  -19.2760 N   0  0  0  0  0  0
    7.2540   10.8860  -22.6730 N   0  0  0  0  0  0
    3.5940    7.2190  -22.5580 C   0  0  0  0  0  0
    4.9190    7.8740  -20.5620 C   0  0  0  0  0  0
    5.1200    9.8190  -22.1330 C   0  0  0  0  0  0
    7.0740    8.9890  -21.1370 C   0  0  0  0  0  0
    5.7080    8.8990  -21.2920 C   0  0  0  0  0  0
    5.9210   10.7940  -22.8050 C   0  0  0  0  0  0
    7.8130    9.9890  -21.8440 C   0  0  0  0  0  0
    3.2878    6.5998  -20.5488 H   0  0  0  0  0  0
    6.0153    8.1522  -18.8338 H   0  0  0  0  0  0
    4.7152    6.9343  -18.7352 H   0  0  0  0  0  0
    4.5119    7.4310  -23.1259 H   0  0  0  0  0  0
    2.8769    8.0281  -22.7610 H   0  0  0  0  0  0
    4.0471    9.8040  -22.2870 H   0  0  0  0  0  0
    7.5900    8.3001  -20.4781 H   0  0  0  0  0  0
    5.3919   11.4851  -23.4511 H   0  0  0  0  0  0
    8.8845    9.9970  -21.6799 H   0  0  0  0  0  0
  1  2  2  0  0  0
  1  3  1  0  0  0
  1 34  1  0  0  0
  2  6  1  0  0  0
  2 35  1  0  0  0
  3  5  2  0  0  0
  3 27  1  0  0  0
  4  5  1  0  0  0
  4  6  2  0  0  0
  4 18  1  0  0  0
  5 24  1  0  0  0
  6 10  1  0  0  0
  7 10  2  0  0  0
  7 23  1  0  0  0
  7 33  1  0  0  0
  8 21  1  0  0  0
  8 22  1  0  0  0
  8 36  1  0  0  0
  8 37  1  0  0  0
  9 21  1  0  0  0
  9 31  1  0  0  0
  9 38  1  0  0  0
  9 39  1  0  0  0
 10 40  1  0  0  0
 11 12  1  0  0  0
 11 14  2  0  0  0
 11 15  1  0  0  0
 12 17  1  0  0  0
 12 28  2  0  0  0
 13 28  1  0  0  0
 13 29  2  0  0  0
 13 55  1  0  0  0
 14 29  1  0  0  0
 14 31  1  0  0  0
 15 30  2  0  0  0
 15 41  1  0  0  0
 16 17  2  0  0  0
 16 18  1  0  0  0
 16 30  1  0  0  0
 17 26  1  0  0  0
 18 23  2  0  0  0
 19 20  1  0  0  0
 19 31  1  0  0  0
 19 42  1  0  0  0
 19 43  1  0  0  0
 20 22  1  0  0  0
 20 32  1  0  0  0
 20 44  1  0  0  0
 21 32  1  0  0  0
 21 45  1  0  0  0
 22 46  1  0  0  0
 22 47  1  0  0  0
 23 48  1  0  0  0
 24 25  3  0  0  0
 25 49  1  0  0  0
 32 50  1  0  0  0
 33 51  1  0  0  0
 52 55  1  0  0  0
 52 56  2  0  0  0
 52 62  1  0  0  0
 53 56  1  0  0  0
 53 63  1  0  0  0
 53 64  1  0  0  0
 54 60  2  0  0  0
 54 61  1  0  0  0
 55 65  1  0  0  0
 55 66  1  0  0  0
 56 59  1  0  0  0
 57 59  2  0  0  0
 57 60  1  0  0  0
 57 67  1  0  0  0
 58 59  1  0  0  0
 58 61  2  0  0  0
 58 68  1  0  0  0
 60 69  1  0  0  0
 61 70  1  0  0  0
M  CHG  1  52   1
M  END
> <s_m_entry_id>
680

> <s_m_entry_name>
000000522.1

> <s_m_Source_Path>
/Users/zaksoul/Documents/3r_UNI/2nd_SEMESTER/BSC/FRAG_RECON/RESULTS/2

> <s_m_Source_File>
000000522.mol2

> <i_m_Source_File_Index>
1

$$$$
No_0_544
                    3D
 Schrodinger Suite 2022-4.
 69 75  0  0  1  0            999 V2000
   -5.3110    3.2800  -22.4130 C   0  0  0  0  0  0
   -5.5290    3.4530  -23.7590 C   0  0  0  0  0  0
   -4.0840    3.0450  -22.0230 C   0  0  0  0  0  0
   -3.1130    3.1630  -24.1540 C   0  0  0  0  0  0
   -3.0030    2.9330  -22.7260 C   0  0  0  0  0  0
   -4.4430    3.4040  -24.7280 C   0  0  0  0  0  0
   -3.6050    3.4150  -26.8960 C   0  0  0  0  0  0
    5.9250    2.8480  -21.2600 C   0  0  0  0  0  0
    5.8820    2.9650  -23.8140 C   0  0  0  0  0  0
   -4.6450    3.5160  -26.0730 C   0  0  0  0  0  0
    2.0940    3.4670  -23.9800 C   0  0  0  0  0  0
    1.2490    4.5680  -23.7220 C   0  0  0  0  0  0
    3.0060    5.7910  -22.9860 C   0  0  0  0  0  0
    3.4790    3.6770  -23.6150 C   0  0  0  0  0  0
    1.5870    2.3370  -24.6500 C   0  0  0  0  0  0
   -0.5530    3.1250  -24.6280 C   0  0  0  0  0  0
   -0.0640    4.3570  -24.0210 C   0  0  0  0  0  0
   -1.9910    3.1100  -25.0370 C   0  0  0  0  0  0
    4.1030    1.1900  -23.2770 C   0  0  0  0  0  0
    4.9970    0.8560  -22.0930 C   0  0  2  0  0  0
    6.5910    2.4110  -22.5830 C   0  0  2  0  0  0
    4.9230    1.8670  -20.9370 C   0  0  0  0  0  0
   -2.2640    3.2530  -26.4780 C   0  0  0  0  0  0
   -1.6780    2.5420  -22.0730 C   0  0  0  0  0  0
   -0.6630    2.2110  -21.5260 C   0  0  0  0  0  0
   -0.9300    5.3950  -23.7190 F   0  0  0  0  0  0
   -3.9230    2.8170  -20.6310 F   0  0  0  0  0  0
    1.6920    5.7370  -23.1840 N   0  0  0  0  0  0
    3.9220    4.8380  -23.1630 N   0  0  0  0  0  0
    0.2940    2.2290  -25.0040 N   0  0  0  0  0  0
    4.4160    2.6390  -23.7480 N   0  0  0  0  0  0
    6.4200    0.9360  -22.5220 N   0  0  1  0  0  0
   -3.7250    3.4160  -28.2920 O   0  0  0  0  0  0
   -6.1406    3.3392  -21.7178 H   0  0  0  0  0  0
   -6.5326    3.6326  -24.1273 H   0  0  0  0  0  0
    5.4474    3.8295  -21.3963 H   0  0  0  0  0  0
    6.6816    2.8742  -20.4620 H   0  0  0  0  0  0
    6.3164    2.5175  -24.7201 H   0  0  0  0  0  0
    6.0131    4.0565  -23.8513 H   0  0  0  0  0  0
   -5.6435    3.6856  -26.4594 H   0  0  0  0  0  0
    2.2465    1.5138  -24.9000 H   0  0  0  0  0  0
    3.0485    1.1234  -22.9712 H   0  0  0  0  0  0
    4.3048    0.4867  -24.0984 H   0  0  0  0  0  0
    4.7709   -0.1552  -21.7236 H   0  0  0  0  0  0
    7.6574    2.6806  -22.5921 H   0  0  0  0  0  0
    3.9328    2.3460  -20.9350 H   0  0  0  0  0  0
    5.1935    1.3653  -19.9962 H   0  0  0  0  0  0
   -1.4661    3.2359  -27.2116 H   0  0  0  0  0  0
    0.2303    1.9199  -21.0439 H   0  0  0  0  0  0
    7.0467    0.4526  -21.7872 H   0  0  0  0  0  0
   -2.8636    3.3338  -28.6841 H   0  0  0  0  0  0
    3.7910    7.0910  -21.0720 N   0  3  0  0  0  0
    5.0040    7.6240  -19.1510 N   0  0  0  0  0  0
    6.8610    8.9120  -20.8480 N   0  0  0  0  0  0
    5.6150   10.7750  -22.6620 N   0  0  0  0  0  0
    3.5320    7.1420  -22.5090 C   0  0  0  0  0  0
    4.7370    7.8250  -20.4510 C   0  0  0  0  0  0
    4.9340    9.8130  -22.0300 C   0  0  0  0  0  0
    5.5510    8.8700  -21.1350 C   0  0  0  0  0  0
    6.9220   10.7980  -22.3880 C   0  0  0  0  0  0
    7.5410    9.8750  -21.4810 C   0  0  0  0  0  0
    3.1991    6.4461  -20.5291 H   0  0  0  0  0  0
    5.7272    8.1861  -18.6799 H   0  0  0  0  0  0
    4.4862    6.9062  -18.6242 H   0  0  0  0  0  0
    4.4642    7.3801  -23.0421 H   0  0  0  0  0  0
    2.7843    7.9207  -22.7199 H   0  0  0  0  0  0
    3.8649    9.7170  -22.1810 H   0  0  0  0  0  0
    7.5621   11.5351  -22.8591 H   0  0  0  0  0  0
    8.6071    9.9830  -21.3170 H   0  0  0  0  0  0
  1  2  2  0  0  0
  1  3  1  0  0  0
  1 34  1  0  0  0
  2  6  1  0  0  0
  2 35  1  0  0  0
  3  5  2  0  0  0
  3 27  1  0  0  0
  4  5  1  0  0  0
  4  6  2  0  0  0
  4 18  1  0  0  0
  5 24  1  0  0  0
  6 10  1  0  0  0
  7 10  2  0  0  0
  7 23  1  0  0  0
  7 33  1  0  0  0
  8 21  1  0  0  0
  8 22  1  0  0  0
  8 36  1  0  0  0
  8 37  1  0  0  0
  9 21  1  0  0  0
  9 31  1  0  0  0
  9 38  1  0  0  0
  9 39  1  0  0  0
 10 40  1  0  0  0
 11 12  1  0  0  0
 11 14  2  0  0  0
 11 15  1  0  0  0
 12 17  1  0  0  0
 12 28  2  0  0  0
 13 28  1  0  0  0
 13 29  2  0  0  0
 13 56  1  0  0  0
 14 29  1  0  0  0
 14 31  1  0  0  0
 15 30  2  0  0  0
 15 41  1  0  0  0
 16 17  2  0  0  0
 16 18  1  0  0  0
 16 30  1  0  0  0
 17 26  1  0  0  0
 18 23  2  0  0  0
 19 20  1  0  0  0
 19 31  1  0  0  0
 19 42  1  0  0  0
 19 43  1  0  0  0
 20 22  1  0  0  0
 20 32  1  0  0  0
 20 44  1  0  0  0
 21 32  1  0  0  0
 21 45  1  0  0  0
 22 46  1  0  0  0
 22 47  1  0  0  0
 23 48  1  0  0  0
 24 25  3  0  0  0
 25 49  1  0  0  0
 32 50  1  0  0  0
 33 51  1  0  0  0
 52 56  1  0  0  0
 52 57  2  0  0  0
 52 62  1  0  0  0
 53 57  1  0  0  0
 53 63  1  0  0  0
 53 64  1  0  0  0
 54 59  2  0  0  0
 54 61  1  0  0  0
 55 58  2  0  0  0
 55 60  1  0  0  0
 56 65  1  0  0  0
 56 66  1  0  0  0
 57 59  1  0  0  0
 58 59  1  0  0  0
 58 67  1  0  0  0
 60 61  2  0  0  0
 60 68  1  0  0  0
 61 69  1  0  0  0
M  CHG  1  52   1
M  END
> <s_m_entry_id>
681

> <s_m_entry_name>
000000523.1

> <s_m_Source_Path>
/Users/zaksoul/Documents/3r_UNI/2nd_SEMESTER/BSC/FRAG_RECON/RESULTS/2

> <s_m_Source_File>
000000523.mol2

> <i_m_Source_File_Index>
1

$$$$
No_0_545
                    3D
 Schrodinger Suite 2022-4.
 69 75  0  0  1  0            999 V2000
   -5.2080    3.6420  -22.0550 C   0  0  0  0  0  0
   -5.4700    3.8140  -23.3940 C   0  0  0  0  0  0
   -3.9670    3.4150  -21.7050 C   0  0  0  0  0  0
   -3.0660    3.5380  -23.8670 C   0  0  0  0  0  0
   -2.9090    3.3100  -22.4430 C   0  0  0  0  0  0
   -4.4150    3.7720  -24.3980 C   0  0  0  0  0  0
   -3.6470    3.7870  -26.5920 C   0  0  0  0  0  0
    6.0620    3.2790  -21.2640 C   0  0  0  0  0  0
    5.9360    3.3960  -23.8150 C   0  0  0  0  0  0
   -4.6600    3.8820  -25.7360 C   0  0  0  0  0  0
    2.1420    3.8740  -23.8590 C   0  0  0  0  0  0
    1.3000    4.9700  -23.5750 C   0  0  0  0  0  0
    3.0720    6.2040  -22.8960 C   0  0  0  0  0  0
    3.5370    4.0930  -23.5400 C   0  0  0  0  0  0
    1.6210    2.7410  -24.5140 C   0  0  0  0  0  0
   -0.5220    3.5160  -24.4230 C   0  0  0  0  0  0
   -0.0210    4.7510  -23.8320 C   0  0  0  0  0  0
   -1.9730    3.4930  -24.7850 C   0  0  0  0  0  0
    4.1870    1.6100  -23.2220 C   0  0  0  0  0  0
    5.1200    1.2810  -22.0670 C   0  0  2  0  0  0
    6.6870    2.8460  -22.6080 C   0  0  2  0  0  0
    5.0770    2.2920  -20.9090 C   0  0  0  0  0  0
   -2.2930    3.6330  -26.2170 C   0  0  0  0  0  0
   -1.5610    2.9260  -21.8330 C   0  0  0  0  0  0
   -0.5270    2.6020  -21.3180 C   0  0  0  0  0  0
   -0.8840    5.7840  -23.5020 F   0  0  0  0  0  0
   -3.7610    3.1890  -20.3200 F   0  0  0  0  0  0
    1.7520    6.1420  -23.0510 N   0  0  0  0  0  0
    3.9870    5.2560  -23.1020 N   0  0  0  0  0  0
    0.3180    2.6250  -24.8260 N   0  0  0  0  0  0
    4.4750    3.0610  -23.7020 N   0  0  0  0  0  0
    6.5280    1.3700  -22.5420 N   0  0  1  0  0  0
   -3.8120    3.7870  -27.9830 O   0  0  0  0  0  0
   -6.0155    3.6972  -21.3339 H   0  0  0  0  0  0
   -6.4858    3.9876  -23.7303 H   0  0  0  0  0  0
    5.5743    4.2575  -21.3852 H   0  0  0  0  0  0
    6.8435    3.3103  -20.4905 H   0  0  0  0  0  0
    6.3436    2.9500  -24.7342 H   0  0  0  0  0  0
    6.0592    4.4883  -23.8574 H   0  0  0  0  0  0
   -5.6717    4.0456  -26.0893 H   0  0  0  0  0  0
    2.2769    1.9214  -24.7842 H   0  0  0  0  0  0
    3.1433    1.5374  -22.8822 H   0  0  0  0  0  0
    4.3666    0.9077  -24.0494 H   0  0  0  0  0  0
    4.9121    0.2686  -21.6905 H   0  0  0  0  0  0
    7.7509    3.1223  -22.6514 H   0  0  0  0  0  0
    4.0845    2.7651  -20.8757 H   0  0  0  0  0  0
    5.3808    1.7923  -19.9773 H   0  0  0  0  0  0
   -1.5181    3.6210  -26.9749 H   0  0  0  0  0  0
    0.3832    2.3169  -20.8649 H   0  0  0  0  0  0
    7.1799    0.8902  -21.8270 H   0  0  0  0  0  0
   -2.9631    3.7098  -28.4025 H   0  0  0  0  0  0
    4.6370    7.3630  -21.4220 N   0  3  0  0  0  0
    6.6500    7.8920  -20.3660 N   0  0  0  0  0  0
    7.0400    9.8330  -22.3840 N   0  0  0  0  0  0
    4.7650   11.5750  -22.7140 N   0  0  0  0  0  0
    3.6040    7.5580  -22.4360 C   0  0  0  0  0  0
    5.6700    8.2100  -21.2260 C   0  0  0  0  0  0
    4.6890   10.3930  -22.0940 C   0  0  0  0  0  0
    5.8160    9.5110  -21.9380 C   0  0  0  0  0  0
    5.9820   11.8790  -23.1750 C   0  0  0  0  0  0
    7.1140   11.0160  -23.0050 C   0  0  0  0  0  0
    4.5440    6.5198  -20.8378 H   0  0  0  0  0  0
    7.4366    8.5407  -20.2201 H   0  0  0  0  0  0
    6.6160    6.9996  -19.8528 H   0  0  0  0  0  0
    4.0309    8.0949  -23.2959 H   0  0  0  0  0  0
    2.7800    8.1500  -22.0110 H   0  0  0  0  0  0
    3.7449   10.0590  -21.6790 H   0  0  0  0  0  0
    6.1440   12.8122  -23.7021 H   0  0  0  0  0  0
    8.0609   11.3590  -23.4060 H   0  0  0  0  0  0
  1  2  2  0  0  0
  1  3  1  0  0  0
  1 34  1  0  0  0
  2  6  1  0  0  0
  2 35  1  0  0  0
  3  5  2  0  0  0
  3 27  1  0  0  0
  4  5  1  0  0  0
  4  6  2  0  0  0
  4 18  1  0  0  0
  5 24  1  0  0  0
  6 10  1  0  0  0
  7 10  2  0  0  0
  7 23  1  0  0  0
  7 33  1  0  0  0
  8 21  1  0  0  0
  8 22  1  0  0  0
  8 36  1  0  0  0
  8 37  1  0  0  0
  9 21  1  0  0  0
  9 31  1  0  0  0
  9 38  1  0  0  0
  9 39  1  0  0  0
 10 40  1  0  0  0
 11 12  1  0  0  0
 11 14  2  0  0  0
 11 15  1  0  0  0
 12 17  1  0  0  0
 12 28  2  0  0  0
 13 28  1  0  0  0
 13 29  2  0  0  0
 13 56  1  0  0  0
 14 29  1  0  0  0
 14 31  1  0  0  0
 15 30  2  0  0  0
 15 41  1  0  0  0
 16 17  2  0  0  0
 16 18  1  0  0  0
 16 30  1  0  0  0
 17 26  1  0  0  0
 18 23  2  0  0  0
 19 20  1  0  0  0
 19 31  1  0  0  0
 19 42  1  0  0  0
 19 43  1  0  0  0
 20 22  1  0  0  0
 20 32  1  0  0  0
 20 44  1  0  0  0
 21 32  1  0  0  0
 21 45  1  0  0  0
 22 46  1  0  0  0
 22 47  1  0  0  0
 23 48  1  0  0  0
 24 25  3  0  0  0
 25 49  1  0  0  0
 32 50  1  0  0  0
 33 51  1  0  0  0
 52 56  1  0  0  0
 52 57  2  0  0  0
 52 62  1  0  0  0
 53 57  1  0  0  0
 53 63  1  0  0  0
 53 64  1  0  0  0
 54 59  2  0  0  0
 54 61  1  0  0  0
 55 58  2  0  0  0
 55 60  1  0  0  0
 56 65  1  0  0  0
 56 66  1  0  0  0
 57 59  1  0  0  0
 58 59  1  0  0  0
 58 67  1  0  0  0
 60 61  2  0  0  0
 60 68  1  0  0  0
 61 69  1  0  0  0
M  CHG  1  52   1
M  END
> <s_m_entry_id>
682

> <s_m_entry_name>
000000524.1

> <s_m_Source_Path>
/Users/zaksoul/Documents/3r_UNI/2nd_SEMESTER/BSC/FRAG_RECON/RESULTS/2

> <s_m_Source_File>
000000524.mol2

> <i_m_Source_File_Index>
1

$$$$
No_0_546
                    3D
 Schrodinger Suite 2022-4.
 66 72  0  0  1  0            999 V2000
   -4.9780    3.6310  -21.9720 C   0  0  0  0  0  0
   -5.2420    3.8280  -23.3070 C   0  0  0  0  0  0
   -3.7430    3.3660  -21.6310 C   0  0  0  0  0  0
   -2.8480    3.4940  -23.7950 C   0  0  0  0  0  0
   -2.6910    3.2410  -22.3760 C   0  0  0  0  0  0
   -4.1930    3.7710  -24.3160 C   0  0  0  0  0  0
   -3.4360    3.7950  -26.5140 C   0  0  0  0  0  0
    6.2820    2.9500  -21.2430 C   0  0  0  0  0  0
    6.1470    3.1050  -23.7910 C   0  0  0  0  0  0
   -4.4420    3.9060  -25.6510 C   0  0  0  0  0  0
    2.3670    3.6870  -23.8100 C   0  0  0  0  0  0
    1.5560    4.8020  -23.5060 C   0  0  0  0  0  0
    3.3640    5.9780  -22.8190 C   0  0  0  0  0  0
    3.7690    3.8640  -23.4940 C   0  0  0  0  0  0
    1.8110    2.5780  -24.4760 C   0  0  0  0  0  0
   -0.3090    3.4100  -24.3640 C   0  0  0  0  0  0
    0.2280    4.6230  -23.7590 C   0  0  0  0  0  0
   -1.7610    3.4310  -24.7200 C   0  0  0  0  0  0
    4.3520    1.3600  -23.2130 C   0  0  0  0  0  0
    5.2810    0.9900  -22.0670 C   0  0  2  0  0  0
    6.8880    2.5190  -22.5960 C   0  0  2  0  0  0
    5.2710    1.9860  -20.8960 C   0  0  0  0  0  0
   -2.0840    3.5990  -26.1470 C   0  0  0  0  0  0
   -1.3510    2.8130  -21.7780 C   0  0  0  0  0  0
   -0.3240    2.4540  -21.2720 C   0  0  0  0  0  0
   -0.6040    5.6740  -23.4110 F   0  0  0  0  0  0
   -3.5360    3.1150  -20.2500 F   0  0  0  0  0  0
    2.0430    5.9540  -22.9690 N   0  0  0  0  0  0
    4.2520    5.0090  -23.0430 N   0  0  0  0  0  0
    0.5050    2.5020  -24.7830 N   0  0  0  0  0  0
    4.6780    2.8090  -23.6750 N   0  0  0  0  0  0
    6.6890    1.0470  -22.5480 N   0  0  1  0  0  0
   -3.6070    3.8180  -27.9030 O   0  0  0  0  0  0
   -5.7797    3.6982  -21.2455 H   0  0  0  0  0  0
   -6.2543    4.0339  -23.6354 H   0  0  0  0  0  0
    5.8199    3.9427  -21.3479 H   0  0  0  0  0  0
    7.0674    2.9500  -20.4728 H   0  0  0  0  0  0
    6.5376    2.6609  -24.7185 H   0  0  0  0  0  0
    6.2994    4.1940  -23.8193 H   0  0  0  0  0  0
   -5.4503    4.1018  -25.9975 H   0  0  0  0  0  0
    2.4432    1.7451  -24.7620 H   0  0  0  0  0  0
    3.3084    1.3105  -22.8688 H   0  0  0  0  0  0
    4.5084    0.6639  -24.0503 H   0  0  0  0  0  0
    5.0478   -0.0217  -21.7035 H   0  0  0  0  0  0
    7.9587    2.7672  -22.6404 H   0  0  0  0  0  0
    4.2920    2.4856  -20.8506 H   0  0  0  0  0  0
    5.5657    1.4662  -19.9725 H   0  0  0  0  0  0
   -1.3137    3.5759  -26.9093 H   0  0  0  0  0  0
    0.5804    2.1379  -20.8278 H   0  0  0  0  0  0
    7.3316    0.5402  -21.8433 H   0  0  0  0  0  0
   -2.7629    3.7240  -28.3285 H   0  0  0  0  0  0
    3.3910    8.3020  -22.7660 O   0  0  0  0  0  0
    7.0150    8.0630  -21.5050 N   0  0  1  0  0  0
    5.7240    8.6900  -21.0800 C   0  0  0  0  0  0
    6.4280    6.7460  -21.9050 C   0  0  0  0  0  0
    7.7660    8.7810  -22.5900 C   0  0  0  0  0  0
    5.0880    7.3070  -21.3690 C   0  0  0  0  0  0
    3.9290    7.2970  -22.3490 C   0  0  0  0  0  0
    5.4111    9.3619  -21.8928 H   0  0  0  0  0  0
    5.7670    8.8011  -19.9865 H   0  0  0  0  0  0
    6.7800    6.0041  -21.1731 H   0  0  0  0  0  0
    6.3590    6.7460  -23.0028 H   0  0  0  0  0  0
    8.6917    8.2332  -22.8199 H   0  0  0  0  0  0
    7.1408    8.8390  -23.4932 H   0  0  0  0  0  0
    8.0161    9.7974  -22.2519 H   0  0  0  0  0  0
    4.8061    6.8073  -20.4305 H   0  0  0  0  0  0
  1  2  2  0  0  0
  1  3  1  0  0  0
  1 34  1  0  0  0
  2  6  1  0  0  0
  2 35  1  0  0  0
  3  5  2  0  0  0
  3 27  1  0  0  0
  4  5  1  0  0  0
  4  6  2  0  0  0
  4 18  1  0  0  0
  5 24  1  0  0  0
  6 10  1  0  0  0
  7 10  2  0  0  0
  7 23  1  0  0  0
  7 33  1  0  0  0
  8 21  1  0  0  0
  8 22  1  0  0  0
  8 36  1  0  0  0
  8 37  1  0  0  0
  9 21  1  0  0  0
  9 31  1  0  0  0
  9 38  1  0  0  0
  9 39  1  0  0  0
 10 40  1  0  0  0
 11 12  1  0  0  0
 11 14  2  0  0  0
 11 15  1  0  0  0
 12 17  1  0  0  0
 12 28  2  0  0  0
 13 28  1  0  0  0
 13 29  2  0  0  0
 13 58  1  0  0  0
 14 29  1  0  0  0
 14 31  1  0  0  0
 15 30  2  0  0  0
 15 41  1  0  0  0
 16 17  2  0  0  0
 16 18  1  0  0  0
 16 30  1  0  0  0
 17 26  1  0  0  0
 18 23  2  0  0  0
 19 20  1  0  0  0
 19 31  1  0  0  0
 19 42  1  0  0  0
 19 43  1  0  0  0
 20 22  1  0  0  0
 20 32  1  0  0  0
 20 44  1  0  0  0
 21 32  1  0  0  0
 21 45  1  0  0  0
 22 46  1  0  0  0
 22 47  1  0  0  0
 23 48  1  0  0  0
 24 25  3  0  0  0
 25 49  1  0  0  0
 32 50  1  0  0  0
 33 51  1  0  0  0
 52 58  2  0  0  0
 53 54  1  0  0  0
 53 55  1  0  0  0
 53 56  1  0  0  0
 54 57  1  0  0  0
 54 59  1  0  0  0
 54 60  1  0  0  0
 55 57  1  0  0  0
 55 61  1  0  0  0
 55 62  1  0  0  0
 56 63  1  0  0  0
 56 64  1  0  0  0
 56 65  1  0  0  0
 57 58  1  0  0  0
 57 66  1  0  0  0
M  END
> <s_m_entry_id>
683

> <s_m_entry_name>
000000525.1

> <s_m_Source_Path>
/Users/zaksoul/Documents/3r_UNI/2nd_SEMESTER/BSC/FRAG_RECON/RESULTS/2

> <s_m_Source_File>
000000525.mol2

> <i_m_Source_File_Index>
1

$$$$
No_0_547
                    3D
 Schrodinger Suite 2022-4.
 66 72  0  0  1  0            999 V2000
   -4.8930    3.7630  -22.0240 C   0  0  0  0  0  0
   -5.1500    3.9860  -23.3560 C   0  0  0  0  0  0
   -3.6650    3.4560  -21.6880 C   0  0  0  0  0  0
   -2.7670    3.5870  -23.8500 C   0  0  0  0  0  0
   -2.6180    3.3110  -22.4340 C   0  0  0  0  0  0
   -4.1030    3.9110  -24.3670 C   0  0  0  0  0  0
   -3.3450    3.9440  -26.5640 C   0  0  0  0  0  0
    6.3420    2.7370  -21.3080 C   0  0  0  0  0  0
    6.2120    2.9310  -23.8550 C   0  0  0  0  0  0
   -4.3480    4.0730  -25.7000 C   0  0  0  0  0  0
    2.4510    3.6260  -23.8640 C   0  0  0  0  0  0
    1.6740    4.7600  -23.5450 C   0  0  0  0  0  0
    3.5160    5.8720  -22.8420 C   0  0  0  0  0  0
    3.8580    3.7560  -23.5470 C   0  0  0  0  0  0
    1.8630    2.5430  -24.5460 C   0  0  0  0  0  0
   -0.2310    3.4360  -24.4210 C   0  0  0  0  0  0
    0.3420    4.6240  -23.8000 C   0  0  0  0  0  0
   -1.6830    3.5050  -24.7760 C   0  0  0  0  0  0
    4.3660    1.2320  -23.3000 C   0  0  0  0  0  0
    5.2840    0.8190  -22.1600 C   0  0  2  0  0  0
    6.9360    2.3070  -22.6670 C   0  0  2  0  0  0
    5.3030    1.7990  -20.9750 C   0  0  0  0  0  0
   -2.0000    3.7030  -26.2010 C   0  0  0  0  0  0
   -1.2910    2.8350  -21.8430 C   0  0  0  0  0  0
   -0.2750    2.4380  -21.3430 C   0  0  0  0  0  0
   -0.4590    5.6940  -23.4360 F   0  0  0  0  0  0
   -3.4660    3.1800  -20.3100 F   0  0  0  0  0  0
    2.1950    5.8890  -22.9920 N   0  0  0  0  0  0
    4.3750    4.8800  -23.0800 N   0  0  0  0  0  0
    0.5550    2.5100  -24.8530 N   0  0  0  0  0  0
    4.7350    2.6770  -23.7430 N   0  0  0  0  0  0
    6.6930    0.8410  -22.6410 N   0  0  1  0  0  0
   -3.5160    3.9910  -27.9530 O   0  0  0  0  0  0
   -5.6927    3.8434  -21.2966 H   0  0  0  0  0  0
   -6.1556    4.2269  -23.6812 H   0  0  0  0  0  0
    5.9100    3.7444  -21.3999 H   0  0  0  0  0  0
    7.1275    2.7027  -20.5387 H   0  0  0  0  0  0
    6.5904    2.4890  -24.7885 H   0  0  0  0  0  0
    6.3976    4.0152  -23.8681 H   0  0  0  0  0  0
   -5.3501    4.3029  -26.0434 H   0  0  0  0  0  0
    2.4699    1.6953  -24.8429 H   0  0  0  0  0  0
    3.3212    1.2098  -22.9568 H   0  0  0  0  0  0
    4.5022    0.5440  -24.1474 H   0  0  0  0  0  0
    5.0196   -0.1901  -21.8109 H   0  0  0  0  0  0
    8.0138    2.5230  -22.7094 H   0  0  0  0  0  0
    4.3393    2.3268  -20.9225 H   0  0  0  0  0  0
    5.5824    1.2574  -20.0592 H   0  0  0  0  0  0
   -1.2304    3.6679  -26.9636 H   0  0  0  0  0  0
    0.6192    2.0889  -20.9029 H   0  0  0  0  0  0
    7.3194    0.3055  -21.9430 H   0  0  0  0  0  0
   -2.6747    3.8782  -28.3796 H   0  0  0  0  0  0
    3.4180    8.1550  -22.4140 O   0  0  0  0  0  0
    7.2620    8.1410  -22.3720 N   0  0  1  0  0  0
    6.1370    8.5590  -21.4770 C   0  0  0  0  0  0
    6.6590    6.8360  -22.7870 C   0  0  0  0  0  0
    7.5850    9.0800  -23.4990 C   0  0  0  0  0  0
    5.5270    7.1680  -21.7840 C   0  0  0  0  0  0
    4.1200    7.1670  -22.3540 C   0  0  0  0  0  0
    5.5428    9.2982  -22.0342 H   0  0  0  0  0  0
    6.5172    8.5210  -20.4455 H   0  0  0  0  0  0
    7.2693    6.0426  -22.3308 H   0  0  0  0  0  0
    6.2459    6.9810  -23.7961 H   0  0  0  0  0  0
    8.4223    8.6749  -24.0862 H   0  0  0  0  0  0
    6.7037    9.1940  -24.1473 H   0  0  0  0  0  0
    7.8677   10.0610  -23.0894 H   0  0  0  0  0  0
    5.5880    6.5143  -20.9014 H   0  0  0  0  0  0
  1  2  2  0  0  0
  1  3  1  0  0  0
  1 34  1  0  0  0
  2  6  1  0  0  0
  2 35  1  0  0  0
  3  5  2  0  0  0
  3 27  1  0  0  0
  4  5  1  0  0  0
  4  6  2  0  0  0
  4 18  1  0  0  0
  5 24  1  0  0  0
  6 10  1  0  0  0
  7 10  2  0  0  0
  7 23  1  0  0  0
  7 33  1  0  0  0
  8 21  1  0  0  0
  8 22  1  0  0  0
  8 36  1  0  0  0
  8 37  1  0  0  0
  9 21  1  0  0  0
  9 31  1  0  0  0
  9 38  1  0  0  0
  9 39  1  0  0  0
 10 40  1  0  0  0
 11 12  1  0  0  0
 11 14  2  0  0  0
 11 15  1  0  0  0
 12 17  1  0  0  0
 12 28  2  0  0  0
 13 28  1  0  0  0
 13 29  2  0  0  0
 13 58  1  0  0  0
 14 29  1  0  0  0
 14 31  1  0  0  0
 15 30  2  0  0  0
 15 41  1  0  0  0
 16 17  2  0  0  0
 16 18  1  0  0  0
 16 30  1  0  0  0
 17 26  1  0  0  0
 18 23  2  0  0  0
 19 20  1  0  0  0
 19 31  1  0  0  0
 19 42  1  0  0  0
 19 43  1  0  0  0
 20 22  1  0  0  0
 20 32  1  0  0  0
 20 44  1  0  0  0
 21 32  1  0  0  0
 21 45  1  0  0  0
 22 46  1  0  0  0
 22 47  1  0  0  0
 23 48  1  0  0  0
 24 25  3  0  0  0
 25 49  1  0  0  0
 32 50  1  0  0  0
 33 51  1  0  0  0
 52 58  2  0  0  0
 53 54  1  0  0  0
 53 55  1  0  0  0
 53 56  1  0  0  0
 54 57  1  0  0  0
 54 59  1  0  0  0
 54 60  1  0  0  0
 55 57  1  0  0  0
 55 61  1  0  0  0
 55 62  1  0  0  0
 56 63  1  0  0  0
 56 64  1  0  0  0
 56 65  1  0  0  0
 57 58  1  0  0  0
 57 66  1  0  0  0
M  END
> <s_m_entry_id>
684

> <s_m_entry_name>
000000526.1

> <s_m_Source_Path>
/Users/zaksoul/Documents/3r_UNI/2nd_SEMESTER/BSC/FRAG_RECON/RESULTS/2

> <s_m_Source_File>
000000526.mol2

> <i_m_Source_File_Index>
1

$$$$
No_0_548
                    3D
 Schrodinger Suite 2022-4.
 68 74  0  0  1  0            999 V2000
   -4.9820    3.6950  -21.9820 C   0  0  0  0  0  0
   -5.2480    3.8720  -23.3190 C   0  0  0  0  0  0
   -3.7510    3.4100  -21.6420 C   0  0  0  0  0  0
   -2.8650    3.4780  -23.8120 C   0  0  0  0  0  0
   -2.7060    3.2500  -22.3890 C   0  0  0  0  0  0
   -4.2060    3.7730  -24.3320 C   0  0  0  0  0  0
   -3.4590    3.7400  -26.5330 C   0  0  0  0  0  0
    6.2650    2.7960  -21.2910 C   0  0  0  0  0  0
    6.1200    2.9050  -23.8420 C   0  0  0  0  0  0
   -4.4580    3.8880  -25.6690 C   0  0  0  0  0  0
    2.3540    3.5640  -23.8540 C   0  0  0  0  0  0
    1.5670    4.7010  -23.5680 C   0  0  0  0  0  0
    3.4020    5.8530  -22.9120 C   0  0  0  0  0  0
    3.7600    3.7180  -23.5480 C   0  0  0  0  0  0
    1.7720    2.4540  -24.4970 C   0  0  0  0  0  0
   -0.3300    3.3320  -24.3910 C   0  0  0  0  0  0
    0.2350    4.5450  -23.8120 C   0  0  0  0  0  0
   -1.7830    3.3760  -24.7400 C   0  0  0  0  0  0
    4.2930    1.2080  -23.2220 C   0  0  0  0  0  0
    5.2200    0.8420  -22.0730 C   0  0  2  0  0  0
    6.8560    2.3270  -22.6380 C   0  0  2  0  0  0
    5.2360    1.8600  -20.9210 C   0  0  0  0  0  0
   -2.1100    3.5240  -26.1690 C   0  0  0  0  0  0
   -1.3720    2.8060  -21.7890 C   0  0  0  0  0  0
   -0.3500    2.4350  -21.2810 C   0  0  0  0  0  0
   -0.5740    5.6190  -23.4800 F   0  0  0  0  0  0
   -3.5420    3.1820  -20.2570 F   0  0  0  0  0  0
    2.0800    5.8530  -23.0550 N   0  0  0  0  0  0
    4.2690    4.8610  -23.1210 N   0  0  0  0  0  0
    0.4620    2.3990  -24.7960 N   0  0  0  0  0  0
    4.6460    2.6410  -23.7130 N   0  0  0  0  0  0
    6.6260    0.8600  -22.5620 N   0  0  1  0  0  0
   -3.6360    3.7400  -27.9220 O   0  0  0  0  0  0
   -5.7788    3.7923  -21.2535 H   0  0  0  0  0  0
   -6.2575    4.0918  -23.6471 H   0  0  0  0  0  0
    5.8231    3.7959  -21.4131 H   0  0  0  0  0  0
    7.0543    2.7940  -20.5249 H   0  0  0  0  0  0
    6.4984    2.4358  -24.7622 H   0  0  0  0  0  0
    6.2956    3.9898  -23.8914 H   0  0  0  0  0  0
   -5.4639    4.0978  -26.0143 H   0  0  0  0  0  0
    2.3854    1.6027  -24.7691 H   0  0  0  0  0  0
    3.2504    1.1878  -22.8718 H   0  0  0  0  0  0
    4.4313    0.4933  -24.0467 H   0  0  0  0  0  0
    4.9678   -0.1577  -21.6897 H   0  0  0  0  0  0
    7.9313    2.5522  -22.6925 H   0  0  0  0  0  0
    4.2675    2.3801  -20.8816 H   0  0  0  0  0  0
    5.5247    1.3513  -19.9894 H   0  0  0  0  0  0
   -1.3445    3.4698  -26.9345 H   0  0  0  0  0  0
    0.5500    2.1090  -20.8350 H   0  0  0  0  0  0
    7.2619    0.3545  -21.8503 H   0  0  0  0  0  0
   -2.7959    3.6213  -28.3494 H   0  0  0  0  0  0
    5.7390    9.5920  -22.9340 O   0  0  0  0  0  0
    3.2490    8.1060  -22.2820 O   0  0  0  0  0  0
    7.1820    8.9740  -20.2760 N   0  3  0  0  0  0
    7.5800    8.5420  -21.6520 C   0  0  0  0  0  0
    5.7060    9.0180  -20.5190 C   0  0  0  0  0  0
    5.5030    7.2030  -22.3290 C   0  0  0  0  0  0
    6.0650    8.5890  -21.9610 C   0  0  0  0  0  0
    3.9970    7.1690  -22.4700 C   0  0  0  0  0  0
    4.8024    9.5860  -23.0929 H   0  0  0  0  0  0
    7.5130    9.9139  -20.1240 H   0  0  0  0  0  0
    7.3821    8.2258  -19.6308 H   0  0  0  0  0  0
    7.8571    7.4796  -21.5840 H   0  0  0  0  0  0
    8.0300    9.4180  -22.1420 H   0  0  0  0  0  0
    5.4239   10.0802  -20.5650 H   0  0  0  0  0  0
    5.2770    8.1349  -20.0229 H   0  0  0  0  0  0
    5.8149    6.4702  -21.5702 H   0  0  0  0  0  0
    5.9654    6.8587  -23.2658 H   0  0  0  0  0  0
  1  2  2  0  0  0
  1  3  1  0  0  0
  1 34  1  0  0  0
  2  6  1  0  0  0
  2 35  1  0  0  0
  3  5  2  0  0  0
  3 27  1  0  0  0
  4  5  1  0  0  0
  4  6  2  0  0  0
  4 18  1  0  0  0
  5 24  1  0  0  0
  6 10  1  0  0  0
  7 10  2  0  0  0
  7 23  1  0  0  0
  7 33  1  0  0  0
  8 21  1  0  0  0
  8 22  1  0  0  0
  8 36  1  0  0  0
  8 37  1  0  0  0
  9 21  1  0  0  0
  9 31  1  0  0  0
  9 38  1  0  0  0
  9 39  1  0  0  0
 10 40  1  0  0  0
 11 12  1  0  0  0
 11 14  2  0  0  0
 11 15  1  0  0  0
 12 17  1  0  0  0
 12 28  2  0  0  0
 13 28  1  0  0  0
 13 29  2  0  0  0
 13 59  1  0  0  0
 14 29  1  0  0  0
 14 31  1  0  0  0
 15 30  2  0  0  0
 15 41  1  0  0  0
 16 17  2  0  0  0
 16 18  1  0  0  0
 16 30  1  0  0  0
 17 26  1  0  0  0
 18 23  2  0  0  0
 19 20  1  0  0  0
 19 31  1  0  0  0
 19 42  1  0  0  0
 19 43  1  0  0  0
 20 22  1  0  0  0
 20 32  1  0  0  0
 20 44  1  0  0  0
 21 32  1  0  0  0
 21 45  1  0  0  0
 22 46  1  0  0  0
 22 47  1  0  0  0
 23 48  1  0  0  0
 24 25  3  0  0  0
 25 49  1  0  0  0
 32 50  1  0  0  0
 33 51  1  0  0  0
 52 58  1  0  0  0
 52 60  1  0  0  0
 53 59  2  0  0  0
 54 55  1  0  0  0
 54 56  1  0  0  0
 54 61  1  0  0  0
 54 62  1  0  0  0
 55 58  1  0  0  0
 55 63  1  0  0  0
 55 64  1  0  0  0
 56 58  1  0  0  0
 56 65  1  0  0  0
 56 66  1  0  0  0
 57 58  1  0  0  0
 57 59  1  0  0  0
 57 67  1  0  0  0
 57 68  1  0  0  0
M  CHG  1  54   1
M  END
> <s_m_entry_id>
685

> <s_m_entry_name>
000000527.1

> <s_m_Source_Path>
/Users/zaksoul/Documents/3r_UNI/2nd_SEMESTER/BSC/FRAG_RECON/RESULTS/2

> <s_m_Source_File>
000000527.mol2

> <i_m_Source_File_Index>
1

$$$$
No_0_549
                    3D
 Schrodinger Suite 2022-4.
 68 74  0  0  1  0            999 V2000
   -4.7670    3.6870  -21.6790 C   0  0  0  0  0  0
   -5.0610    3.9400  -22.9970 C   0  0  0  0  0  0
   -3.5290    3.3830  -21.3820 C   0  0  0  0  0  0
   -2.6890    3.5760  -23.5630 C   0  0  0  0  0  0
   -2.5000    3.2660  -22.1590 C   0  0  0  0  0  0
   -4.0410    3.9000  -24.0370 C   0  0  0  0  0  0
   -3.3410    3.9950  -26.2510 C   0  0  0  0  0  0
    6.4910    2.7490  -21.2820 C   0  0  0  0  0  0
    6.2920    3.0060  -23.8180 C   0  0  0  0  0  0
   -4.3220    4.0930  -25.3580 C   0  0  0  0  0  0
    2.5270    3.6640  -23.7120 C   0  0  0  0  0  0
    1.7480    4.7830  -23.3440 C   0  0  0  0  0  0
    3.5980    5.8950  -22.6620 C   0  0  0  0  0  0
    3.9400    3.8000  -23.4280 C   0  0  0  0  0  0
    1.9300    2.5930  -24.4050 C   0  0  0  0  0  0
   -0.1680    3.4630  -24.2040 C   0  0  0  0  0  0
    0.4110    4.6410  -23.5680 C   0  0  0  0  0  0
   -1.6290    3.5270  -24.5190 C   0  0  0  0  0  0
    4.4760    1.2760  -23.2580 C   0  0  0  0  0  0
    5.4270    0.8440  -22.1530 C   0  0  2  0  0  0
    7.0520    2.3590  -22.6660 C   0  0  2  0  0  0
    5.4690    1.7940  -20.9450 C   0  0  0  0  0  0
   -1.9850    3.7570  -25.9290 C   0  0  0  0  0  0
   -1.1550    2.7880  -21.6140 C   0  0  0  0  0  0
   -0.1220    2.3890  -21.1510 C   0  0  0  0  0  0
   -0.3900    5.6940  -23.1570 F   0  0  0  0  0  0
   -3.2910    3.0750  -20.0170 F   0  0  0  0  0  0
    2.2730    5.9030  -22.7770 N   0  0  0  0  0  0
    4.4590    4.9170  -22.9470 N   0  0  0  0  0  0
    0.6140    2.5550  -24.6790 N   0  0  0  0  0  0
    4.8210    2.7350  -23.6740 N   0  0  0  0  0  0
    6.8230    0.8900  -22.6690 N   0  0  1  0  0  0
   -3.5490    4.0750  -27.6340 O   0  0  0  0  0  0
   -5.5479    3.7422  -20.9292 H   0  0  0  0  0  0
   -6.0770    4.1787  -23.2899 H   0  0  0  0  0  0
    6.0483    3.7545  -21.3365 H   0  0  0  0  0  0
    7.2964    2.7036  -20.5341 H   0  0  0  0  0  0
    6.6493    2.5902  -24.7717 H   0  0  0  0  0  0
    6.4676    4.0919  -23.8089 H   0  0  0  0  0  0
   -5.3348    4.3219  -25.6692 H   0  0  0  0  0  0
    2.5364    1.7586  -24.7383 H   0  0  0  0  0  0
    3.4411    1.2346  -22.8875 H   0  0  0  0  0  0
    4.5960    0.6103  -24.1254 H   0  0  0  0  0  0
    5.1818   -0.1760  -21.8221 H   0  0  0  0  0  0
    8.1264    2.5860  -22.7306 H   0  0  0  0  0  0
    4.5022    2.3107  -20.8542 H   0  0  0  0  0  0
    5.7765    1.2323  -20.0506 H   0  0  0  0  0  0
   -1.2363    3.7480  -26.7128 H   0  0  0  0  0  0
    0.7865    2.0368  -20.7438 H   0  0  0  0  0  0
    7.4731    0.3436  -22.0018 H   0  0  0  0  0  0
   -2.7183    3.9801  -28.0850 H   0  0  0  0  0  0
    5.6250    9.8100  -22.6050 O   0  0  0  0  0  0
    3.4710    8.0020  -21.6420 O   0  0  0  0  0  0
    7.7210    8.9510  -20.5080 N   0  3  0  0  0  0
    7.7870    8.7710  -21.9920 C   0  0  0  0  0  0
    6.2320    8.8820  -20.3840 C   0  0  0  0  0  0
    5.6920    7.3460  -22.3730 C   0  0  0  0  0  0
    6.2430    8.7110  -21.9200 C   0  0  0  0  0  0
    4.2030    7.1830  -22.1580 C   0  0  0  0  0  0
    4.6805    9.7350  -22.5360 H   0  0  0  0  0  0
    8.0220    9.8861  -20.2820 H   0  0  0  0  0  0
    8.1211    8.1388  -20.0649 H   0  0  0  0  0  0
    8.1371    7.7438  -22.1720 H   0  0  0  0  0  0
    8.0470    9.7509  -22.4189 H   0  0  0  0  0  0
    5.8823    9.9052  -20.1822 H   0  0  0  0  0  0
    5.9940    7.8970  -19.9560 H   0  0  0  0  0  0
    6.2278    6.5433  -21.8452 H   0  0  0  0  0  0
    5.9260    7.1930  -23.4369 H   0  0  0  0  0  0
  1  2  2  0  0  0
  1  3  1  0  0  0
  1 34  1  0  0  0
  2  6  1  0  0  0
  2 35  1  0  0  0
  3  5  2  0  0  0
  3 27  1  0  0  0
  4  5  1  0  0  0
  4  6  2  0  0  0
  4 18  1  0  0  0
  5 24  1  0  0  0
  6 10  1  0  0  0
  7 10  2  0  0  0
  7 23  1  0  0  0
  7 33  1  0  0  0
  8 21  1  0  0  0
  8 22  1  0  0  0
  8 36  1  0  0  0
  8 37  1  0  0  0
  9 21  1  0  0  0
  9 31  1  0  0  0
  9 38  1  0  0  0
  9 39  1  0  0  0
 10 40  1  0  0  0
 11 12  1  0  0  0
 11 14  2  0  0  0
 11 15  1  0  0  0
 12 17  1  0  0  0
 12 28  2  0  0  0
 13 28  1  0  0  0
 13 29  2  0  0  0
 13 59  1  0  0  0
 14 29  1  0  0  0
 14 31  1  0  0  0
 15 30  2  0  0  0
 15 41  1  0  0  0
 16 17  2  0  0  0
 16 18  1  0  0  0
 16 30  1  0  0  0
 17 26  1  0  0  0
 18 23  2  0  0  0
 19 20  1  0  0  0
 19 31  1  0  0  0
 19 42  1  0  0  0
 19 43  1  0  0  0
 20 22  1  0  0  0
 20 32  1  0  0  0
 20 44  1  0  0  0
 21 32  1  0  0  0
 21 45  1  0  0  0
 22 46  1  0  0  0
 22 47  1  0  0  0
 23 48  1  0  0  0
 24 25  3  0  0  0
 25 49  1  0  0  0
 32 50  1  0  0  0
 33 51  1  0  0  0
 52 58  1  0  0  0
 52 60  1  0  0  0
 53 59  2  0  0  0
 54 55  1  0  0  0
 54 56  1  0  0  0
 54 61  1  0  0  0
 54 62  1  0  0  0
 55 58  1  0  0  0
 55 63  1  0  0  0
 55 64  1  0  0  0
 56 58  1  0  0  0
 56 65  1  0  0  0
 56 66  1  0  0  0
 57 58  1  0  0  0
 57 59  1  0  0  0
 57 67  1  0  0  0
 57 68  1  0  0  0
M  CHG  1  54   1
M  END
> <s_m_entry_id>
686

> <s_m_entry_name>
000000528.1

> <s_m_Source_Path>
/Users/zaksoul/Documents/3r_UNI/2nd_SEMESTER/BSC/FRAG_RECON/RESULTS/2

> <s_m_Source_File>
000000528.mol2

> <i_m_Source_File_Index>
1

$$$$
No_0_550
                    3D
 Schrodinger Suite 2022-4.
 68 74  0  0  1  0            999 V2000
   -5.0580    3.5410  -21.8490 C   0  0  0  0  0  0
   -5.3210    3.7960  -23.1750 C   0  0  0  0  0  0
   -3.8290    3.2270  -21.5250 C   0  0  0  0  0  0
   -2.9400    3.4100  -23.6880 C   0  0  0  0  0  0
   -2.7850    3.1000  -22.2790 C   0  0  0  0  0  0
   -4.2780    3.7450  -24.1910 C   0  0  0  0  0  0
   -3.5290    3.8310  -26.3900 C   0  0  0  0  0  0
    6.1800    2.5040  -21.2040 C   0  0  0  0  0  0
    6.0390    2.7590  -23.7450 C   0  0  0  0  0  0
   -4.5280    3.9380  -25.5190 C   0  0  0  0  0  0
    2.2780    3.4510  -23.7220 C   0  0  0  0  0  0
    1.5020    4.5770  -23.3730 C   0  0  0  0  0  0
    3.3460    5.6730  -22.6520 C   0  0  0  0  0  0
    3.6860    3.5750  -23.4080 C   0  0  0  0  0  0
    1.6880    2.3850  -24.4270 C   0  0  0  0  0  0
   -0.4070    3.2730  -24.2730 C   0  0  0  0  0  0
    0.1680    4.4460  -23.6250 C   0  0  0  0  0  0
   -1.8590    3.3500  -24.6200 C   0  0  0  0  0  0
    4.1960    1.0460  -23.2230 C   0  0  0  0  0  0
    5.1190    0.6070  -22.0970 C   0  0  2  0  0  0
    6.7680    2.1060  -22.5760 C   0  0  2  0  0  0
    5.1430    1.5580  -20.8890 C   0  0  0  0  0  0
   -2.1830    3.5820  -26.0380 C   0  0  0  0  0  0
   -1.4560    2.6110  -21.7050 C   0  0  0  0  0  0
   -0.4370    2.2030  -21.2190 C   0  0  0  0  0  0
   -0.6320    5.5070  -23.2340 F   0  0  0  0  0  0
   -3.6240    2.9180  -20.1550 F   0  0  0  0  0  0
    2.0240    5.6930  -22.7950 N   0  0  0  0  0  0
    4.2040    4.6870  -22.9160 N   0  0  0  0  0  0
    0.3780    2.3580  -24.7300 N   0  0  0  0  0  0
    4.5630    2.5010  -23.6330 N   0  0  0  0  0  0
    6.5260    0.6400  -22.5830 N   0  0  1  0  0  0
   -3.7060    3.9100  -27.7770 O   0  0  0  0  0  0
   -5.8551    3.6042  -21.1171 H   0  0  0  0  0  0
   -6.3283    4.0430  -23.4903 H   0  0  0  0  0  0
    5.7471    3.5130  -21.2706 H   0  0  0  0  0  0
    6.9685    2.4525  -20.4387 H   0  0  0  0  0  0
    6.4133    2.3393  -24.6904 H   0  0  0  0  0  0
    6.2238    3.8433  -23.7329 H   0  0  0  0  0  0
   -5.5317    4.1759  -25.8522 H   0  0  0  0  0  0
    2.2935    1.5445  -24.7463 H   0  0  0  0  0  0
    3.1527    1.0147  -22.8759 H   0  0  0  0  0  0
    4.3292    0.3780  -24.0867 H   0  0  0  0  0  0
    4.8567   -0.4100  -21.7701 H   0  0  0  0  0  0
    7.8454    2.3239  -22.6164 H   0  0  0  0  0  0
    4.1792    2.0838  -20.8204 H   0  0  0  0  0  0
    5.4257    0.9947  -19.9875 H   0  0  0  0  0  0
   -1.4166    3.5649  -26.8044 H   0  0  0  0  0  0
    0.4591    1.8440  -20.7910 H   0  0  0  0  0  0
    7.1558    0.0883  -21.9008 H   0  0  0  0  0  0
   -2.8662    3.8081  -28.2093 H   0  0  0  0  0  0
    5.0700    9.7310  -22.5570 O   0  0  0  0  0  0
    3.2860    7.6550  -21.4000 O   0  0  0  0  0  0
    7.6020    8.8670  -21.0180 N   0  3  0  0  0  0
    7.3780    8.8350  -22.4970 C   0  0  0  0  0  0
    6.1770    8.6540  -20.6140 C   0  0  0  0  0  0
    5.3510    7.2720  -22.6180 C   0  0  0  0  0  0
    5.8880    8.6310  -22.1330 C   0  0  0  0  0  0
    3.9520    6.9560  -22.1360 C   0  0  0  0  0  0
    4.1664    9.5651  -22.3151 H   0  0  0  0  0  0
    7.8779    9.7996  -20.7531 H   0  0  0  0  0  0
    8.1379    8.0551  -20.7540 H   0  0  0  0  0  0
    7.7532    7.8646  -22.8542 H   0  0  0  0  0  0
    7.4780    9.8700  -22.8560 H   0  0  0  0  0  0
    5.8072    9.6186  -20.2362 H   0  0  0  0  0  0
    6.0990    7.6155  -20.2598 H   0  0  0  0  0  0
    6.0358    6.4732  -22.2971 H   0  0  0  0  0  0
    5.3740    7.2420  -23.7174 H   0  0  0  0  0  0
  1  2  2  0  0  0
  1  3  1  0  0  0
  1 34  1  0  0  0
  2  6  1  0  0  0
  2 35  1  0  0  0
  3  5  2  0  0  0
  3 27  1  0  0  0
  4  5  1  0  0  0
  4  6  2  0  0  0
  4 18  1  0  0  0
  5 24  1  0  0  0
  6 10  1  0  0  0
  7 10  2  0  0  0
  7 23  1  0  0  0
  7 33  1  0  0  0
  8 21  1  0  0  0
  8 22  1  0  0  0
  8 36  1  0  0  0
  8 37  1  0  0  0
  9 21  1  0  0  0
  9 31  1  0  0  0
  9 38  1  0  0  0
  9 39  1  0  0  0
 10 40  1  0  0  0
 11 12  1  0  0  0
 11 14  2  0  0  0
 11 15  1  0  0  0
 12 17  1  0  0  0
 12 28  2  0  0  0
 13 28  1  0  0  0
 13 29  2  0  0  0
 13 59  1  0  0  0
 14 29  1  0  0  0
 14 31  1  0  0  0
 15 30  2  0  0  0
 15 41  1  0  0  0
 16 17  2  0  0  0
 16 18  1  0  0  0
 16 30  1  0  0  0
 17 26  1  0  0  0
 18 23  2  0  0  0
 19 20  1  0  0  0
 19 31  1  0  0  0
 19 42  1  0  0  0
 19 43  1  0  0  0
 20 22  1  0  0  0
 20 32  1  0  0  0
 20 44  1  0  0  0
 21 32  1  0  0  0
 21 45  1  0  0  0
 22 46  1  0  0  0
 22 47  1  0  0  0
 23 48  1  0  0  0
 24 25  3  0  0  0
 25 49  1  0  0  0
 32 50  1  0  0  0
 33 51  1  0  0  0
 52 58  1  0  0  0
 52 60  1  0  0  0
 53 59  2  0  0  0
 54 55  1  0  0  0
 54 56  1  0  0  0
 54 61  1  0  0  0
 54 62  1  0  0  0
 55 58  1  0  0  0
 55 63  1  0  0  0
 55 64  1  0  0  0
 56 58  1  0  0  0
 56 65  1  0  0  0
 56 66  1  0  0  0
 57 58  1  0  0  0
 57 59  1  0  0  0
 57 67  1  0  0  0
 57 68  1  0  0  0
M  CHG  1  54   1
M  END
> <s_m_entry_id>
687

> <s_m_entry_name>
000000529.1

> <s_m_Source_Path>
/Users/zaksoul/Documents/3r_UNI/2nd_SEMESTER/BSC/FRAG_RECON/RESULTS/2

> <s_m_Source_File>
000000529.mol2

> <i_m_Source_File_Index>
1

$$$$
No_0_551
                    3D
 Schrodinger Suite 2022-4.
 68 74  0  0  1  0            999 V2000
   -4.9810    3.8630  -21.6890 C   0  0  0  0  0  0
   -5.3020    4.0130  -23.0170 C   0  0  0  0  0  0
   -3.7310    3.6110  -21.3940 C   0  0  0  0  0  0
   -2.9320    3.6640  -23.5980 C   0  0  0  0  0  0
   -2.7120    3.4610  -22.1790 C   0  0  0  0  0  0
   -4.2980    3.9210  -24.0690 C   0  0  0  0  0  0
   -3.6370    3.8700  -26.2970 C   0  0  0  0  0  0
    6.3020    3.2170  -21.4290 C   0  0  0  0  0  0
    6.0560    3.2830  -23.9730 C   0  0  0  0  0  0
   -4.6050    4.0100  -25.3960 C   0  0  0  0  0  0
    2.2780    3.8610  -23.8470 C   0  0  0  0  0  0
    1.4780    4.9850  -23.5470 C   0  0  0  0  0  0
    3.3110    6.1860  -22.9810 C   0  0  0  0  0  0
    3.6910    4.0500  -23.5990 C   0  0  0  0  0  0
    1.6960    2.7290  -24.4500 C   0  0  0  0  0  0
   -0.4190    3.5620  -24.2740 C   0  0  0  0  0  0
    0.1410    4.7960  -23.7360 C   0  0  0  0  0  0
   -1.8860    3.5700  -24.5660 C   0  0  0  0  0  0
    4.2920    1.5570  -23.2570 C   0  0  0  0  0  0
    5.2710    1.2290  -22.1400 C   0  0  2  0  0  0
    6.8500    2.7400  -22.7910 C   0  0  2  0  0  0
    5.3100    2.2650  -21.0050 C   0  0  0  0  0  0
   -2.2710    3.6880  -25.9840 C   0  0  0  0  0  0
   -1.3460    3.0550  -21.6250 C   0  0  0  0  0  0
   -0.2970    2.7150  -21.1530 C   0  0  0  0  0  0
   -0.6780    5.8580  -23.3880 F   0  0  0  0  0  0
   -3.4630    3.4080  -20.0150 F   0  0  0  0  0  0
    1.9850    6.1560  -23.0720 N   0  0  0  0  0  0
    4.1910    5.2100  -23.2090 N   0  0  0  0  0  0
    0.3770    2.6410  -24.6960 N   0  0  0  0  0  0
    4.5940    2.9900  -23.7830 N   0  0  0  0  0  0
    6.6560    1.2700  -22.6840 N   0  0  1  0  0  0
   -3.8690    3.8440  -27.6780 O   0  0  0  0  0  0
   -5.7502    3.9554  -20.9308 H   0  0  0  0  0  0
   -6.3281    4.2066  -23.3079 H   0  0  0  0  0  0
    5.8337    4.2052  -21.5481 H   0  0  0  0  0  0
    7.1203    3.2442  -20.6944 H   0  0  0  0  0  0
    6.4073    2.8076  -24.9007 H   0  0  0  0  0  0
    6.2043    4.3705  -24.0456 H   0  0  0  0  0  0
   -5.6282    4.1926  -25.7040 H   0  0  0  0  0  0
    2.3172    1.8870  -24.7330 H   0  0  0  0  0  0
    3.2647    1.5197  -22.8655 H   0  0  0  0  0  0
    4.4132    0.8328  -24.0761 H   0  0  0  0  0  0
    5.0561    0.2302  -21.7324 H   0  0  0  0  0  0
    7.9174    2.9862  -22.8909 H   0  0  0  0  0  0
    4.3328    2.7652  -20.9344 H   0  0  0  0  0  0
    5.6460    1.7777  -20.0778 H   0  0  0  0  0  0
   -1.5344    3.6388  -26.7778 H   0  0  0  0  0  0
    0.6261    2.4150  -20.7370 H   0  0  0  0  0  0
    7.3295    0.7889  -21.9902 H   0  0  0  0  0  0
   -3.0438    3.7361  -28.1361 H   0  0  0  0  0  0
    5.8860    9.7650  -22.9240 O   0  0  0  0  0  0
    3.2010    8.5110  -22.6990 O   0  0  0  0  0  0
    6.6280    9.4650  -19.9430 N   0  3  0  0  0  0
    7.2930    8.8220  -21.1180 C   0  0  0  0  0  0
    5.2560    9.5450  -20.5340 C   0  0  0  0  0  0
    5.3250    7.5020  -22.0920 C   0  0  0  0  0  0
    5.8980    8.8970  -21.7810 C   0  0  0  0  0  0
    3.8940    7.5210  -22.5820 C   0  0  0  0  0  0
    5.0138    9.7820  -23.3001 H   0  0  0  0  0  0
    6.9900   10.3999  -19.8380 H   0  0  0  0  0  0
    6.6130    8.8078  -19.1788 H   0  0  0  0  0  0
    7.4609    7.7684  -20.8501 H   0  0  0  0  0  0
    7.9138    9.5948  -21.5949 H   0  0  0  0  0  0
    5.0780   10.6020  -20.7810 H   0  0  0  0  0  0
    4.6540    8.7650  -20.0450 H   0  0  0  0  0  0
    5.3940    6.8708  -21.1937 H   0  0  0  0  0  0
    5.9601    7.0049  -22.8401 H   0  0  0  0  0  0
  1  2  2  0  0  0
  1  3  1  0  0  0
  1 34  1  0  0  0
  2  6  1  0  0  0
  2 35  1  0  0  0
  3  5  2  0  0  0
  3 27  1  0  0  0
  4  5  1  0  0  0
  4  6  2  0  0  0
  4 18  1  0  0  0
  5 24  1  0  0  0
  6 10  1  0  0  0
  7 10  2  0  0  0
  7 23  1  0  0  0
  7 33  1  0  0  0
  8 21  1  0  0  0
  8 22  1  0  0  0
  8 36  1  0  0  0
  8 37  1  0  0  0
  9 21  1  0  0  0
  9 31  1  0  0  0
  9 38  1  0  0  0
  9 39  1  0  0  0
 10 40  1  0  0  0
 11 12  1  0  0  0
 11 14  2  0  0  0
 11 15  1  0  0  0
 12 17  1  0  0  0
 12 28  2  0  0  0
 13 28  1  0  0  0
 13 29  2  0  0  0
 13 59  1  0  0  0
 14 29  1  0  0  0
 14 31  1  0  0  0
 15 30  2  0  0  0
 15 41  1  0  0  0
 16 17  2  0  0  0
 16 18  1  0  0  0
 16 30  1  0  0  0
 17 26  1  0  0  0
 18 23  2  0  0  0
 19 20  1  0  0  0
 19 31  1  0  0  0
 19 42  1  0  0  0
 19 43  1  0  0  0
 20 22  1  0  0  0
 20 32  1  0  0  0
 20 44  1  0  0  0
 21 32  1  0  0  0
 21 45  1  0  0  0
 22 46  1  0  0  0
 22 47  1  0  0  0
 23 48  1  0  0  0
 24 25  3  0  0  0
 25 49  1  0  0  0
 32 50  1  0  0  0
 33 51  1  0  0  0
 52 58  1  0  0  0
 52 60  1  0  0  0
 53 59  2  0  0  0
 54 55  1  0  0  0
 54 56  1  0  0  0
 54 61  1  0  0  0
 54 62  1  0  0  0
 55 58  1  0  0  0
 55 63  1  0  0  0
 55 64  1  0  0  0
 56 58  1  0  0  0
 56 65  1  0  0  0
 56 66  1  0  0  0
 57 58  1  0  0  0
 57 59  1  0  0  0
 57 67  1  0  0  0
 57 68  1  0  0  0
M  CHG  1  54   1
M  END
> <s_m_entry_id>
688

> <s_m_entry_name>
000000530.1

> <s_m_Source_Path>
/Users/zaksoul/Documents/3r_UNI/2nd_SEMESTER/BSC/FRAG_RECON/RESULTS/2

> <s_m_Source_File>
000000530.mol2

> <i_m_Source_File_Index>
1

$$$$
No_0_552
                    3D
 Schrodinger Suite 2022-4.
 68 74  0  0  1  0            999 V2000
   -5.0080    3.7740  -21.6220 C   0  0  0  0  0  0
   -5.3070    4.0070  -22.9430 C   0  0  0  0  0  0
   -3.7690    3.4730  -21.3260 C   0  0  0  0  0  0
   -2.9390    3.6280  -23.5140 C   0  0  0  0  0  0
   -2.7440    3.3400  -22.1060 C   0  0  0  0  0  0
   -4.2920    3.9470  -23.9870 C   0  0  0  0  0  0
   -3.6040    4.0030  -26.2060 C   0  0  0  0  0  0
    6.2500    2.8160  -21.2640 C   0  0  0  0  0  0
    6.0400    3.0300  -23.8040 C   0  0  0  0  0  0
   -4.5800    4.1180  -25.3100 C   0  0  0  0  0  0
    2.2760    3.7000  -23.6900 C   0  0  0  0  0  0
    1.5020    4.8260  -23.3370 C   0  0  0  0  0  0
    3.3580    5.9450  -22.6830 C   0  0  0  0  0  0
    3.6910    3.8370  -23.4160 C   0  0  0  0  0  0
    1.6740    2.6190  -24.3620 C   0  0  0  0  0  0
   -0.4210    3.4980  -24.1650 C   0  0  0  0  0  0
    0.1630    4.6840  -23.5520 C   0  0  0  0  0  0
   -1.8830    3.5600  -24.4740 C   0  0  0  0  0  0
    4.2220    1.3150  -23.2070 C   0  0  0  0  0  0
    5.1780    0.8980  -22.0990 C   0  0  2  0  0  0
    6.8040    2.4010  -22.6450 C   0  0  2  0  0  0
    5.2280    1.8680  -20.9060 C   0  0  0  0  0  0
   -2.2460    3.7680  -25.8870 C   0  0  0  0  0  0
   -1.3970    2.8680  -21.5600 C   0  0  0  0  0  0
   -0.3630    2.4740  -21.0960 C   0  0  0  0  0  0
   -0.6330    5.7460  -23.1550 F   0  0  0  0  0  0
   -3.5250    3.1870  -19.9580 F   0  0  0  0  0  0
    2.0320    5.9550  -22.7910 N   0  0  0  0  0  0
    4.2150    4.9600  -22.9550 N   0  0  0  0  0  0
    0.3560    2.5800  -24.6290 N   0  0  0  0  0  0
    4.5680    2.7660  -23.6480 N   0  0  0  0  0  0
    6.5710    0.9330  -22.6230 N   0  0  1  0  0  0
   -3.8180    4.0600  -27.5890 O   0  0  0  0  0  0
   -5.7848    3.8443  -20.8692 H   0  0  0  0  0  0
   -6.3240    4.2427  -23.2349 H   0  0  0  0  0  0
    5.8090    3.8212  -21.3346 H   0  0  0  0  0  0
    7.0595    2.7807  -20.5201 H   0  0  0  0  0  0
    6.3912    2.5980  -24.7527 H   0  0  0  0  0  0
    6.2176    4.1155  -23.8131 H   0  0  0  0  0  0
   -5.5935    4.3450  -25.6204 H   0  0  0  0  0  0
    2.2763    1.7777  -24.6853 H   0  0  0  0  0  0
    3.1889    1.2827  -22.8307 H   0  0  0  0  0  0
    4.3361    0.6336  -24.0630 H   0  0  0  0  0  0
    4.9317   -0.1156  -21.7497 H   0  0  0  0  0  0
    7.8785    2.6252  -22.7177 H   0  0  0  0  0  0
    4.2634    2.3897  -20.8202 H   0  0  0  0  0  0
    5.5391    1.3206  -20.0040 H   0  0  0  0  0  0
   -1.5011    3.7429  -26.6741 H   0  0  0  0  0  0
    0.5465    2.1268  -20.6868 H   0  0  0  0  0  0
    7.2223    0.3961  -21.9492 H   0  0  0  0  0  0
   -2.9896    3.9561  -28.0423 H   0  0  0  0  0  0
    3.2300    8.0600  -21.7000 O   0  0  0  0  0  0
    6.8650   10.1020  -23.2590 O   0  0  0  0  0  0
    5.8710    9.0160  -20.4870 N   0  3  0  0  0  0
    5.5090    9.9470  -22.8360 C   0  0  0  0  0  0
    7.4350    9.0480  -22.4820 C   0  0  0  0  0  0
    5.4580    7.4090  -22.4160 C   0  0  0  0  0  0
    6.0060    8.7740  -21.9620 C   0  0  0  0  0  0
    3.9690    7.2400  -22.2030 C   0  0  0  0  0  0
    6.2129    8.2133  -19.9822 H   0  0  0  0  0  0
    6.4080    9.8291  -20.2290 H   0  0  0  0  0  0
    4.9010    9.1680  -20.2590 H   0  0  0  0  0  0
    4.9547    9.5097  -23.6795 H   0  0  0  0  0  0
    5.2839   10.7833  -22.1578 H   0  0  0  0  0  0
    7.9946    9.5176  -21.6596 H   0  0  0  0  0  0
    7.6890    8.2340  -23.1770 H   0  0  0  0  0  0
    5.9952    6.6068  -21.8888 H   0  0  0  0  0  0
    5.6941    7.2569  -23.4795 H   0  0  0  0  0  0
  1  2  2  0  0  0
  1  3  1  0  0  0
  1 34  1  0  0  0
  2  6  1  0  0  0
  2 35  1  0  0  0
  3  5  2  0  0  0
  3 27  1  0  0  0
  4  5  1  0  0  0
  4  6  2  0  0  0
  4 18  1  0  0  0
  5 24  1  0  0  0
  6 10  1  0  0  0
  7 10  2  0  0  0
  7 23  1  0  0  0
  7 33  1  0  0  0
  8 21  1  0  0  0
  8 22  1  0  0  0
  8 36  1  0  0  0
  8 37  1  0  0  0
  9 21  1  0  0  0
  9 31  1  0  0  0
  9 38  1  0  0  0
  9 39  1  0  0  0
 10 40  1  0  0  0
 11 12  1  0  0  0
 11 14  2  0  0  0
 11 15  1  0  0  0
 12 17  1  0  0  0
 12 28  2  0  0  0
 13 28  1  0  0  0
 13 29  2  0  0  0
 13 59  1  0  0  0
 14 29  1  0  0  0
 14 31  1  0  0  0
 15 30  2  0  0  0
 15 41  1  0  0  0
 16 17  2  0  0  0
 16 18  1  0  0  0
 16 30  1  0  0  0
 17 26  1  0  0  0
 18 23  2  0  0  0
 19 20  1  0  0  0
 19 31  1  0  0  0
 19 42  1  0  0  0
 19 43  1  0  0  0
 20 22  1  0  0  0
 20 32  1  0  0  0
 20 44  1  0  0  0
 21 32  1  0  0  0
 21 45  1  0  0  0
 22 46  1  0  0  0
 22 47  1  0  0  0
 23 48  1  0  0  0
 24 25  3  0  0  0
 25 49  1  0  0  0
 32 50  1  0  0  0
 33 51  1  0  0  0
 52 59  2  0  0  0
 53 55  1  0  0  0
 53 56  1  0  0  0
 54 58  1  0  0  0
 54 60  1  0  0  0
 54 61  1  0  0  0
 54 62  1  0  0  0
 55 58  1  0  0  0
 55 63  1  0  0  0
 55 64  1  0  0  0
 56 58  1  0  0  0
 56 65  1  0  0  0
 56 66  1  0  0  0
 57 58  1  0  0  0
 57 59  1  0  0  0
 57 67  1  0  0  0
 57 68  1  0  0  0
M  CHG  1  54   1
M  END
> <s_m_entry_id>
689

> <s_m_entry_name>
000000531.1

> <s_m_Source_Path>
/Users/zaksoul/Documents/3r_UNI/2nd_SEMESTER/BSC/FRAG_RECON/RESULTS/2

> <s_m_Source_File>
000000531.mol2

> <i_m_Source_File_Index>
1

$$$$
No_0_553
                    3D
 Schrodinger Suite 2022-4.
 68 74  0  0  1  0            999 V2000
   -5.1810    3.6090  -21.8530 C   0  0  0  0  0  0
   -5.4520    3.8050  -23.1860 C   0  0  0  0  0  0
   -3.9420    3.3510  -21.5190 C   0  0  0  0  0  0
   -3.0590    3.4860  -23.6870 C   0  0  0  0  0  0
   -2.8930    3.2340  -22.2690 C   0  0  0  0  0  0
   -4.4090    3.7540  -24.2010 C   0  0  0  0  0  0
   -3.6630    3.7850  -26.4030 C   0  0  0  0  0  0
    6.0870    3.0010  -21.1820 C   0  0  0  0  0  0
    5.9380    3.1560  -23.7310 C   0  0  0  0  0  0
   -4.6650    3.8890  -25.5350 C   0  0  0  0  0  0
    2.1540    3.7130  -23.7290 C   0  0  0  0  0  0
    1.3370    4.8230  -23.4210 C   0  0  0  0  0  0
    3.1410    6.0110  -22.7430 C   0  0  0  0  0  0
    3.5570    3.8990  -23.4210 C   0  0  0  0  0  0
    1.6030    2.6010  -24.3930 C   0  0  0  0  0  0
   -0.5220    3.4190  -24.2700 C   0  0  0  0  0  0
    0.0100    4.6350  -23.6670 C   0  0  0  0  0  0
   -1.9770    3.4300  -24.6180 C   0  0  0  0  0  0
    4.1570    1.3990  -23.1440 C   0  0  0  0  0  0
    5.0950    1.0350  -22.0030 C   0  0  2  0  0  0
    6.6890    2.5740  -22.5390 C   0  0  2  0  0  0
    5.0840    2.0310  -20.8310 C   0  0  0  0  0  0
   -2.3080    3.5970  -26.0440 C   0  0  0  0  0  0
   -1.5470    2.8150  -21.6780 C   0  0  0  0  0  0
   -0.5150    2.4620  -21.1780 C   0  0  0  0  0  0
   -0.8280    5.6800  -23.3140 F   0  0  0  0  0  0
   -3.7260    3.1020  -20.1390 F   0  0  0  0  0  0
    1.8200    5.9780  -22.8860 N   0  0  0  0  0  0
    4.0350    5.0470  -22.9720 N   0  0  0  0  0  0
    0.2950    2.5160  -24.6930 N   0  0  0  0  0  0
    4.4710    2.8500  -23.6070 N   0  0  0  0  0  0
    6.5000    1.1010  -22.4910 N   0  0  1  0  0  0
   -3.8410    3.8060  -27.7920 O   0  0  0  0  0  0
   -5.9796    3.6712  -21.1226 H   0  0  0  0  0  0
   -6.4675    4.0037  -23.5091 H   0  0  0  0  0  0
    5.6179    3.9906  -21.2849 H   0  0  0  0  0  0
    6.8763    3.0060  -20.4159 H   0  0  0  0  0  0
    6.3275    2.7150  -24.6604 H   0  0  0  0  0  0
    6.0833    4.2460  -23.7593 H   0  0  0  0  0  0
   -5.6765    4.0776  -25.8762 H   0  0  0  0  0  0
    2.2385    1.7718  -24.6821 H   0  0  0  0  0  0
    3.1157    1.3435  -22.7939 H   0  0  0  0  0  0
    4.3144    0.7047  -23.9826 H   0  0  0  0  0  0
    4.8700    0.0218  -21.6387 H   0  0  0  0  0  0
    7.7578    2.8293  -22.5885 H   0  0  0  0  0  0
    4.1018    2.5236  -20.7805 H   0  0  0  0  0  0
    5.3877    1.5123  -19.9097 H   0  0  0  0  0  0
   -1.5411    3.5789  -26.8099 H   0  0  0  0  0  0
    0.3934    2.1519  -20.7378 H   0  0  0  0  0  0
    7.1492    0.5983  -21.7894 H   0  0  0  0  0  0
   -2.9984    3.7179  -28.2217 H   0  0  0  0  0  0
    3.1330    8.3440  -22.6340 O   0  0  0  0  0  0
    7.3530    9.3050  -21.5950 O   0  0  0  0  0  0
    4.5610    9.4660  -20.1720 N   0  3  0  0  0  0
    6.0780    9.4420  -22.2240 C   0  0  0  0  0  0
    6.9250    8.5900  -20.4350 C   0  0  0  0  0  0
    4.9440    7.2800  -21.4140 C   0  0  0  0  0  0
    5.4980    8.6620  -21.0240 C   0  0  0  0  0  0
    3.7010    7.3330  -22.2760 C   0  0  0  0  0  0
    4.2231    8.8962  -19.4123 H   0  0  0  0  0  0
    5.0470   10.2670  -19.8000 H   0  0  0  0  0  0
    3.7812    9.7769  -20.7299 H   0  0  0  0  0  0
    6.0680    8.7611  -23.0879 H   0  0  0  0  0  0
    5.7701   10.4916  -22.1080 H   0  0  0  0  0  0
    6.9620    9.2931  -19.5899 H   0  0  0  0  0  0
    7.2701    7.5518  -20.5490 H   0  0  0  0  0  0
    4.7309    6.7019  -20.5028 H   0  0  0  0  0  0
    5.7251    6.7079  -21.9361 H   0  0  0  0  0  0
  1  2  2  0  0  0
  1  3  1  0  0  0
  1 34  1  0  0  0
  2  6  1  0  0  0
  2 35  1  0  0  0
  3  5  2  0  0  0
  3 27  1  0  0  0
  4  5  1  0  0  0
  4  6  2  0  0  0
  4 18  1  0  0  0
  5 24  1  0  0  0
  6 10  1  0  0  0
  7 10  2  0  0  0
  7 23  1  0  0  0
  7 33  1  0  0  0
  8 21  1  0  0  0
  8 22  1  0  0  0
  8 36  1  0  0  0
  8 37  1  0  0  0
  9 21  1  0  0  0
  9 31  1  0  0  0
  9 38  1  0  0  0
  9 39  1  0  0  0
 10 40  1  0  0  0
 11 12  1  0  0  0
 11 14  2  0  0  0
 11 15  1  0  0  0
 12 17  1  0  0  0
 12 28  2  0  0  0
 13 28  1  0  0  0
 13 29  2  0  0  0
 13 59  1  0  0  0
 14 29  1  0  0  0
 14 31  1  0  0  0
 15 30  2  0  0  0
 15 41  1  0  0  0
 16 17  2  0  0  0
 16 18  1  0  0  0
 16 30  1  0  0  0
 17 26  1  0  0  0
 18 23  2  0  0  0
 19 20  1  0  0  0
 19 31  1  0  0  0
 19 42  1  0  0  0
 19 43  1  0  0  0
 20 22  1  0  0  0
 20 32  1  0  0  0
 20 44  1  0  0  0
 21 32  1  0  0  0
 21 45  1  0  0  0
 22 46  1  0  0  0
 22 47  1  0  0  0
 23 48  1  0  0  0
 24 25  3  0  0  0
 25 49  1  0  0  0
 32 50  1  0  0  0
 33 51  1  0  0  0
 52 59  2  0  0  0
 53 55  1  0  0  0
 53 56  1  0  0  0
 54 58  1  0  0  0
 54 60  1  0  0  0
 54 61  1  0  0  0
 54 62  1  0  0  0
 55 58  1  0  0  0
 55 63  1  0  0  0
 55 64  1  0  0  0
 56 58  1  0  0  0
 56 65  1  0  0  0
 56 66  1  0  0  0
 57 58  1  0  0  0
 57 59  1  0  0  0
 57 67  1  0  0  0
 57 68  1  0  0  0
M  CHG  1  54   1
M  END
> <s_m_entry_id>
690

> <s_m_entry_name>
000000532.1

> <s_m_Source_Path>
/Users/zaksoul/Documents/3r_UNI/2nd_SEMESTER/BSC/FRAG_RECON/RESULTS/2

> <s_m_Source_File>
000000532.mol2

> <i_m_Source_File_Index>
1

$$$$
No_0_554
                    3D
 Schrodinger Suite 2022-4.
 68 74  0  0  1  0            999 V2000
   -5.0100    3.6190  -21.7750 C   0  0  0  0  0  0
   -5.2970    3.7970  -23.1080 C   0  0  0  0  0  0
   -3.7690    3.3590  -21.4520 C   0  0  0  0  0  0
   -2.9120    3.4570  -23.6330 C   0  0  0  0  0  0
   -2.7300    3.2250  -22.2130 C   0  0  0  0  0  0
   -4.2660    3.7250  -24.1340 C   0  0  0  0  0  0
   -3.5470    3.7190  -26.3450 C   0  0  0  0  0  0
    6.2610    2.9580  -21.2330 C   0  0  0  0  0  0
    6.0820    3.0760  -23.7810 C   0  0  0  0  0  0
   -4.5380    3.8410  -25.4670 C   0  0  0  0  0  0
    2.3020    3.6540  -23.7420 C   0  0  0  0  0  0
    1.4950    4.7730  -23.4400 C   0  0  0  0  0  0
    3.3140    5.9600  -22.8020 C   0  0  0  0  0  0
    3.7090    3.8370  -23.4530 C   0  0  0  0  0  0
    1.7360    2.5350  -24.3820 C   0  0  0  0  0  0
   -0.3830    3.3670  -24.2450 C   0  0  0  0  0  0
    0.1640    4.5890  -23.6670 C   0  0  0  0  0  0
   -1.8410    3.3810  -24.5760 C   0  0  0  0  0  0
    4.2990    1.3370  -23.1460 C   0  0  0  0  0  0
    5.2490    0.9850  -22.0120 C   0  0  2  0  0  0
    6.8450    2.5070  -22.5900 C   0  0  2  0  0  0
    5.2580    1.9980  -20.8550 C   0  0  0  0  0  0
   -2.1890    3.5290  -26.0000 C   0  0  0  0  0  0
   -1.3790    2.8070  -21.6320 C   0  0  0  0  0  0
   -0.3430    2.4560  -21.1400 C   0  0  0  0  0  0
   -0.6640    5.6440  -23.3190 F   0  0  0  0  0  0
   -3.5370    3.1290  -20.0710 F   0  0  0  0  0  0
    1.9900    5.9330  -22.9280 N   0  0  0  0  0  0
    4.1980    4.9880  -23.0270 N   0  0  0  0  0  0
    0.4240    2.4530  -24.6650 N   0  0  0  0  0  0
    4.6150    2.7800  -23.6350 N   0  0  0  0  0  0
    6.6480    1.0360  -22.5180 N   0  0  1  0  0  0
   -3.7430    3.7210  -27.7320 O   0  0  0  0  0  0
   -5.7997    3.6963  -21.0365 H   0  0  0  0  0  0
   -6.3153    3.9968  -23.4213 H   0  0  0  0  0  0
    5.7964    3.9488  -21.3451 H   0  0  0  0  0  0
    7.0602    2.9691  -20.4772 H   0  0  0  0  0  0
    6.4574    2.6189  -24.7084 H   0  0  0  0  0  0
    6.2333    4.1646  -23.8274 H   0  0  0  0  0  0
   -5.5524    4.0316  -25.7981 H   0  0  0  0  0  0
    2.3636    1.6985  -24.6672 H   0  0  0  0  0  0
    3.2617    1.2926  -22.7827 H   0  0  0  0  0  0
    4.4423    0.6298  -23.9763 H   0  0  0  0  0  0
    5.0229   -0.0213  -21.6295 H   0  0  0  0  0  0
    7.9146    2.7552  -22.6566 H   0  0  0  0  0  0
    4.2795    2.4974  -20.7995 H   0  0  0  0  0  0
    5.5698    1.4915  -19.9297 H   0  0  0  0  0  0
   -1.4319    3.4959  -26.7751 H   0  0  0  0  0  0
    0.5692    2.1469  -20.7069 H   0  0  0  0  0  0
    7.3028    0.5395  -21.8172 H   0  0  0  0  0  0
   -2.9060    3.6221  -28.1703 H   0  0  0  0  0  0
    3.1860    8.2700  -22.4810 O   0  0  0  0  0  0
    7.4640    9.4980  -22.3840 O   0  0  0  0  0  0
    5.0940    9.3220  -20.3330 N   0  3  0  0  0  0
    6.0680    9.5750  -22.6790 C   0  0  0  0  0  0
    7.3750    8.6660  -21.2260 C   0  0  0  0  0  0
    5.3010    7.2720  -21.8250 C   0  0  0  0  0  0
    5.8460    8.6630  -21.4520 C   0  0  0  0  0  0
    3.8860    7.2860  -22.3610 C   0  0  0  0  0  0
    4.9869    8.6715  -19.5704 H   0  0  0  0  0  0
    5.6048   10.1307  -20.0151 H   0  0  0  0  0  0
    4.1848    9.6081  -20.6611 H   0  0  0  0  0  0
    5.8921    8.9612  -23.5747 H   0  0  0  0  0  0
    5.7329   10.5843  -22.3979 H   0  0  0  0  0  0
    7.5721    9.3052  -20.3527 H   0  0  0  0  0  0
    7.7461    7.6708  -21.5121 H   0  0  0  0  0  0
    5.3520    6.6129  -20.9458 H   0  0  0  0  0  0
    5.9669    6.8071  -22.5669 H   0  0  0  0  0  0
  1  2  2  0  0  0
  1  3  1  0  0  0
  1 34  1  0  0  0
  2  6  1  0  0  0
  2 35  1  0  0  0
  3  5  2  0  0  0
  3 27  1  0  0  0
  4  5  1  0  0  0
  4  6  2  0  0  0
  4 18  1  0  0  0
  5 24  1  0  0  0
  6 10  1  0  0  0
  7 10  2  0  0  0
  7 23  1  0  0  0
  7 33  1  0  0  0
  8 21  1  0  0  0
  8 22  1  0  0  0
  8 36  1  0  0  0
  8 37  1  0  0  0
  9 21  1  0  0  0
  9 31  1  0  0  0
  9 38  1  0  0  0
  9 39  1  0  0  0
 10 40  1  0  0  0
 11 12  1  0  0  0
 11 14  2  0  0  0
 11 15  1  0  0  0
 12 17  1  0  0  0
 12 28  2  0  0  0
 13 28  1  0  0  0
 13 29  2  0  0  0
 13 59  1  0  0  0
 14 29  1  0  0  0
 14 31  1  0  0  0
 15 30  2  0  0  0
 15 41  1  0  0  0
 16 17  2  0  0  0
 16 18  1  0  0  0
 16 30  1  0  0  0
 17 26  1  0  0  0
 18 23  2  0  0  0
 19 20  1  0  0  0
 19 31  1  0  0  0
 19 42  1  0  0  0
 19 43  1  0  0  0
 20 22  1  0  0  0
 20 32  1  0  0  0
 20 44  1  0  0  0
 21 32  1  0  0  0
 21 45  1  0  0  0
 22 46  1  0  0  0
 22 47  1  0  0  0
 23 48  1  0  0  0
 24 25  3  0  0  0
 25 49  1  0  0  0
 32 50  1  0  0  0
 33 51  1  0  0  0
 52 59  2  0  0  0
 53 55  1  0  0  0
 53 56  1  0  0  0
 54 58  1  0  0  0
 54 60  1  0  0  0
 54 61  1  0  0  0
 54 62  1  0  0  0
 55 58  1  0  0  0
 55 63  1  0  0  0
 55 64  1  0  0  0
 56 58  1  0  0  0
 56 65  1  0  0  0
 56 66  1  0  0  0
 57 58  1  0  0  0
 57 59  1  0  0  0
 57 67  1  0  0  0
 57 68  1  0  0  0
M  CHG  1  54   1
M  END
> <s_m_entry_id>
691

> <s_m_entry_name>
000000533.1

> <s_m_Source_Path>
/Users/zaksoul/Documents/3r_UNI/2nd_SEMESTER/BSC/FRAG_RECON/RESULTS/2

> <s_m_Source_File>
000000533.mol2

> <i_m_Source_File_Index>
1

$$$$
No_0_555
                    3D
 Schrodinger Suite 2022-4.
 67 73  0  0  1  0            999 V2000
   -5.2180    3.7010  -22.1900 C   0  0  0  0  0  0
   -5.4430    3.8690  -23.5360 C   0  0  0  0  0  0
   -3.9970    3.4210  -21.8100 C   0  0  0  0  0  0
   -3.0450    3.4800  -23.9530 C   0  0  0  0  0  0
   -2.9290    3.2600  -22.5240 C   0  0  0  0  0  0
   -4.3700    3.7670  -24.5160 C   0  0  0  0  0  0
   -3.5550    3.7240  -26.6920 C   0  0  0  0  0  0
    6.0040    2.8370  -21.1470 C   0  0  0  0  0  0
    5.9390    2.9310  -23.7010 C   0  0  0  0  0  0
   -4.5810    3.8740  -25.8600 C   0  0  0  0  0  0
    2.1720    3.5800  -23.8340 C   0  0  0  0  0  0
    1.3740    4.7160  -23.5800 C   0  0  0  0  0  0
    3.1850    5.8770  -22.8740 C   0  0  0  0  0  0
    3.5680    3.7400  -23.4860 C   0  0  0  0  0  0
    1.6140    2.4640  -24.4880 C   0  0  0  0  0  0
   -0.4930    3.3370  -24.4520 C   0  0  0  0  0  0
    0.0510    4.5540  -23.8630 C   0  0  0  0  0  0
   -1.9350    3.3740  -24.8470 C   0  0  0  0  0  0
    4.0970    1.2330  -23.1280 C   0  0  0  0  0  0
    4.9890    0.8760  -21.9500 C   0  0  2  0  0  0
    6.6380    2.3620  -22.4720 C   0  0  2  0  0  0
    4.9670    1.9010  -20.8030 C   0  0  0  0  0  0
   -2.2170    3.5130  -26.2860 C   0  0  0  0  0  0
   -1.6130    2.8230  -21.8800 C   0  0  0  0  0  0
   -0.6060    2.4580  -21.3390 C   0  0  0  0  0  0
   -0.7710    5.6280  -23.5630 F   0  0  0  0  0  0
   -3.8310    3.2020  -20.4180 F   0  0  0  0  0  0
    1.8680    5.8720  -23.0580 N   0  0  0  0  0  0
    4.0600    4.8860  -23.0500 N   0  0  0  0  0  0
    0.3140    2.4040  -24.8270 N   0  0  0  0  0  0
    4.4620    2.6640  -23.6170 N   0  0  0  0  0  0
    6.4100    0.8950  -22.3940 N   0  0  1  0  0  0
   -3.6900    3.7150  -28.0860 O   0  0  0  0  0  0
   -6.0377    3.8003  -21.4877 H   0  0  0  0  0  0
   -6.4424    4.0847  -23.8962 H   0  0  0  0  0  0
    5.5640    3.8351  -21.2893 H   0  0  0  0  0  0
    6.7691    2.8431  -20.3567 H   0  0  0  0  0  0
    6.3456    2.4578  -24.6070 H   0  0  0  0  0  0
    6.1126    4.0160  -23.7515 H   0  0  0  0  0  0
   -5.5764    4.0787  -26.2373 H   0  0  0  0  0  0
    2.2375    1.6126  -24.7360 H   0  0  0  0  0  0
    3.0439    1.2118  -22.8110 H   0  0  0  0  0  0
    4.2624    0.5140  -23.9439 H   0  0  0  0  0  0
    4.7277   -0.1218  -21.5676 H   0  0  0  0  0  0
    7.7141    2.5891  -22.4942 H   0  0  0  0  0  0
    3.9966    2.4190  -20.7969 H   0  0  0  0  0  0
    5.2284    1.3983  -19.8602 H   0  0  0  0  0  0
   -1.4278    3.4568  -27.0270 H   0  0  0  0  0  0
    0.2802    2.1369  -20.8629 H   0  0  0  0  0  0
    7.0248    0.3946  -21.6605 H   0  0  0  0  0  0
   -2.8370    3.5953  -28.4868 H   0  0  0  0  0  0
    3.2330    8.2120  -22.8210 O   0  0  0  0  0  0
    6.9470    8.6540  -21.1950 N   0  0  0  0  0  0
    5.0110    9.6530  -21.1880 N   0  3  0  0  0  0
    5.6370    8.4910  -21.3040 C   0  0  0  0  0  0
    5.9350   10.7620  -21.0080 C   0  0  0  0  0  0
    7.3180   10.0440  -20.9850 C   0  0  0  0  0  0
    4.9890    7.1480  -21.5390 C   0  0  0  0  0  0
    3.7620    7.1970  -22.4210 C   0  0  0  0  0  0
    7.5742    7.8397  -21.2610 H   0  0  0  0  0  0
    3.9825    9.6900  -21.2300 H   0  0  0  0  0  0
    5.7531   11.2287  -20.0287 H   0  0  0  0  0  0
    5.8830   11.4222  -21.8863 H   0  0  0  0  0  0
    7.9199   10.3909  -21.8379 H   0  0  0  0  0  0
    7.7651   10.1530  -19.9859 H   0  0  0  0  0  0
    4.7251    6.6962  -20.5714 H   0  0  0  0  0  0
    5.7266    6.4593  -21.9768 H   0  0  0  0  0  0
  1  2  2  0  0  0
  1  3  1  0  0  0
  1 34  1  0  0  0
  2  6  1  0  0  0
  2 35  1  0  0  0
  3  5  2  0  0  0
  3 27  1  0  0  0
  4  5  1  0  0  0
  4  6  2  0  0  0
  4 18  1  0  0  0
  5 24  1  0  0  0
  6 10  1  0  0  0
  7 10  2  0  0  0
  7 23  1  0  0  0
  7 33  1  0  0  0
  8 21  1  0  0  0
  8 22  1  0  0  0
  8 36  1  0  0  0
  8 37  1  0  0  0
  9 21  1  0  0  0
  9 31  1  0  0  0
  9 38  1  0  0  0
  9 39  1  0  0  0
 10 40  1  0  0  0
 11 12  1  0  0  0
 11 14  2  0  0  0
 11 15  1  0  0  0
 12 17  1  0  0  0
 12 28  2  0  0  0
 13 28  1  0  0  0
 13 29  2  0  0  0
 13 59  1  0  0  0
 14 29  1  0  0  0
 14 31  1  0  0  0
 15 30  2  0  0  0
 15 41  1  0  0  0
 16 17  2  0  0  0
 16 18  1  0  0  0
 16 30  1  0  0  0
 17 26  1  0  0  0
 18 23  2  0  0  0
 19 20  1  0  0  0
 19 31  1  0  0  0
 19 42  1  0  0  0
 19 43  1  0  0  0
 20 22  1  0  0  0
 20 32  1  0  0  0
 20 44  1  0  0  0
 21 32  1  0  0  0
 21 45  1  0  0  0
 22 46  1  0  0  0
 22 47  1  0  0  0
 23 48  1  0  0  0
 24 25  3  0  0  0
 25 49  1  0  0  0
 32 50  1  0  0  0
 33 51  1  0  0  0
 52 59  2  0  0  0
 53 55  1  0  0  0
 53 57  1  0  0  0
 53 60  1  0  0  0
 54 55  2  0  0  0
 54 56  1  0  0  0
 54 61  1  0  0  0
 55 58  1  0  0  0
 56 57  1  0  0  0
 56 62  1  0  0  0
 56 63  1  0  0  0
 57 64  1  0  0  0
 57 65  1  0  0  0
 58 59  1  0  0  0
 58 66  1  0  0  0
 58 67  1  0  0  0
M  CHG  1  54   1
M  END
> <s_m_entry_id>
692

> <s_m_entry_name>
000000534.1

> <s_m_Source_Path>
/Users/zaksoul/Documents/3r_UNI/2nd_SEMESTER/BSC/FRAG_RECON/RESULTS/2

> <s_m_Source_File>
000000534.mol2

> <i_m_Source_File_Index>
1

$$$$
No_0_556
                    3D
 Schrodinger Suite 2022-4.
 67 73  0  0  1  0            999 V2000
   -5.0850    3.5980  -22.0140 C   0  0  0  0  0  0
   -5.3270    3.7750  -23.3550 C   0  0  0  0  0  0
   -3.8570    3.3270  -21.6500 C   0  0  0  0  0  0
   -2.9300    3.4120  -23.8030 C   0  0  0  0  0  0
   -2.7950    3.1820  -22.3770 C   0  0  0  0  0  0
   -4.2640    3.6920  -24.3480 C   0  0  0  0  0  0
   -3.4740    3.6740  -26.5340 C   0  0  0  0  0  0
    6.1570    2.8350  -21.1060 C   0  0  0  0  0  0
    6.0610    2.9490  -23.6590 C   0  0  0  0  0  0
   -4.4920    3.8080  -25.6890 C   0  0  0  0  0  0
    2.2870    3.5620  -23.7430 C   0  0  0  0  0  0
    1.4810    4.6880  -23.4700 C   0  0  0  0  0  0
    3.2890    5.8610  -22.7760 C   0  0  0  0  0  0
    3.6850    3.7320  -23.4100 C   0  0  0  0  0  0
    1.7320    2.4470  -24.4000 C   0  0  0  0  0  0
   -0.3830    3.2980  -24.3330 C   0  0  0  0  0  0
    0.1560    4.5160  -23.7400 C   0  0  0  0  0  0
   -1.8300    3.3250  -24.7100 C   0  0  0  0  0  0
    4.2430    1.2280  -23.0790 C   0  0  0  0  0  0
    5.1520    0.8700  -21.9140 C   0  0  2  0  0  0
    6.7800    2.3760  -22.4430 C   0  0  2  0  0  0
    5.1330    1.8850  -20.7590 C   0  0  0  0  0  0
   -2.1300    3.4730  -26.1450 C   0  0  0  0  0  0
   -1.4680    2.7530  -21.7520 C   0  0  0  0  0  0
   -0.4520    2.3930  -21.2260 C   0  0  0  0  0  0
   -0.6730    5.5800  -23.4210 F   0  0  0  0  0  0
   -3.6720    3.0980  -20.2620 F   0  0  0  0  0  0
    1.9700    5.8450  -22.9450 N   0  0  0  0  0  0
    4.1720    4.8800  -22.9700 N   0  0  0  0  0  0
    0.4290    2.3760  -24.7250 N   0  0  0  0  0  0
    4.5880    2.6670  -23.5600 N   0  0  0  0  0  0
    6.5670    0.9070  -22.3750 N   0  0  1  0  0  0
   -3.6250    3.6750  -27.9270 O   0  0  0  0  0  0
   -5.8967    3.6833  -21.3006 H   0  0  0  0  0  0
   -6.3325    3.9837  -23.7022 H   0  0  0  0  0  0
    5.7051    3.8296  -21.2351 H   0  0  0  0  0  0
    6.9313    2.8411  -20.3247 H   0  0  0  0  0  0
    6.4616    2.4868  -24.5733 H   0  0  0  0  0  0
    6.2235    4.0361  -23.7024 H   0  0  0  0  0  0
   -5.4936    4.0057  -26.0533 H   0  0  0  0  0  0
    2.3605    1.6036  -24.6621 H   0  0  0  0  0  0
    3.1939    1.1937  -22.7501 H   0  0  0  0  0  0
    4.4055    0.5173  -23.9027 H   0  0  0  0  0  0
    4.9037   -0.1333  -21.5375 H   0  0  0  0  0  0
    7.8534    2.6143  -22.4753 H   0  0  0  0  0  0
    4.1580    2.3937  -20.7368 H   0  0  0  0  0  0
    5.4096    1.3772  -19.8232 H   0  0  0  0  0  0
   -1.3487    3.4309  -26.8952 H   0  0  0  0  0  0
    0.4430    2.0770  -20.7630 H   0  0  0  0  0  0
    7.1945    0.4067  -21.6523 H   0  0  0  0  0  0
   -2.7751    3.5672  -28.3376 H   0  0  0  0  0  0
    3.1740    8.1730  -22.4630 O   0  0  0  0  0  0
    7.1280    8.8270  -21.7050 N   0  0  0  0  0  0
    5.1820    9.6220  -21.1310 N   0  3  0  0  0  0
    5.8460    8.5450  -21.5250 C   0  0  0  0  0  0
    6.0370   10.7960  -21.0430 C   0  0  0  0  0  0
    7.4340   10.2210  -21.4270 C   0  0  0  0  0  0
    5.2630    7.1730  -21.7580 C   0  0  0  0  0  0
    3.8590    7.1820  -22.3190 C   0  0  0  0  0  0
    7.7795    8.0904  -22.0113 H   0  0  0  0  0  0
    4.1739    9.5600  -20.9290 H   0  0  0  0  0  0
    6.0630   11.1471  -20.0008 H   0  0  0  0  0  0
    5.7260   11.5290  -21.8020 H   0  0  0  0  0  0
    7.7839   10.7069  -22.3498 H   0  0  0  0  0  0
    8.1009   10.2780  -20.5541 H   0  0  0  0  0  0
    5.2750    6.6062  -20.8153 H   0  0  0  0  0  0
    5.9209    6.6071  -22.4339 H   0  0  0  0  0  0
  1  2  2  0  0  0
  1  3  1  0  0  0
  1 34  1  0  0  0
  2  6  1  0  0  0
  2 35  1  0  0  0
  3  5  2  0  0  0
  3 27  1  0  0  0
  4  5  1  0  0  0
  4  6  2  0  0  0
  4 18  1  0  0  0
  5 24  1  0  0  0
  6 10  1  0  0  0
  7 10  2  0  0  0
  7 23  1  0  0  0
  7 33  1  0  0  0
  8 21  1  0  0  0
  8 22  1  0  0  0
  8 36  1  0  0  0
  8 37  1  0  0  0
  9 21  1  0  0  0
  9 31  1  0  0  0
  9 38  1  0  0  0
  9 39  1  0  0  0
 10 40  1  0  0  0
 11 12  1  0  0  0
 11 14  2  0  0  0
 11 15  1  0  0  0
 12 17  1  0  0  0
 12 28  2  0  0  0
 13 28  1  0  0  0
 13 29  2  0  0  0
 13 59  1  0  0  0
 14 29  1  0  0  0
 14 31  1  0  0  0
 15 30  2  0  0  0
 15 41  1  0  0  0
 16 17  2  0  0  0
 16 18  1  0  0  0
 16 30  1  0  0  0
 17 26  1  0  0  0
 18 23  2  0  0  0
 19 20  1  0  0  0
 19 31  1  0  0  0
 19 42  1  0  0  0
 19 43  1  0  0  0
 20 22  1  0  0  0
 20 32  1  0  0  0
 20 44  1  0  0  0
 21 32  1  0  0  0
 21 45  1  0  0  0
 22 46  1  0  0  0
 22 47  1  0  0  0
 23 48  1  0  0  0
 24 25  3  0  0  0
 25 49  1  0  0  0
 32 50  1  0  0  0
 33 51  1  0  0  0
 52 59  2  0  0  0
 53 55  1  0  0  0
 53 57  1  0  0  0
 53 60  1  0  0  0
 54 55  2  0  0  0
 54 56  1  0  0  0
 54 61  1  0  0  0
 55 58  1  0  0  0
 56 57  1  0  0  0
 56 62  1  0  0  0
 56 63  1  0  0  0
 57 64  1  0  0  0
 57 65  1  0  0  0
 58 59  1  0  0  0
 58 66  1  0  0  0
 58 67  1  0  0  0
M  CHG  1  54   1
M  END
> <s_m_entry_id>
693

> <s_m_entry_name>
000000535.1

> <s_m_Source_Path>
/Users/zaksoul/Documents/3r_UNI/2nd_SEMESTER/BSC/FRAG_RECON/RESULTS/2

> <s_m_Source_File>
000000535.mol2

> <i_m_Source_File_Index>
1

$$$$
No_0_557
                    3D
 Schrodinger Suite 2022-4.
 69 74  0  0  1  0            999 V2000
   -4.9210    3.6600  -21.8350 C   0  0  0  0  0  0
   -5.1920    3.8550  -23.1680 C   0  0  0  0  0  0
   -3.6830    3.4020  -21.5000 C   0  0  0  0  0  0
   -2.8000    3.5360  -23.6690 C   0  0  0  0  0  0
   -2.6340    3.2840  -22.2500 C   0  0  0  0  0  0
   -4.1480    3.8040  -24.1830 C   0  0  0  0  0  0
   -3.4020    3.8340  -26.3840 C   0  0  0  0  0  0
    6.3460    3.0490  -21.1610 C   0  0  0  0  0  0
    6.1980    3.2040  -23.7090 C   0  0  0  0  0  0
   -4.4050    3.9380  -25.5170 C   0  0  0  0  0  0
    2.4140    3.7620  -23.7090 C   0  0  0  0  0  0
    1.5980    4.8710  -23.4020 C   0  0  0  0  0  0
    3.4020    6.0590  -22.7230 C   0  0  0  0  0  0
    3.8160    3.9470  -23.4010 C   0  0  0  0  0  0
    1.8620    2.6490  -24.3730 C   0  0  0  0  0  0
   -0.2620    3.4680  -24.2500 C   0  0  0  0  0  0
    0.2700    4.6840  -23.6480 C   0  0  0  0  0  0
   -1.7170    3.4800  -24.5990 C   0  0  0  0  0  0
    4.4160    1.4470  -23.1220 C   0  0  0  0  0  0
    5.3540    1.0830  -21.9810 C   0  0  2  0  0  0
    6.9490    2.6220  -22.5170 C   0  0  2  0  0  0
    5.3430    2.0790  -20.8090 C   0  0  0  0  0  0
   -2.0470    3.6460  -26.0250 C   0  0  0  0  0  0
   -1.2880    2.8650  -21.6590 C   0  0  0  0  0  0
   -0.2570    2.5120  -21.1580 C   0  0  0  0  0  0
   -0.5670    5.7300  -23.2950 F   0  0  0  0  0  0
   -3.4670    3.1530  -20.1200 F   0  0  0  0  0  0
    2.0800    6.0270  -22.8670 N   0  0  0  0  0  0
    4.2950    5.0950  -22.9520 N   0  0  0  0  0  0
    0.5550    2.5650  -24.6730 N   0  0  0  0  0  0
    4.7310    2.8980  -23.5860 N   0  0  0  0  0  0
    6.7590    1.1490  -22.4690 N   0  0  1  0  0  0
   -3.5800    3.8550  -27.7730 O   0  0  0  0  0  0
   -5.7196    3.7222  -21.1046 H   0  0  0  0  0  0
   -6.2073    4.0546  -23.4911 H   0  0  0  0  0  0
    5.8777    4.0390  -21.2639 H   0  0  0  0  0  0
    7.1353    3.0540  -20.3949 H   0  0  0  0  0  0
    6.5865    2.7620  -24.6384 H   0  0  0  0  0  0
    6.3433    4.2940  -23.7383 H   0  0  0  0  0  0
   -5.4162    4.1278  -25.8584 H   0  0  0  0  0  0
    2.4983    1.8200  -24.6610 H   0  0  0  0  0  0
    3.3744    1.3915  -22.7728 H   0  0  0  0  0  0
    4.5733    0.7521  -23.9601 H   0  0  0  0  0  0
    5.1280    0.0700  -21.6168 H   0  0  0  0  0  0
    8.0180    2.8764  -22.5665 H   0  0  0  0  0  0
    4.3611    2.5725  -20.7596 H   0  0  0  0  0  0
    5.6458    1.5602  -19.8875 H   0  0  0  0  0  0
   -1.2806    3.6279  -26.7914 H   0  0  0  0  0  0
    0.6514    2.2012  -20.7183 H   0  0  0  0  0  0
    7.4079    0.6455  -21.7677 H   0  0  0  0  0  0
   -2.7374    3.7669  -28.2027 H   0  0  0  0  0  0
    3.3960    8.3940  -22.6130 O   0  0  0  0  0  0
    6.3910    9.1770  -23.5180 N   0  3  0  0  0  0
    6.8850    9.1210  -22.0960 C   0  0  0  0  0  0
    5.2050    7.3260  -21.3980 C   0  0  0  0  0  0
    5.6160   10.4140  -23.8800 C   0  0  0  0  0  0
    5.7950    8.7170  -21.0790 C   0  0  0  0  0  0
    3.9610    7.3810  -22.2560 C   0  0  0  0  0  0
    5.8271    8.3631  -23.7070 H   0  0  0  0  0  0
    7.1732    9.0790  -24.1462 H   0  0  0  0  0  0
    7.3010   10.1000  -21.8160 H   0  0  0  0  0  0
    7.7264    8.4156  -22.0290 H   0  0  0  0  0  0
    4.9770    6.8020  -20.4581 H   0  0  0  0  0  0
    5.9671    6.7119  -21.9001 H   0  0  0  0  0  0
    5.3030   10.3560  -24.9329 H   0  0  0  0  0  0
    4.7269   10.4910  -23.2369 H   0  0  0  0  0  0
    6.2511   11.3002  -23.7340 H   0  0  0  0  0  0
    4.9907    9.4673  -21.0880 H   0  0  0  0  0  0
    6.2252    8.7090  -20.0666 H   0  0  0  0  0  0
  1  2  2  0  0  0
  1  3  1  0  0  0
  1 34  1  0  0  0
  2  6  1  0  0  0
  2 35  1  0  0  0
  3  5  2  0  0  0
  3 27  1  0  0  0
  4  5  1  0  0  0
  4  6  2  0  0  0
  4 18  1  0  0  0
  5 24  1  0  0  0
  6 10  1  0  0  0
  7 10  2  0  0  0
  7 23  1  0  0  0
  7 33  1  0  0  0
  8 21  1  0  0  0
  8 22  1  0  0  0
  8 36  1  0  0  0
  8 37  1  0  0  0
  9 21  1  0  0  0
  9 31  1  0  0  0
  9 38  1  0  0  0
  9 39  1  0  0  0
 10 40  1  0  0  0
 11 12  1  0  0  0
 11 14  2  0  0  0
 11 15  1  0  0  0
 12 17  1  0  0  0
 12 28  2  0  0  0
 13 28  1  0  0  0
 13 29  2  0  0  0
 13 58  1  0  0  0
 14 29  1  0  0  0
 14 31  1  0  0  0
 15 30  2  0  0  0
 15 41  1  0  0  0
 16 17  2  0  0  0
 16 18  1  0  0  0
 16 30  1  0  0  0
 17 26  1  0  0  0
 18 23  2  0  0  0
 19 20  1  0  0  0
 19 31  1  0  0  0
 19 42  1  0  0  0
 19 43  1  0  0  0
 20 22  1  0  0  0
 20 32  1  0  0  0
 20 44  1  0  0  0
 21 32  1  0  0  0
 21 45  1  0  0  0
 22 46  1  0  0  0
 22 47  1  0  0  0
 23 48  1  0  0  0
 24 25  3  0  0  0
 25 49  1  0  0  0
 32 50  1  0  0  0
 33 51  1  0  0  0
 52 58  2  0  0  0
 53 54  1  0  0  0
 53 56  1  0  0  0
 53 59  1  0  0  0
 53 60  1  0  0  0
 54 57  1  0  0  0
 54 61  1  0  0  0
 54 62  1  0  0  0
 55 57  1  0  0  0
 55 58  1  0  0  0
 55 63  1  0  0  0
 55 64  1  0  0  0
 56 65  1  0  0  0
 56 66  1  0  0  0
 56 67  1  0  0  0
 57 68  1  0  0  0
 57 69  1  0  0  0
M  CHG  1  53   1
M  END
> <s_m_entry_id>
694

> <s_m_entry_name>
000000536.1

> <s_m_Source_Path>
/Users/zaksoul/Documents/3r_UNI/2nd_SEMESTER/BSC/FRAG_RECON/RESULTS/2

> <s_m_Source_File>
000000536.mol2

> <i_m_Source_File_Index>
1

$$$$
No_0_558
                    3D
 Schrodinger Suite 2022-4.
 72 77  0  0  1  0            999 V2000
   -4.9360    3.6110  -21.8980 C   0  0  0  0  0  0
   -5.2160    3.7980  -23.2310 C   0  0  0  0  0  0
   -3.6950    3.3530  -21.5710 C   0  0  0  0  0  0
   -2.8270    3.4730  -23.7470 C   0  0  0  0  0  0
   -2.6520    3.2300  -22.3280 C   0  0  0  0  0  0
   -4.1800    3.7400  -24.2530 C   0  0  0  0  0  0
   -3.4500    3.7550  -26.4600 C   0  0  0  0  0  0
    6.3360    2.9920  -21.3030 C   0  0  0  0  0  0
    6.1690    3.1310  -23.8510 C   0  0  0  0  0  0
   -4.4460    3.8660  -25.5860 C   0  0  0  0  0  0
    2.3860    3.6930  -23.8270 C   0  0  0  0  0  0
    1.5730    4.8050  -23.5200 C   0  0  0  0  0  0
    3.3830    5.9950  -22.8620 C   0  0  0  0  0  0
    3.7910    3.8790  -23.5300 C   0  0  0  0  0  0
    1.8280    2.5770  -24.4800 C   0  0  0  0  0  0
   -0.2950    3.3990  -24.3460 C   0  0  0  0  0  0
    0.2440    4.6180  -23.7550 C   0  0  0  0  0  0
   -1.7510    3.4100  -24.6840 C   0  0  0  0  0  0
    4.3900    1.3800  -23.2400 C   0  0  0  0  0  0
    5.3350    1.0220  -22.1040 C   0  0  2  0  0  0
    6.9280    2.5560  -22.6610 C   0  0  2  0  0  0
    5.3340    2.0250  -20.9380 C   0  0  0  0  0  0
   -2.0920    3.5680  -26.1090 C   0  0  0  0  0  0
   -1.3020    2.8130  -21.7440 C   0  0  0  0  0  0
   -0.2670    2.4620  -21.2490 C   0  0  0  0  0  0
   -0.5900    5.6670  -23.4030 F   0  0  0  0  0  0
   -3.4700    3.1120  -20.1910 F   0  0  0  0  0  0
    2.0600    5.9630  -22.9960 N   0  0  0  0  0  0
    4.2730    5.0290  -23.0910 N   0  0  0  0  0  0
    0.5180    2.4920  -24.7700 N   0  0  0  0  0  0
    4.7030    2.8280  -23.7150 N   0  0  0  0  0  0
    6.7370    1.0830  -22.6020 N   0  0  1  0  0  0
   -3.6380    3.7680  -27.8470 O   0  0  0  0  0  0
   -5.7291    3.6783  -21.1621 H   0  0  0  0  0  0
   -6.2334    3.9967  -23.5481 H   0  0  0  0  0  0
    5.8679    3.9818  -21.4089 H   0  0  0  0  0  0
    7.1308    3.0011  -20.5426 H   0  0  0  0  0  0
    6.5506    2.6838  -24.7807 H   0  0  0  0  0  0
    6.3153    4.2206  -23.8873 H   0  0  0  0  0  0
   -5.4598    4.0547  -25.9202 H   0  0  0  0  0  0
    2.4611    1.7452  -24.7670 H   0  0  0  0  0  0
    3.3510    1.3275  -22.8826 H   0  0  0  0  0  0
    4.5403    0.6800  -24.0751 H   0  0  0  0  0  0
    5.1119    0.0113  -21.7314 H   0  0  0  0  0  0
    7.9968    2.8093  -22.7205 H   0  0  0  0  0  0
    4.3529    2.5196  -20.8845 H   0  0  0  0  0  0
    5.6429    1.5121  -20.0152 H   0  0  0  0  0  0
   -1.3312    3.5449  -26.8808 H   0  0  0  0  0  0
    0.6442    2.1529  -20.8139 H   0  0  0  0  0  0
    7.3907    0.5834  -21.9023 H   0  0  0  0  0  0
   -2.7987    3.6760  -28.2825 H   0  0  0  0  0  0
    3.3730    8.3250  -22.7710 O   0  0  0  0  0  0
    5.6100   10.5390  -22.8770 N   0  3  0  0  0  0
    6.4220    9.4070  -22.3010 C   0  0  0  0  0  0
    6.0150   10.8660  -24.2870 C   0  0  0  0  0  0
    5.6090   11.7720  -22.0140 C   0  0  0  0  0  0
    5.1880    7.2840  -21.5410 C   0  0  0  0  0  0
    5.7260    8.6710  -21.1300 C   0  0  0  0  0  0
    3.9470    7.3200  -22.4070 C   0  0  0  0  0  0
    4.6557   10.2172  -22.9190 H   0  0  0  0  0  0
    7.3961    9.7910  -21.9640 H   0  0  0  0  0  0
    6.6568    8.6855  -23.0974 H   0  0  0  0  0  0
    5.3980   11.6950  -24.6640 H   0  0  0  0  0  0
    7.0748   11.1600  -24.3060 H   0  0  0  0  0  0
    5.8691    9.9816  -24.9246 H   0  0  0  0  0  0
    5.0009   12.5541  -22.4921 H   0  0  0  0  0  0
    5.1859   11.5300  -21.0279 H   0  0  0  0  0  0
    6.6404   12.1341  -21.8910 H   0  0  0  0  0  0
    4.9840    6.6911  -20.6372 H   0  0  0  0  0  0
    5.9800    6.7250  -22.0610 H   0  0  0  0  0  0
    4.8975    9.2873  -20.7508 H   0  0  0  0  0  0
    6.4361    8.5560  -20.2978 H   0  0  0  0  0  0
  1  2  2  0  0  0
  1  3  1  0  0  0
  1 34  1  0  0  0
  2  6  1  0  0  0
  2 35  1  0  0  0
  3  5  2  0  0  0
  3 27  1  0  0  0
  4  5  1  0  0  0
  4  6  2  0  0  0
  4 18  1  0  0  0
  5 24  1  0  0  0
  6 10  1  0  0  0
  7 10  2  0  0  0
  7 23  1  0  0  0
  7 33  1  0  0  0
  8 21  1  0  0  0
  8 22  1  0  0  0
  8 36  1  0  0  0
  8 37  1  0  0  0
  9 21  1  0  0  0
  9 31  1  0  0  0
  9 38  1  0  0  0
  9 39  1  0  0  0
 10 40  1  0  0  0
 11 12  1  0  0  0
 11 14  2  0  0  0
 11 15  1  0  0  0
 12 17  1  0  0  0
 12 28  2  0  0  0
 13 28  1  0  0  0
 13 29  2  0  0  0
 13 59  1  0  0  0
 14 29  1  0  0  0
 14 31  1  0  0  0
 15 30  2  0  0  0
 15 41  1  0  0  0
 16 17  2  0  0  0
 16 18  1  0  0  0
 16 30  1  0  0  0
 17 26  1  0  0  0
 18 23  2  0  0  0
 19 20  1  0  0  0
 19 31  1  0  0  0
 19 42  1  0  0  0
 19 43  1  0  0  0
 20 22  1  0  0  0
 20 32  1  0  0  0
 20 44  1  0  0  0
 21 32  1  0  0  0
 21 45  1  0  0  0
 22 46  1  0  0  0
 22 47  1  0  0  0
 23 48  1  0  0  0
 24 25  3  0  0  0
 25 49  1  0  0  0
 32 50  1  0  0  0
 33 51  1  0  0  0
 52 59  2  0  0  0
 53 54  1  0  0  0
 53 55  1  0  0  0
 53 56  1  0  0  0
 53 60  1  0  0  0
 54 58  1  0  0  0
 54 61  1  0  0  0
 54 62  1  0  0  0
 55 63  1  0  0  0
 55 64  1  0  0  0
 55 65  1  0  0  0
 56 66  1  0  0  0
 56 67  1  0  0  0
 56 68  1  0  0  0
 57 58  1  0  0  0
 57 59  1  0  0  0
 57 69  1  0  0  0
 57 70  1  0  0  0
 58 71  1  0  0  0
 58 72  1  0  0  0
M  CHG  1  53   1
M  END
> <s_m_entry_id>
695

> <s_m_entry_name>
000000537.1

> <s_m_Source_Path>
/Users/zaksoul/Documents/3r_UNI/2nd_SEMESTER/BSC/FRAG_RECON/RESULTS/2

> <s_m_Source_File>
000000537.mol2

> <i_m_Source_File_Index>
1

$$$$
No_0_559
                    3D
 Schrodinger Suite 2022-4.
 72 77  0  0  1  0            999 V2000
   -4.9340    3.7000  -21.9330 C   0  0  0  0  0  0
   -5.2050    3.8950  -23.2670 C   0  0  0  0  0  0
   -3.6950    3.4420  -21.5980 C   0  0  0  0  0  0
   -2.8120    3.5730  -23.7670 C   0  0  0  0  0  0
   -2.6460    3.3220  -22.3480 C   0  0  0  0  0  0
   -4.1610    3.8420  -24.2810 C   0  0  0  0  0  0
   -3.4150    3.8690  -26.4820 C   0  0  0  0  0  0
    6.3330    3.0800  -21.2590 C   0  0  0  0  0  0
    6.1850    3.2320  -23.8080 C   0  0  0  0  0  0
   -4.4170    3.9750  -25.6150 C   0  0  0  0  0  0
    2.4020    3.7940  -23.8080 C   0  0  0  0  0  0
    1.5860    4.9040  -23.5010 C   0  0  0  0  0  0
    3.3920    6.0910  -22.8240 C   0  0  0  0  0  0
    3.8040    3.9790  -23.4990 C   0  0  0  0  0  0
    1.8490    2.6810  -24.4710 C   0  0  0  0  0  0
   -0.2750    3.5020  -24.3480 C   0  0  0  0  0  0
    0.2590    4.7180  -23.7470 C   0  0  0  0  0  0
   -1.7290    3.5150  -24.6970 C   0  0  0  0  0  0
    4.4020    1.4780  -23.2190 C   0  0  0  0  0  0
    5.3390    1.1140  -22.0770 C   0  0  2  0  0  0
    6.9350    2.6510  -22.6150 C   0  0  2  0  0  0
    5.3290    2.1110  -20.9070 C   0  0  0  0  0  0
   -2.0600    3.6800  -26.1230 C   0  0  0  0  0  0
   -1.3010    2.9020  -21.7560 C   0  0  0  0  0  0
   -0.2700    2.5490  -21.2560 C   0  0  0  0  0  0
   -0.5780    5.7650  -23.3960 F   0  0  0  0  0  0
   -3.4800    3.1930  -20.2180 F   0  0  0  0  0  0
    2.0700    6.0600  -22.9670 N   0  0  0  0  0  0
    4.2840    5.1260  -23.0520 N   0  0  0  0  0  0
    0.5410    2.5980  -24.7710 N   0  0  0  0  0  0
    4.7180    2.9280  -23.6840 N   0  0  0  0  0  0
    6.7440    1.1780  -22.5650 N   0  0  1  0  0  0
   -3.5930    3.8890  -27.8710 O   0  0  0  0  0  0
   -5.7320    3.7642  -21.2022 H   0  0  0  0  0  0
   -6.2202    4.0948  -23.5903 H   0  0  0  0  0  0
    5.8656    4.0702  -21.3640 H   0  0  0  0  0  0
    7.1223    3.0850  -20.4929 H   0  0  0  0  0  0
    6.5738    2.7897  -24.7371 H   0  0  0  0  0  0
    6.3313    4.3218  -23.8373 H   0  0  0  0  0  0
   -5.4282    4.1648  -25.9564 H   0  0  0  0  0  0
    2.4843    1.8509  -24.7581 H   0  0  0  0  0  0
    3.3603    1.4235  -22.8698 H   0  0  0  0  0  0
    4.5584    0.7819  -24.0563 H   0  0  0  0  0  0
    5.1129    0.1014  -21.7115 H   0  0  0  0  0  0
    8.0043    2.9042  -22.6654 H   0  0  0  0  0  0
    4.3477    2.6057  -20.8575 H   0  0  0  0  0  0
    5.6317    1.5934  -19.9848 H   0  0  0  0  0  0
   -1.2931    3.6609  -26.8889 H   0  0  0  0  0  0
    0.6378    2.2381  -20.8151 H   0  0  0  0  0  0
    7.3932    0.6753  -21.8634 H   0  0  0  0  0  0
   -2.7502    3.8000  -28.3003 H   0  0  0  0  0  0
    3.2450    8.3920  -22.4770 O   0  0  0  0  0  0
    5.2450   10.8000  -22.8170 N   0  3  0  0  0  0
    6.2400    9.6970  -22.5590 C   0  0  0  0  0  0
    5.3010   11.2910  -24.2370 C   0  0  0  0  0  0
    5.3540   11.9420  -21.8440 C   0  0  0  0  0  0
    5.3550    7.4100  -21.7890 C   0  0  0  0  0  0
    5.8760    8.7950  -21.3540 C   0  0  0  0  0  0
    3.9520    7.4140  -22.3580 C   0  0  0  0  0  0
    4.3297   10.3979  -22.6880 H   0  0  0  0  0  0
    7.2368   10.1339  -22.3990 H   0  0  0  0  0  0
    6.3390    9.0762  -23.4617 H   0  0  0  0  0  0
    4.5607   12.0923  -24.3781 H   0  0  0  0  0  0
    6.3074   11.6801  -24.4511 H   0  0  0  0  0  0
    5.0770   10.4600  -24.9220 H   0  0  0  0  0  0
    4.6029   12.7071  -22.0900 H   0  0  0  0  0  0
    5.1800   11.5719  -20.8228 H   0  0  0  0  0  0
    6.3598   12.3829  -21.9070 H   0  0  0  0  0  0
    5.3990    6.7191  -20.9342 H   0  0  0  0  0  0
    6.0463    6.9758  -22.5263 H   0  0  0  0  0  0
    5.1138    9.2965  -20.7396 H   0  0  0  0  0  0
    6.7601    8.6680  -20.7119 H   0  0  0  0  0  0
  1  2  2  0  0  0
  1  3  1  0  0  0
  1 34  1  0  0  0
  2  6  1  0  0  0
  2 35  1  0  0  0
  3  5  2  0  0  0
  3 27  1  0  0  0
  4  5  1  0  0  0
  4  6  2  0  0  0
  4 18  1  0  0  0
  5 24  1  0  0  0
  6 10  1  0  0  0
  7 10  2  0  0  0
  7 23  1  0  0  0
  7 33  1  0  0  0
  8 21  1  0  0  0
  8 22  1  0  0  0
  8 36  1  0  0  0
  8 37  1  0  0  0
  9 21  1  0  0  0
  9 31  1  0  0  0
  9 38  1  0  0  0
  9 39  1  0  0  0
 10 40  1  0  0  0
 11 12  1  0  0  0
 11 14  2  0  0  0
 11 15  1  0  0  0
 12 17  1  0  0  0
 12 28  2  0  0  0
 13 28  1  0  0  0
 13 29  2  0  0  0
 13 59  1  0  0  0
 14 29  1  0  0  0
 14 31  1  0  0  0
 15 30  2  0  0  0
 15 41  1  0  0  0
 16 17  2  0  0  0
 16 18  1  0  0  0
 16 30  1  0  0  0
 17 26  1  0  0  0
 18 23  2  0  0  0
 19 20  1  0  0  0
 19 31  1  0  0  0
 19 42  1  0  0  0
 19 43  1  0  0  0
 20 22  1  0  0  0
 20 32  1  0  0  0
 20 44  1  0  0  0
 21 32  1  0  0  0
 21 45  1  0  0  0
 22 46  1  0  0  0
 22 47  1  0  0  0
 23 48  1  0  0  0
 24 25  3  0  0  0
 25 49  1  0  0  0
 32 50  1  0  0  0
 33 51  1  0  0  0
 52 59  2  0  0  0
 53 54  1  0  0  0
 53 55  1  0  0  0
 53 56  1  0  0  0
 53 60  1  0  0  0
 54 58  1  0  0  0
 54 61  1  0  0  0
 54 62  1  0  0  0
 55 63  1  0  0  0
 55 64  1  0  0  0
 55 65  1  0  0  0
 56 66  1  0  0  0
 56 67  1  0  0  0
 56 68  1  0  0  0
 57 58  1  0  0  0
 57 59  1  0  0  0
 57 69  1  0  0  0
 57 70  1  0  0  0
 58 71  1  0  0  0
 58 72  1  0  0  0
M  CHG  1  53   1
M  END
> <s_m_entry_id>
696

> <s_m_entry_name>
000000538.1

> <s_m_Source_Path>
/Users/zaksoul/Documents/3r_UNI/2nd_SEMESTER/BSC/FRAG_RECON/RESULTS/2

> <s_m_Source_File>
000000538.mol2

> <i_m_Source_File_Index>
1

$$$$
No_0_560
                    3D
 Schrodinger Suite 2022-4.
 67 72  0  0  1  0            999 V2000
   -4.9090    3.6370  -21.9760 C   0  0  0  0  0  0
   -5.1760    3.8340  -23.3100 C   0  0  0  0  0  0
   -3.6710    3.3750  -21.6390 C   0  0  0  0  0  0
   -2.7830    3.5070  -23.8060 C   0  0  0  0  0  0
   -2.6210    3.2540  -22.3870 C   0  0  0  0  0  0
   -4.1300    3.7800  -24.3230 C   0  0  0  0  0  0
   -3.3790    3.8090  -26.5220 C   0  0  0  0  0  0
    6.3550    2.9880  -21.2800 C   0  0  0  0  0  0
    6.2130    3.1450  -23.8280 C   0  0  0  0  0  0
   -4.3830    3.9160  -25.6570 C   0  0  0  0  0  0
    2.4310    3.7160  -23.8350 C   0  0  0  0  0  0
    1.6180    4.8280  -23.5290 C   0  0  0  0  0  0
    3.4240    6.0090  -22.8460 C   0  0  0  0  0  0
    3.8330    3.8960  -23.5240 C   0  0  0  0  0  0
    1.8770    2.6050  -24.5010 C   0  0  0  0  0  0
   -0.2450    3.4310  -24.3820 C   0  0  0  0  0  0
    0.2900    4.6450  -23.7780 C   0  0  0  0  0  0
   -1.6990    3.4480  -24.7340 C   0  0  0  0  0  0
    4.4240    1.3930  -23.2460 C   0  0  0  0  0  0
    5.3580    1.0260  -22.1030 C   0  0  2  0  0  0
    6.9590    2.5600  -22.6350 C   0  0  2  0  0  0
    5.3480    2.0210  -20.9310 C   0  0  0  0  0  0
   -2.0260    3.6170  -26.1600 C   0  0  0  0  0  0
   -1.2790    2.8300  -21.7930 C   0  0  0  0  0  0
   -0.2490    2.4730  -21.2910 C   0  0  0  0  0  0
   -0.5450    5.6930  -23.4260 F   0  0  0  0  0  0
   -3.4600    3.1240  -20.2590 F   0  0  0  0  0  0
    2.1030    5.9810  -22.9920 N   0  0  0  0  0  0
    4.3140    5.0420  -23.0730 N   0  0  0  0  0  0
    0.5690    2.5250  -24.8040 N   0  0  0  0  0  0
    4.7450    2.8440  -23.7080 N   0  0  0  0  0  0
    6.7640    1.0870  -22.5880 N   0  0  1  0  0  0
   -3.5550    3.8320  -27.9110 O   0  0  0  0  0  0
   -5.7090    3.7012  -21.2473 H   0  0  0  0  0  0
   -6.1898    4.0378  -23.6352 H   0  0  0  0  0  0
    5.8909    3.9799  -21.3839 H   0  0  0  0  0  0
    7.1428    2.9900  -20.5123 H   0  0  0  0  0  0
    6.6027    2.7028  -24.7568 H   0  0  0  0  0  0
    6.3624    4.2344  -23.8563 H   0  0  0  0  0  0
   -5.3931    4.1086  -26.0000 H   0  0  0  0  0  0
    2.5104    1.7738  -24.7891 H   0  0  0  0  0  0
    3.3815    1.3415  -22.8988 H   0  0  0  0  0  0
    4.5804    0.6986  -24.0847 H   0  0  0  0  0  0
    5.1288    0.0134  -21.7395 H   0  0  0  0  0  0
    8.0291    2.8104  -22.6824 H   0  0  0  0  0  0
    4.3677    2.5177  -20.8825 H   0  0  0  0  0  0
    5.6476    1.5014  -20.0089 H   0  0  0  0  0  0
   -1.2581    3.5959  -26.9249 H   0  0  0  0  0  0
    0.6571    2.1590  -20.8489 H   0  0  0  0  0  0
    7.4098    0.5812  -21.8855 H   0  0  0  0  0  0
   -2.7120    3.7410  -28.3394 H   0  0  0  0  0  0
    3.4590    8.3450  -22.7790 O   0  0  0  0  0  0
    5.7610   10.5730  -22.5430 O   0  0  0  0  0  0
    8.3250    8.3880  -22.9960 N   0  0  0  0  0  0
    5.1930    7.2680  -21.4680 C   0  0  0  0  0  0
    5.7900    8.6550  -21.1620 C   0  0  0  0  0  0
    6.1460    9.4350  -22.4090 C   0  0  0  0  0  0
    6.9660    8.7810  -23.4980 C   0  0  0  0  0  0
    3.9870    7.3290  -22.3770 C   0  0  0  0  0  0
    8.8839    7.9251  -23.7958 H   0  0  0  0  0  0
    8.8502    9.2663  -22.6509 H   0  0  0  0  0  0
    4.9151    6.7741  -20.5252 H   0  0  0  0  0  0
    5.9640    6.6310  -21.9260 H   0  0  0  0  0  0
    6.6876    8.5370  -20.5372 H   0  0  0  0  0  0
    5.0763    9.2358  -20.5592 H   0  0  0  0  0  0
    6.4389    7.8888  -23.8671 H   0  0  0  0  0  0
    7.0750    9.4780  -24.3420 H   0  0  0  0  0  0
  1  2  2  0  0  0
  1  3  1  0  0  0
  1 34  1  0  0  0
  2  6  1  0  0  0
  2 35  1  0  0  0
  3  5  2  0  0  0
  3 27  1  0  0  0
  4  5  1  0  0  0
  4  6  2  0  0  0
  4 18  1  0  0  0
  5 24  1  0  0  0
  6 10  1  0  0  0
  7 10  2  0  0  0
  7 23  1  0  0  0
  7 33  1  0  0  0
  8 21  1  0  0  0
  8 22  1  0  0  0
  8 36  1  0  0  0
  8 37  1  0  0  0
  9 21  1  0  0  0
  9 31  1  0  0  0
  9 38  1  0  0  0
  9 39  1  0  0  0
 10 40  1  0  0  0
 11 12  1  0  0  0
 11 14  2  0  0  0
 11 15  1  0  0  0
 12 17  1  0  0  0
 12 28  2  0  0  0
 13 28  1  0  0  0
 13 29  2  0  0  0
 13 59  1  0  0  0
 14 29  1  0  0  0
 14 31  1  0  0  0
 15 30  2  0  0  0
 15 41  1  0  0  0
 16 17  2  0  0  0
 16 18  1  0  0  0
 16 30  1  0  0  0
 17 26  1  0  0  0
 18 23  2  0  0  0
 19 20  1  0  0  0
 19 31  1  0  0  0
 19 42  1  0  0  0
 19 43  1  0  0  0
 20 22  1  0  0  0
 20 32  1  0  0  0
 20 44  1  0  0  0
 21 32  1  0  0  0
 21 45  1  0  0  0
 22 46  1  0  0  0
 22 47  1  0  0  0
 23 48  1  0  0  0
 24 25  3  0  0  0
 25 49  1  0  0  0
 32 50  1  0  0  0
 33 51  1  0  0  0
 52 59  2  0  0  0
 53 57  2  0  0  0
 54 58  1  0  0  0
 54 60  1  0  0  0
 54 61  1  0  0  0
 55 56  1  0  0  0
 55 59  1  0  0  0
 55 62  1  0  0  0
 55 63  1  0  0  0
 56 57  1  0  0  0
 56 64  1  0  0  0
 56 65  1  0  0  0
 57 58  1  0  0  0
 58 66  1  0  0  0
 58 67  1  0  0  0
M  END
> <s_m_entry_id>
697

> <s_m_entry_name>
000000539.1

> <s_m_Source_Path>
/Users/zaksoul/Documents/3r_UNI/2nd_SEMESTER/BSC/FRAG_RECON/RESULTS/2

> <s_m_Source_File>
000000539.mol2

> <i_m_Source_File_Index>
1

$$$$
No_0_561
                    3D
 Schrodinger Suite 2022-4.
 68 73  0  0  1  0            999 V2000
   -4.8820    3.7060  -21.8400 C   0  0  0  0  0  0
   -5.1670    3.8890  -23.1720 C   0  0  0  0  0  0
   -3.6400    3.4460  -21.5160 C   0  0  0  0  0  0
   -2.7820    3.5530  -23.6960 C   0  0  0  0  0  0
   -2.6010    3.3160  -22.2770 C   0  0  0  0  0  0
   -4.1350    3.8230  -24.1980 C   0  0  0  0  0  0
   -3.4140    3.8270  -26.4070 C   0  0  0  0  0  0
    6.3900    3.0510  -21.2870 C   0  0  0  0  0  0
    6.2130    3.1800  -23.8350 C   0  0  0  0  0  0
   -4.4060    3.9450  -25.5300 C   0  0  0  0  0  0
    2.4330    3.7560  -23.7980 C   0  0  0  0  0  0
    1.6240    4.8720  -23.4920 C   0  0  0  0  0  0
    3.4410    6.0580  -22.8470 C   0  0  0  0  0  0
    3.8390    3.9380  -23.5070 C   0  0  0  0  0  0
    1.8680    2.6390  -24.4440 C   0  0  0  0  0  0
   -0.2510    3.4680  -24.3060 C   0  0  0  0  0  0
    0.2930    4.6880  -23.7220 C   0  0  0  0  0  0
   -1.7100    3.4830  -24.6380 C   0  0  0  0  0  0
    4.4310    1.4380  -23.2100 C   0  0  0  0  0  0
    5.3800    1.0810  -22.0760 C   0  0  2  0  0  0
    6.9750    2.6070  -22.6460 C   0  0  2  0  0  0
    5.3870    2.0890  -20.9150 C   0  0  0  0  0  0
   -2.0560    3.6370  -26.0610 C   0  0  0  0  0  0
   -1.2500    2.8960  -21.6970 C   0  0  0  0  0  0
   -0.2150    2.5440  -21.2050 C   0  0  0  0  0  0
   -0.5360    5.7410  -23.3700 F   0  0  0  0  0  0
   -3.4100    3.2100  -20.1360 F   0  0  0  0  0  0
    2.1180    6.0300  -22.9750 N   0  0  0  0  0  0
    4.3270    5.0880  -23.0750 N   0  0  0  0  0  0
    0.5570    2.5570  -24.7290 N   0  0  0  0  0  0
    4.7470    2.8830  -23.6920 N   0  0  0  0  0  0
    6.7790    1.1360  -22.5800 N   0  0  1  0  0  0
   -3.6080    3.8350  -27.7940 O   0  0  0  0  0  0
   -5.6719    3.7793  -21.1013 H   0  0  0  0  0  0
   -6.1849    4.0898  -23.4862 H   0  0  0  0  0  0
    5.9249    4.0418  -21.3960 H   0  0  0  0  0  0
    7.1877    3.0601  -20.5297 H   0  0  0  0  0  0
    6.5903    2.7280  -24.7642 H   0  0  0  0  0  0
    6.3634    4.2689  -23.8764 H   0  0  0  0  0  0
   -5.4202    4.1348  -25.8624 H   0  0  0  0  0  0
    2.4971    1.8042  -24.7310 H   0  0  0  0  0  0
    3.3932    1.3906  -22.8486 H   0  0  0  0  0  0
    4.5752    0.7341  -24.0429 H   0  0  0  0  0  0
    5.1539    0.0728  -21.6986 H   0  0  0  0  0  0
    8.0445    2.8562  -22.7106 H   0  0  0  0  0  0
    4.4079    2.5871  -20.8585 H   0  0  0  0  0  0
    5.6978    1.5784  -19.9916 H   0  0  0  0  0  0
   -1.2984    3.6069  -26.8357 H   0  0  0  0  0  0
    0.6966    2.2341  -20.7712 H   0  0  0  0  0  0
    7.4333    0.6367  -21.8808 H   0  0  0  0  0  0
   -2.7706    3.7381  -28.2320 H   0  0  0  0  0  0
    3.2240    8.2830  -22.2010 O   0  0  0  0  0  0
    6.4760    9.6370  -22.8130 N   0  3  0  0  0  0
    4.4260   10.8360  -23.0920 N   0  0  0  0  0  0
    6.2300   11.2140  -24.5030 N   0  0  0  0  0  0
    6.0260    8.8180  -21.6900 C   0  0  0  0  0  0
    5.7000   10.5510  -23.4510 C   0  0  0  0  0  0
    5.5100    7.4570  -22.2040 C   0  0  0  0  0  0
    4.0120    7.3830  -22.4000 C   0  0  0  0  0  0
    7.4495    9.4869  -23.1142 H   0  0  0  0  0  0
    3.8879   11.5401  -23.6171 H   0  0  0  0  0  0
    3.9941   10.3482  -22.2943 H   0  0  0  0  0  0
    5.6666   11.9133  -25.0075 H   0  0  0  0  0  0
    7.1972   11.0210  -24.8000 H   0  0  0  0  0  0
    5.2166    9.3392  -21.1578 H   0  0  0  0  0  0
    6.8642    8.6540  -20.9968 H   0  0  0  0  0  0
    5.8272    6.6625  -21.5125 H   0  0  0  0  0  0
    6.0129    7.2110  -23.1509 H   0  0  0  0  0  0
  1  2  2  0  0  0
  1  3  1  0  0  0
  1 34  1  0  0  0
  2  6  1  0  0  0
  2 35  1  0  0  0
  3  5  2  0  0  0
  3 27  1  0  0  0
  4  5  1  0  0  0
  4  6  2  0  0  0
  4 18  1  0  0  0
  5 24  1  0  0  0
  6 10  1  0  0  0
  7 10  2  0  0  0
  7 23  1  0  0  0
  7 33  1  0  0  0
  8 21  1  0  0  0
  8 22  1  0  0  0
  8 36  1  0  0  0
  8 37  1  0  0  0
  9 21  1  0  0  0
  9 31  1  0  0  0
  9 38  1  0  0  0
  9 39  1  0  0  0
 10 40  1  0  0  0
 11 12  1  0  0  0
 11 14  2  0  0  0
 11 15  1  0  0  0
 12 17  1  0  0  0
 12 28  2  0  0  0
 13 28  1  0  0  0
 13 29  2  0  0  0
 13 59  1  0  0  0
 14 29  1  0  0  0
 14 31  1  0  0  0
 15 30  2  0  0  0
 15 41  1  0  0  0
 16 17  2  0  0  0
 16 18  1  0  0  0
 16 30  1  0  0  0
 17 26  1  0  0  0
 18 23  2  0  0  0
 19 20  1  0  0  0
 19 31  1  0  0  0
 19 42  1  0  0  0
 19 43  1  0  0  0
 20 22  1  0  0  0
 20 32  1  0  0  0
 20 44  1  0  0  0
 21 32  1  0  0  0
 21 45  1  0  0  0
 22 46  1  0  0  0
 22 47  1  0  0  0
 23 48  1  0  0  0
 24 25  3  0  0  0
 25 49  1  0  0  0
 32 50  1  0  0  0
 33 51  1  0  0  0
 52 59  2  0  0  0
 53 56  1  0  0  0
 53 57  2  0  0  0
 53 60  1  0  0  0
 54 57  1  0  0  0
 54 61  1  0  0  0
 54 62  1  0  0  0
 55 57  1  0  0  0
 55 63  1  0  0  0
 55 64  1  0  0  0
 56 58  1  0  0  0
 56 65  1  0  0  0
 56 66  1  0  0  0
 58 59  1  0  0  0
 58 67  1  0  0  0
 58 68  1  0  0  0
M  CHG  1  53   1
M  END
> <s_m_entry_id>
698

> <s_m_entry_name>
000000540.1

> <s_m_Source_Path>
/Users/zaksoul/Documents/3r_UNI/2nd_SEMESTER/BSC/FRAG_RECON/RESULTS/2

> <s_m_Source_File>
000000540.mol2

> <i_m_Source_File_Index>
1

$$$$
No_0_562
                    3D
 Schrodinger Suite 2022-4.
 68 73  0  0  1  0            999 V2000
   -4.9760    3.6010  -21.9330 C   0  0  0  0  0  0
   -5.2330    3.8220  -23.2650 C   0  0  0  0  0  0
   -3.7450    3.3120  -21.5930 C   0  0  0  0  0  0
   -2.8430    3.4610  -23.7530 C   0  0  0  0  0  0
   -2.6930    3.1850  -22.3370 C   0  0  0  0  0  0
   -4.1830    3.7650  -24.2730 C   0  0  0  0  0  0
   -3.4190    3.8130  -26.4680 C   0  0  0  0  0  0
    6.2710    2.7500  -21.1870 C   0  0  0  0  0  0
    6.1450    2.9460  -23.7340 C   0  0  0  0  0  0
   -4.4260    3.9240  -25.6060 C   0  0  0  0  0  0
    2.3740    3.5810  -23.7520 C   0  0  0  0  0  0
    1.5780    4.7020  -23.4340 C   0  0  0  0  0  0
    3.4010    5.8420  -22.7240 C   0  0  0  0  0  0
    3.7770    3.7330  -23.4310 C   0  0  0  0  0  0
    1.8050    2.4900  -24.4370 C   0  0  0  0  0  0
   -0.3040    3.3500  -24.3170 C   0  0  0  0  0  0
    0.2490    4.5460  -23.6920 C   0  0  0  0  0  0
   -1.7550    3.3970  -24.6760 C   0  0  0  0  0  0
    4.3240    1.2170  -23.1870 C   0  0  0  0  0  0
    5.2450    0.8170  -22.0450 C   0  0  2  0  0  0
    6.8750    2.3310  -22.5460 C   0  0  2  0  0  0
    5.2460    1.7950  -20.8580 C   0  0  0  0  0  0
   -2.0720    3.5920  -26.1010 C   0  0  0  0  0  0
   -1.3610    2.7290  -21.7430 C   0  0  0  0  0  0
   -0.3410    2.3470  -21.2410 C   0  0  0  0  0  0
   -0.5700    5.6030  -23.3300 F   0  0  0  0  0  0
   -3.5450    3.0380  -20.2150 F   0  0  0  0  0  0
    2.0800    5.8390  -22.8780 N   0  0  0  0  0  0
    4.2750    4.8640  -22.9610 N   0  0  0  0  0  0
    0.4980    2.4370  -24.7480 N   0  0  0  0  0  0
    4.6720    2.6680  -23.6260 N   0  0  0  0  0  0
    6.6550    0.8610  -22.5210 N   0  0  1  0  0  0
   -3.5870    3.8590  -27.8570 O   0  0  0  0  0  0
   -5.7787    3.6682  -21.2076 H   0  0  0  0  0  0
   -6.2417    4.0468  -23.5922 H   0  0  0  0  0  0
    5.8237    3.7507  -21.2789 H   0  0  0  0  0  0
    7.0552    2.7268  -20.4159 H   0  0  0  0  0  0
    6.5324    2.5112  -24.6672 H   0  0  0  0  0  0
    6.3135    4.0330  -23.7451 H   0  0  0  0  0  0
   -5.4303    4.1397  -25.9522 H   0  0  0  0  0  0
    2.4256    1.6524  -24.7343 H   0  0  0  0  0  0
    3.2790    1.1776  -22.8457 H   0  0  0  0  0  0
    4.4733    0.5319  -24.0345 H   0  0  0  0  0  0
    4.9968   -0.1969  -21.6980 H   0  0  0  0  0  0
    7.9494    2.5640  -22.5833 H   0  0  0  0  0  0
    4.2741    2.3077  -20.8075 H   0  0  0  0  0  0
    5.5316    1.2561  -19.9426 H   0  0  0  0  0  0
   -1.3007    3.5699  -26.8623 H   0  0  0  0  0  0
    0.5575    2.0112  -20.7993 H   0  0  0  0  0  0
    7.2884    0.3346  -21.8223 H   0  0  0  0  0  0
   -2.7433    3.7601  -28.2823 H   0  0  0  0  0  0
    3.2100    7.9530  -21.7630 O   0  0  0  0  0  0
    6.1850    9.6180  -22.8390 N   0  3  0  0  0  0
    4.0620   10.6780  -22.5370 N   0  0  0  0  0  0
    5.5060   11.3580  -24.2230 N   0  0  0  0  0  0
    6.0250    8.6410  -21.7650 C   0  0  0  0  0  0
    5.2450   10.5370  -23.1810 C   0  0  0  0  0  0
    5.4830    7.3130  -22.3370 C   0  0  0  0  0  0
    3.9830    7.1460  -22.2330 C   0  0  0  0  0  0
    7.0791    9.5800  -23.3490 H   0  0  0  0  0  0
    3.3901   11.3949  -22.8460 H   0  0  0  0  0  0
    3.8350   10.0679  -21.7388 H   0  0  0  0  0  0
    4.8134   12.0656  -24.5068 H   0  0  0  0  0  0
    6.3972   11.2770  -24.7331 H   0  0  0  0  0  0
    5.3200    9.0310  -21.0160 H   0  0  0  0  0  0
    6.9979    8.4620  -21.2840 H   0  0  0  0  0  0
    5.9793    6.4695  -21.8347 H   0  0  0  0  0  0
    5.7870    7.2190  -23.3900 H   0  0  0  0  0  0
  1  2  2  0  0  0
  1  3  1  0  0  0
  1 34  1  0  0  0
  2  6  1  0  0  0
  2 35  1  0  0  0
  3  5  2  0  0  0
  3 27  1  0  0  0
  4  5  1  0  0  0
  4  6  2  0  0  0
  4 18  1  0  0  0
  5 24  1  0  0  0
  6 10  1  0  0  0
  7 10  2  0  0  0
  7 23  1  0  0  0
  7 33  1  0  0  0
  8 21  1  0  0  0
  8 22  1  0  0  0
  8 36  1  0  0  0
  8 37  1  0  0  0
  9 21  1  0  0  0
  9 31  1  0  0  0
  9 38  1  0  0  0
  9 39  1  0  0  0
 10 40  1  0  0  0
 11 12  1  0  0  0
 11 14  2  0  0  0
 11 15  1  0  0  0
 12 17  1  0  0  0
 12 28  2  0  0  0
 13 28  1  0  0  0
 13 29  2  0  0  0
 13 59  1  0  0  0
 14 29  1  0  0  0
 14 31  1  0  0  0
 15 30  2  0  0  0
 15 41  1  0  0  0
 16 17  2  0  0  0
 16 18  1  0  0  0
 16 30  1  0  0  0
 17 26  1  0  0  0
 18 23  2  0  0  0
 19 20  1  0  0  0
 19 31  1  0  0  0
 19 42  1  0  0  0
 19 43  1  0  0  0
 20 22  1  0  0  0
 20 32  1  0  0  0
 20 44  1  0  0  0
 21 32  1  0  0  0
 21 45  1  0  0  0
 22 46  1  0  0  0
 22 47  1  0  0  0
 23 48  1  0  0  0
 24 25  3  0  0  0
 25 49  1  0  0  0
 32 50  1  0  0  0
 33 51  1  0  0  0
 52 59  2  0  0  0
 53 56  1  0  0  0
 53 57  2  0  0  0
 53 60  1  0  0  0
 54 57  1  0  0  0
 54 61  1  0  0  0
 54 62  1  0  0  0
 55 57  1  0  0  0
 55 63  1  0  0  0
 55 64  1  0  0  0
 56 58  1  0  0  0
 56 65  1  0  0  0
 56 66  1  0  0  0
 58 59  1  0  0  0
 58 67  1  0  0  0
 58 68  1  0  0  0
M  CHG  1  53   1
M  END
> <s_m_entry_id>
699

> <s_m_entry_name>
000000541.1

> <s_m_Source_Path>
/Users/zaksoul/Documents/3r_UNI/2nd_SEMESTER/BSC/FRAG_RECON/RESULTS/2

> <s_m_Source_File>
000000541.mol2

> <i_m_Source_File_Index>
1

$$$$
No_0_563
                    3D
 Schrodinger Suite 2022-4.
 68 73  0  0  1  0            999 V2000
   -5.0150    3.7370  -21.9630 C   0  0  0  0  0  0
   -5.2740    3.9360  -23.2980 C   0  0  0  0  0  0
   -3.7810    3.4660  -21.6200 C   0  0  0  0  0  0
   -2.8810    3.5930  -23.7820 C   0  0  0  0  0  0
   -2.7280    3.3390  -22.3620 C   0  0  0  0  0  0
   -4.2240    3.8760  -24.3060 C   0  0  0  0  0  0
   -3.4620    3.9000  -26.5020 C   0  0  0  0  0  0
    6.2410    3.0160  -21.2110 C   0  0  0  0  0  0
    6.1120    3.1740  -23.7600 C   0  0  0  0  0  0
   -4.4690    4.0130  -25.6410 C   0  0  0  0  0  0
    2.3350    3.7690  -23.7850 C   0  0  0  0  0  0
    1.5270    4.8860  -23.4830 C   0  0  0  0  0  0
    3.3370    6.0560  -22.7910 C   0  0  0  0  0  0
    3.7360    3.9410  -23.4670 C   0  0  0  0  0  0
    1.7770    2.6630  -24.4540 C   0  0  0  0  0  0
   -0.3410    3.5020  -24.3460 C   0  0  0  0  0  0
    0.1990    4.7120  -23.7390 C   0  0  0  0  0  0
   -1.7920    3.5280  -24.7050 C   0  0  0  0  0  0
    4.3100    1.4340  -23.1870 C   0  0  0  0  0  0
    5.2360    1.0600  -22.0400 C   0  0  2  0  0  0
    6.8490    2.5840  -22.5630 C   0  0  2  0  0  0
    5.2270    2.0560  -20.8670 C   0  0  0  0  0  0
   -2.1110    3.6990  -26.1330 C   0  0  0  0  0  0
   -1.3910    2.9060  -21.7620 C   0  0  0  0  0  0
   -0.3660    2.5430  -21.2550 C   0  0  0  0  0  0
   -0.6310    5.7650  -23.3910 F   0  0  0  0  0  0
   -3.5780    3.2140  -20.2390 F   0  0  0  0  0  0
    2.0160    6.0360  -22.9430 N   0  0  0  0  0  0
    4.2220    5.0830  -23.0140 N   0  0  0  0  0  0
    0.4700    2.5910  -24.7640 N   0  0  0  0  0  0
    4.6420    2.8830  -23.6470 N   0  0  0  0  0  0
    6.6450    1.1130  -22.5170 N   0  0  1  0  0  0
   -3.6300    3.9240  -27.8920 O   0  0  0  0  0  0
   -5.8181    3.8053  -21.2382 H   0  0  0  0  0  0
   -6.2850    4.1456  -23.6280 H   0  0  0  0  0  0
    5.7830    4.0106  -21.3159 H   0  0  0  0  0  0
    7.0248    3.0130  -20.4393 H   0  0  0  0  0  0
    6.5038    2.7297  -24.6869 H   0  0  0  0  0  0
    6.2684    4.2625  -23.7862 H   0  0  0  0  0  0
   -5.4760    4.2126  -25.9890 H   0  0  0  0  0  0
    2.4060    1.8274  -24.7389 H   0  0  0  0  0  0
    3.2655    1.3886  -22.8449 H   0  0  0  0  0  0
    4.4665    0.7385  -24.0248 H   0  0  0  0  0  0
    4.9977    0.0492  -21.6775 H   0  0  0  0  0  0
    7.9207    2.8282  -22.6044 H   0  0  0  0  0  0
    4.2494    2.5584  -20.8236 H   0  0  0  0  0  0
    5.5176    1.5333  -19.9438 H   0  0  0  0  0  0
   -1.3397    3.6739  -26.8943 H   0  0  0  0  0  0
    0.5361    2.2230  -20.8090 H   0  0  0  0  0  0
    7.2836    0.6028  -21.8111 H   0  0  0  0  0  0
   -2.7850    3.8280  -28.3155 H   0  0  0  0  0  0
    3.3420    8.3800  -22.6870 O   0  0  0  0  0  0
    6.7030    9.1540  -21.7460 N   0  3  0  0  0  0
    5.3560   10.4830  -23.2080 N   0  0  0  0  0  0
    7.6460   10.2960  -23.5390 N   0  0  0  0  0  0
    5.6060    8.6880  -20.9040 C   0  0  0  0  0  0
    6.5490    9.9720  -22.8200 C   0  0  0  0  0  0
    5.1060    7.3140  -21.4000 C   0  0  0  0  0  0
    3.9060    7.3720  -22.3180 C   0  0  0  0  0  0
    7.6419    8.8220  -21.4830 H   0  0  0  0  0  0
    5.3040   11.0989  -24.0319 H   0  0  0  0  0  0
    4.5015   10.2559  -22.6797 H   0  0  0  0  0  0
    7.5620   10.9139  -24.3588 H   0  0  0  0  0  0
    8.5675    9.9232  -23.2692 H   0  0  0  0  0  0
    4.7803    9.4137  -20.9430 H   0  0  0  0  0  0
    5.9539    8.5980  -19.8643 H   0  0  0  0  0  0
    4.8719    6.6778  -20.5337 H   0  0  0  0  0  0
    5.9290    6.7900  -21.9080 H   0  0  0  0  0  0
  1  2  2  0  0  0
  1  3  1  0  0  0
  1 34  1  0  0  0
  2  6  1  0  0  0
  2 35  1  0  0  0
  3  5  2  0  0  0
  3 27  1  0  0  0
  4  5  1  0  0  0
  4  6  2  0  0  0
  4 18  1  0  0  0
  5 24  1  0  0  0
  6 10  1  0  0  0
  7 10  2  0  0  0
  7 23  1  0  0  0
  7 33  1  0  0  0
  8 21  1  0  0  0
  8 22  1  0  0  0
  8 36  1  0  0  0
  8 37  1  0  0  0
  9 21  1  0  0  0
  9 31  1  0  0  0
  9 38  1  0  0  0
  9 39  1  0  0  0
 10 40  1  0  0  0
 11 12  1  0  0  0
 11 14  2  0  0  0
 11 15  1  0  0  0
 12 17  1  0  0  0
 12 28  2  0  0  0
 13 28  1  0  0  0
 13 29  2  0  0  0
 13 59  1  0  0  0
 14 29  1  0  0  0
 14 31  1  0  0  0
 15 30  2  0  0  0
 15 41  1  0  0  0
 16 17  2  0  0  0
 16 18  1  0  0  0
 16 30  1  0  0  0
 17 26  1  0  0  0
 18 23  2  0  0  0
 19 20  1  0  0  0
 19 31  1  0  0  0
 19 42  1  0  0  0
 19 43  1  0  0  0
 20 22  1  0  0  0
 20 32  1  0  0  0
 20 44  1  0  0  0
 21 32  1  0  0  0
 21 45  1  0  0  0
 22 46  1  0  0  0
 22 47  1  0  0  0
 23 48  1  0  0  0
 24 25  3  0  0  0
 25 49  1  0  0  0
 32 50  1  0  0  0
 33 51  1  0  0  0
 52 59  2  0  0  0
 53 56  1  0  0  0
 53 57  2  0  0  0
 53 60  1  0  0  0
 54 57  1  0  0  0
 54 61  1  0  0  0
 54 62  1  0  0  0
 55 57  1  0  0  0
 55 63  1  0  0  0
 55 64  1  0  0  0
 56 58  1  0  0  0
 56 65  1  0  0  0
 56 66  1  0  0  0
 58 59  1  0  0  0
 58 67  1  0  0  0
 58 68  1  0  0  0
M  CHG  1  53   1
M  END
> <s_m_entry_id>
700

> <s_m_entry_name>
000000542.1

> <s_m_Source_Path>
/Users/zaksoul/Documents/3r_UNI/2nd_SEMESTER/BSC/FRAG_RECON/RESULTS/2

> <s_m_Source_File>
000000542.mol2

> <i_m_Source_File_Index>
1

$$$$
No_0_564
                    3D
 Schrodinger Suite 2022-4.
 68 73  0  0  1  0            999 V2000
   -4.9570    3.6880  -21.9760 C   0  0  0  0  0  0
   -5.2290    3.8820  -23.3090 C   0  0  0  0  0  0
   -3.7180    3.4310  -21.6410 C   0  0  0  0  0  0
   -2.8360    3.5630  -23.8090 C   0  0  0  0  0  0
   -2.6700    3.3130  -22.3900 C   0  0  0  0  0  0
   -4.1850    3.8300  -24.3240 C   0  0  0  0  0  0
   -3.4380    3.8580  -26.5250 C   0  0  0  0  0  0
    6.3100    3.0830  -21.3020 C   0  0  0  0  0  0
    6.1620    3.2340  -23.8500 C   0  0  0  0  0  0
   -4.4410    3.9630  -25.6580 C   0  0  0  0  0  0
    2.3780    3.7910  -23.8500 C   0  0  0  0  0  0
    1.5610    4.9000  -23.5440 C   0  0  0  0  0  0
    3.3650    6.0900  -22.8670 C   0  0  0  0  0  0
    3.7800    3.9780  -23.5420 C   0  0  0  0  0  0
    1.8270    2.6780  -24.5130 C   0  0  0  0  0  0
   -0.2980    3.4950  -24.3910 C   0  0  0  0  0  0
    0.2340    4.7120  -23.7900 C   0  0  0  0  0  0
   -1.7530    3.5060  -24.7400 C   0  0  0  0  0  0
    4.3810    1.4770  -23.2620 C   0  0  0  0  0  0
    5.3190    1.1150  -22.1200 C   0  0  2  0  0  0
    6.9130    2.6540  -22.6580 C   0  0  2  0  0  0
    5.3080    2.1130  -20.9490 C   0  0  0  0  0  0
   -2.0840    3.6710  -26.1660 C   0  0  0  0  0  0
   -1.3240    2.8940  -21.7990 C   0  0  0  0  0  0
   -0.2920    2.5420  -21.2990 C   0  0  0  0  0  0
   -0.6040    5.7580  -23.4380 F   0  0  0  0  0  0
   -3.5030    3.1830  -20.2600 F   0  0  0  0  0  0
    2.0430    6.0560  -23.0100 N   0  0  0  0  0  0
    4.2580    5.1260  -23.0940 N   0  0  0  0  0  0
    0.5190    2.5920  -24.8140 N   0  0  0  0  0  0
    4.6950    2.9280  -23.7270 N   0  0  0  0  0  0
    6.7240    1.1810  -22.6080 N   0  0  1  0  0  0
   -3.6170    3.8780  -27.9140 O   0  0  0  0  0  0
   -5.7556    3.7502  -21.2456 H   0  0  0  0  0  0
   -6.2443    4.0809  -23.6324 H   0  0  0  0  0  0
    5.8414    4.0727  -21.4060 H   0  0  0  0  0  0
    7.0998    3.0891  -20.5364 H   0  0  0  0  0  0
    6.5514    2.7922  -24.7791 H   0  0  0  0  0  0
    6.3072    4.3240  -23.8802 H   0  0  0  0  0  0
   -5.4525    4.1516  -25.9992 H   0  0  0  0  0  0
    2.4622    1.8481  -24.8010 H   0  0  0  0  0  0
    3.3396    1.4225  -22.9119 H   0  0  0  0  0  0
    4.5384    0.7816  -24.0997 H   0  0  0  0  0  0
    5.0938    0.1022  -21.7545 H   0  0  0  0  0  0
    7.9818    2.9093  -22.7085 H   0  0  0  0  0  0
    4.3257    2.6057  -20.9005 H   0  0  0  0  0  0
    5.6108    1.5942  -20.0275 H   0  0  0  0  0  0
   -1.3171    3.6529  -26.9319 H   0  0  0  0  0  0
    0.6165    2.2332  -20.8582 H   0  0  0  0  0  0
    7.3735    0.6792  -21.9061 H   0  0  0  0  0  0
   -2.7741    3.7900  -28.3433 H   0  0  0  0  0  0
    3.2100    8.3860  -22.5220 O   0  0  0  0  0  0
    6.6260    9.4150  -22.3000 N   0  3  0  0  0  0
    4.8700   10.7190  -23.2660 N   0  0  0  0  0  0
    7.0240   10.7930  -24.1300 N   0  0  0  0  0  0
    5.8010    8.7710  -21.2820 C   0  0  0  0  0  0
    6.1570   10.3010  -23.2170 C   0  0  0  0  0  0
    5.3080    7.4000  -21.7930 C   0  0  0  0  0  0
    3.9240    7.4130  -22.4010 C   0  0  0  0  0  0
    7.6237    9.1591  -22.2950 H   0  0  0  0  0  0
    4.5750   11.3929  -23.9869 H   0  0  0  0  0  0
    4.1858   10.3619  -22.5838 H   0  0  0  0  0  0
    6.6979   11.4661  -24.8381 H   0  0  0  0  0  0
    8.0098   10.4948  -24.1180 H   0  0  0  0  0  0
    4.9346    9.4096  -21.0551 H   0  0  0  0  0  0
    6.3924    8.6299  -20.3653 H   0  0  0  0  0  0
    5.3370    6.6730  -20.9680 H   0  0  0  0  0  0
    6.0251    7.0059  -22.5281 H   0  0  0  0  0  0
  1  2  2  0  0  0
  1  3  1  0  0  0
  1 34  1  0  0  0
  2  6  1  0  0  0
  2 35  1  0  0  0
  3  5  2  0  0  0
  3 27  1  0  0  0
  4  5  1  0  0  0
  4  6  2  0  0  0
  4 18  1  0  0  0
  5 24  1  0  0  0
  6 10  1  0  0  0
  7 10  2  0  0  0
  7 23  1  0  0  0
  7 33  1  0  0  0
  8 21  1  0  0  0
  8 22  1  0  0  0
  8 36  1  0  0  0
  8 37  1  0  0  0
  9 21  1  0  0  0
  9 31  1  0  0  0
  9 38  1  0  0  0
  9 39  1  0  0  0
 10 40  1  0  0  0
 11 12  1  0  0  0
 11 14  2  0  0  0
 11 15  1  0  0  0
 12 17  1  0  0  0
 12 28  2  0  0  0
 13 28  1  0  0  0
 13 29  2  0  0  0
 13 59  1  0  0  0
 14 29  1  0  0  0
 14 31  1  0  0  0
 15 30  2  0  0  0
 15 41  1  0  0  0
 16 17  2  0  0  0
 16 18  1  0  0  0
 16 30  1  0  0  0
 17 26  1  0  0  0
 18 23  2  0  0  0
 19 20  1  0  0  0
 19 31  1  0  0  0
 19 42  1  0  0  0
 19 43  1  0  0  0
 20 22  1  0  0  0
 20 32  1  0  0  0
 20 44  1  0  0  0
 21 32  1  0  0  0
 21 45  1  0  0  0
 22 46  1  0  0  0
 22 47  1  0  0  0
 23 48  1  0  0  0
 24 25  3  0  0  0
 25 49  1  0  0  0
 32 50  1  0  0  0
 33 51  1  0  0  0
 52 59  2  0  0  0
 53 56  1  0  0  0
 53 57  2  0  0  0
 53 60  1  0  0  0
 54 57  1  0  0  0
 54 61  1  0  0  0
 54 62  1  0  0  0
 55 57  1  0  0  0
 55 63  1  0  0  0
 55 64  1  0  0  0
 56 58  1  0  0  0
 56 65  1  0  0  0
 56 66  1  0  0  0
 58 59  1  0  0  0
 58 67  1  0  0  0
 58 68  1  0  0  0
M  CHG  1  53   1
M  END
> <s_m_entry_id>
701

> <s_m_entry_name>
000000543.1

> <s_m_Source_Path>
/Users/zaksoul/Documents/3r_UNI/2nd_SEMESTER/BSC/FRAG_RECON/RESULTS/2

> <s_m_Source_File>
000000543.mol2

> <i_m_Source_File_Index>
1

$$$$
No_0_565
                    3D
 Schrodinger Suite 2022-4.
 68 73  0  0  1  0            999 V2000
   -4.9280    3.5930  -22.0230 C   0  0  0  0  0  0
   -5.2030    3.7820  -23.3560 C   0  0  0  0  0  0
   -3.6900    3.3290  -21.6910 C   0  0  0  0  0  0
   -2.8140    3.4440  -23.8630 C   0  0  0  0  0  0
   -2.6450    3.2000  -22.4430 C   0  0  0  0  0  0
   -4.1620    3.7190  -24.3740 C   0  0  0  0  0  0
   -3.4240    3.7310  -26.5780 C   0  0  0  0  0  0
    6.3370    2.9140  -21.3840 C   0  0  0  0  0  0
    6.1810    3.0550  -23.9320 C   0  0  0  0  0  0
   -4.4220    3.8470  -25.7080 C   0  0  0  0  0  0
    2.4020    3.6370  -23.9220 C   0  0  0  0  0  0
    1.5930    4.7530  -23.6180 C   0  0  0  0  0  0
    3.4070    5.9340  -22.9530 C   0  0  0  0  0  0
    3.8060    3.8160  -23.6200 C   0  0  0  0  0  0
    1.8400    2.5240  -24.5780 C   0  0  0  0  0  0
   -0.2790    3.3570  -24.4530 C   0  0  0  0  0  0
    0.2630    4.5730  -23.8590 C   0  0  0  0  0  0
   -1.7340    3.3760  -24.7960 C   0  0  0  0  0  0
    4.3910    1.3130  -23.3290 C   0  0  0  0  0  0
    5.3300    0.9500  -22.1890 C   0  0  2  0  0  0
    6.9330    2.4750  -22.7390 C   0  0  2  0  0  0
    5.3300    1.9520  -21.0230 C   0  0  0  0  0  0
   -2.0690    3.5370  -26.2220 C   0  0  0  0  0  0
   -1.3000    2.7750  -21.8540 C   0  0  0  0  0  0
   -0.2680    2.4190  -21.3560 C   0  0  0  0  0  0
   -0.5660    5.6260  -23.5100 F   0  0  0  0  0  0
   -3.4710    3.0860  -20.3100 F   0  0  0  0  0  0
    2.0840    5.9090  -23.0920 N   0  0  0  0  0  0
    4.2930    4.9630  -23.1790 N   0  0  0  0  0  0
    0.5310    2.4460  -24.8740 N   0  0  0  0  0  0
    4.7130    2.7590  -23.8020 N   0  0  0  0  0  0
    6.7330    1.0030  -22.6820 N   0  0  1  0  0  0
   -3.6060    3.7460  -27.9660 O   0  0  0  0  0  0
   -5.7238    3.6643  -21.2904 H   0  0  0  0  0  0
   -6.2180    3.9858  -23.6773 H   0  0  0  0  0  0
    5.8746    3.9064  -21.4910 H   0  0  0  0  0  0
    7.1288    2.9180  -20.6204 H   0  0  0  0  0  0
    6.5644    2.6061  -24.8602 H   0  0  0  0  0  0
    6.3334    4.1438  -23.9673 H   0  0  0  0  0  0
   -5.4332    4.0406  -26.0471 H   0  0  0  0  0  0
    2.4693    1.6890  -24.8640 H   0  0  0  0  0  0
    3.3504    1.2656  -22.9757 H   0  0  0  0  0  0
    4.5403    0.6129  -24.1642 H   0  0  0  0  0  0
    5.0990   -0.0597  -21.8188 H   0  0  0  0  0  0
    8.0034    2.7224  -22.7945 H   0  0  0  0  0  0
    4.3512    2.4515  -20.9725 H   0  0  0  0  0  0
    5.6318    1.4362  -20.0995 H   0  0  0  0  0  0
   -1.3052    3.5099  -26.9908 H   0  0  0  0  0  0
    0.6395    2.1048  -20.9168 H   0  0  0  0  0  0
    7.3822    0.5003  -21.9804 H   0  0  0  0  0  0
   -2.7657    3.6500  -28.3985 H   0  0  0  0  0  0
    3.2170    8.2000  -22.4610 O   0  0  0  0  0  0
    6.5900    9.3690  -22.6580 N   0  3  0  0  0  0
    4.6670   10.6400  -23.2950 N   0  0  0  0  0  0
    6.6720   10.8550  -24.4450 N   0  0  0  0  0  0
    5.9410    8.6370  -21.5730 C   0  0  0  0  0  0
    5.9630   10.2780  -23.4490 C   0  0  0  0  0  0
    5.4320    7.2730  -22.0870 C   0  0  0  0  0  0
    3.9760    7.2550  -22.4950 C   0  0  0  0  0  0
    7.5872    9.1580  -22.8060 H   0  0  0  0  0  0
    4.2480   11.3361  -23.9281 H   0  0  0  0  0  0
    4.1001   10.2191  -22.5451 H   0  0  0  0  0  0
    6.2247   11.5485  -25.0614 H   0  0  0  0  0  0
    7.6600   10.6010  -24.5870 H   0  0  0  0  0  0
    5.0922    9.2239  -21.1921 H   0  0  0  0  0  0
    6.6609    8.4760  -20.7571 H   0  0  0  0  0  0
    5.6050    6.5069  -21.3169 H   0  0  0  0  0  0
    6.0528    6.9501  -22.9357 H   0  0  0  0  0  0
  1  2  2  0  0  0
  1  3  1  0  0  0
  1 34  1  0  0  0
  2  6  1  0  0  0
  2 35  1  0  0  0
  3  5  2  0  0  0
  3 27  1  0  0  0
  4  5  1  0  0  0
  4  6  2  0  0  0
  4 18  1  0  0  0
  5 24  1  0  0  0
  6 10  1  0  0  0
  7 10  2  0  0  0
  7 23  1  0  0  0
  7 33  1  0  0  0
  8 21  1  0  0  0
  8 22  1  0  0  0
  8 36  1  0  0  0
  8 37  1  0  0  0
  9 21  1  0  0  0
  9 31  1  0  0  0
  9 38  1  0  0  0
  9 39  1  0  0  0
 10 40  1  0  0  0
 11 12  1  0  0  0
 11 14  2  0  0  0
 11 15  1  0  0  0
 12 17  1  0  0  0
 12 28  2  0  0  0
 13 28  1  0  0  0
 13 29  2  0  0  0
 13 59  1  0  0  0
 14 29  1  0  0  0
 14 31  1  0  0  0
 15 30  2  0  0  0
 15 41  1  0  0  0
 16 17  2  0  0  0
 16 18  1  0  0  0
 16 30  1  0  0  0
 17 26  1  0  0  0
 18 23  2  0  0  0
 19 20  1  0  0  0
 19 31  1  0  0  0
 19 42  1  0  0  0
 19 43  1  0  0  0
 20 22  1  0  0  0
 20 32  1  0  0  0
 20 44  1  0  0  0
 21 32  1  0  0  0
 21 45  1  0  0  0
 22 46  1  0  0  0
 22 47  1  0  0  0
 23 48  1  0  0  0
 24 25  3  0  0  0
 25 49  1  0  0  0
 32 50  1  0  0  0
 33 51  1  0  0  0
 52 59  2  0  0  0
 53 56  1  0  0  0
 53 57  2  0  0  0
 53 60  1  0  0  0
 54 57  1  0  0  0
 54 61  1  0  0  0
 54 62  1  0  0  0
 55 57  1  0  0  0
 55 63  1  0  0  0
 55 64  1  0  0  0
 56 58  1  0  0  0
 56 65  1  0  0  0
 56 66  1  0  0  0
 58 59  1  0  0  0
 58 67  1  0  0  0
 58 68  1  0  0  0
M  CHG  1  53   1
M  END
> <s_m_entry_id>
702

> <s_m_entry_name>
000000544.1

> <s_m_Source_Path>
/Users/zaksoul/Documents/3r_UNI/2nd_SEMESTER/BSC/FRAG_RECON/RESULTS/2

> <s_m_Source_File>
000000544.mol2

> <i_m_Source_File_Index>
1

$$$$
No_0_566
                    3D
 Schrodinger Suite 2022-4.
 71 77  0  0  1  0            999 V2000
   -5.0830    3.8450  -21.9480 C   0  0  0  0  0  0
   -5.3400    4.0100  -23.2880 C   0  0  0  0  0  0
   -3.8570    3.5500  -21.5980 C   0  0  0  0  0  0
   -2.9590    3.5820  -23.7640 C   0  0  0  0  0  0
   -2.8100    3.3690  -22.3380 C   0  0  0  0  0  0
   -4.2940    3.8870  -24.2950 C   0  0  0  0  0  0
   -3.5370    3.8190  -26.4910 C   0  0  0  0  0  0
    6.1490    2.8200  -21.1900 C   0  0  0  0  0  0
    6.0180    2.9000  -23.7420 C   0  0  0  0  0  0
   -4.5390    3.9890  -25.6330 C   0  0  0  0  0  0
    2.2600    3.6050  -23.7810 C   0  0  0  0  0  0
    1.4850    4.7540  -23.5130 C   0  0  0  0  0  0
    3.3310    5.8910  -22.8610 C   0  0  0  0  0  0
    3.6660    3.7450  -23.4710 C   0  0  0  0  0  0
    1.6680    2.4940  -24.4140 C   0  0  0  0  0  0
   -0.4240    3.3980  -24.3290 C   0  0  0  0  0  0
    0.1530    4.6110  -23.7610 C   0  0  0  0  0  0
   -1.8750    3.4550  -24.6860 C   0  0  0  0  0  0
    4.1670    1.2330  -23.1120 C   0  0  0  0  0  0
    5.0840    0.8690  -21.9550 C   0  0  2  0  0  0
    6.7410    2.3270  -22.5280 C   0  0  2  0  0  0
    5.1070    1.9000  -20.8140 C   0  0  0  0  0  0
   -2.1920    3.5900  -26.1180 C   0  0  0  0  0  0
   -1.4850    2.9160  -21.7260 C   0  0  0  0  0  0
   -0.4700    2.5390  -21.2090 C   0  0  0  0  0  0
   -0.6450    5.6990  -23.4460 F   0  0  0  0  0  0
   -3.6580    3.3360  -20.2090 F   0  0  0  0  0  0
    2.0100    5.9060  -23.0110 N   0  0  0  0  0  0
    4.1870    4.8870  -23.0540 N   0  0  0  0  0  0
    0.3590    2.4510  -24.7190 N   0  0  0  0  0  0
    4.5400    2.6560  -23.6180 N   0  0  0  0  0  0
    6.4930    0.8650  -22.4360 N   0  0  1  0  0  0
   -3.7080    3.8040  -27.8810 O   0  0  0  0  0  0
   -5.8818    3.9614  -21.2245 H   0  0  0  0  0  0
   -6.3454    4.2378  -23.6231 H   0  0  0  0  0  0
    5.7190    3.8233  -21.3263 H   0  0  0  0  0  0
    6.9343    2.8170  -20.4198 H   0  0  0  0  0  0
    6.3944    2.4157  -24.6551 H   0  0  0  0  0  0
    6.2067    3.9819  -23.8036 H   0  0  0  0  0  0
   -5.5404    4.2067  -25.9862 H   0  0  0  0  0  0
    2.2721    1.6320  -24.6729 H   0  0  0  0  0  0
    3.1226    1.2290  -22.7669 H   0  0  0  0  0  0
    4.3013    0.5072  -23.9276 H   0  0  0  0  0  0
    4.8177   -0.1227  -21.5605 H   0  0  0  0  0  0
    7.8193    2.5380  -22.5795 H   0  0  0  0  0  0
    4.1451    2.4329  -20.7857 H   0  0  0  0  0  0
    5.3857    1.3992  -19.8751 H   0  0  0  0  0  0
   -1.4236    3.5187  -26.8793 H   0  0  0  0  0  0
    0.4235    2.2072  -20.7543 H   0  0  0  0  0  0
    7.1185    0.3593  -21.7153 H   0  0  0  0  0  0
   -2.8673    3.6703  -28.3028 H   0  0  0  0  0  0
    6.4360    9.1060  -22.9250 O   0  0  0  0  0  0
    3.2730    8.2070  -22.5820 O   0  0  0  0  0  0
    6.4150   12.0590  -23.9220 N   0  3  0  0  0  0
    6.1430   10.8080  -24.6940 C   0  0  0  0  0  0
    6.0030   11.5360  -22.5830 C   0  0  0  0  0  0
    5.6510   10.2360  -23.3450 C   0  0  0  0  0  0
    5.3530    7.1630  -21.8910 C   0  0  0  0  0  0
    5.9900    8.5480  -21.6730 C   0  0  0  0  0  0
    3.9390    7.2050  -22.4320 C   0  0  0  0  0  0
    5.7561   12.7658  -24.2089 H   0  0  0  0  0  0
    7.4094   12.2241  -23.9130 H   0  0  0  0  0  0
    7.1188   10.3431  -24.8980 H   0  0  0  0  0  0
    5.2479   10.9990  -25.3041 H   0  0  0  0  0  0
    5.0502   12.0244  -22.3308 H   0  0  0  0  0  0
    6.9281   11.3350  -22.0229 H   0  0  0  0  0  0
    4.5714   10.0251  -23.3440 H   0  0  0  0  0  0
    5.3650    6.6027  -20.9445 H   0  0  0  0  0  0
    5.9860    6.5740  -22.5710 H   0  0  0  0  0  0
    5.2519    9.2221  -21.2139 H   0  0  0  0  0  0
    6.8457    8.4540  -20.9882 H   0  0  0  0  0  0
  1  2  2  0  0  0
  1  3  1  0  0  0
  1 34  1  0  0  0
  2  6  1  0  0  0
  2 35  1  0  0  0
  3  5  2  0  0  0
  3 27  1  0  0  0
  4  5  1  0  0  0
  4  6  2  0  0  0
  4 18  1  0  0  0
  5 24  1  0  0  0
  6 10  1  0  0  0
  7 10  2  0  0  0
  7 23  1  0  0  0
  7 33  1  0  0  0
  8 21  1  0  0  0
  8 22  1  0  0  0
  8 36  1  0  0  0
  8 37  1  0  0  0
  9 21  1  0  0  0
  9 31  1  0  0  0
  9 38  1  0  0  0
  9 39  1  0  0  0
 10 40  1  0  0  0
 11 12  1  0  0  0
 11 14  2  0  0  0
 11 15  1  0  0  0
 12 17  1  0  0  0
 12 28  2  0  0  0
 13 28  1  0  0  0
 13 29  2  0  0  0
 13 60  1  0  0  0
 14 29  1  0  0  0
 14 31  1  0  0  0
 15 30  2  0  0  0
 15 41  1  0  0  0
 16 17  2  0  0  0
 16 18  1  0  0  0
 16 30  1  0  0  0
 17 26  1  0  0  0
 18 23  2  0  0  0
 19 20  1  0  0  0
 19 31  1  0  0  0
 19 42  1  0  0  0
 19 43  1  0  0  0
 20 22  1  0  0  0
 20 32  1  0  0  0
 20 44  1  0  0  0
 21 32  1  0  0  0
 21 45  1  0  0  0
 22 46  1  0  0  0
 22 47  1  0  0  0
 23 48  1  0  0  0
 24 25  3  0  0  0
 25 49  1  0  0  0
 32 50  1  0  0  0
 33 51  1  0  0  0
 52 57  1  0  0  0
 52 59  1  0  0  0
 53 60  2  0  0  0
 54 55  1  0  0  0
 54 56  1  0  0  0
 54 61  1  0  0  0
 54 62  1  0  0  0
 55 57  1  0  0  0
 55 63  1  0  0  0
 55 64  1  0  0  0
 56 57  1  0  0  0
 56 65  1  0  0  0
 56 66  1  0  0  0
 57 67  1  0  0  0
 58 59  1  0  0  0
 58 60  1  0  0  0
 58 68  1  0  0  0
 58 69  1  0  0  0
 59 70  1  0  0  0
 59 71  1  0  0  0
M  CHG  1  54   1
M  END
> <s_m_entry_id>
703

> <s_m_entry_name>
000000545.1

> <s_m_Source_Path>
/Users/zaksoul/Documents/3r_UNI/2nd_SEMESTER/BSC/FRAG_RECON/RESULTS/2

> <s_m_Source_File>
000000545.mol2

> <i_m_Source_File_Index>
1

$$$$
No_0_567
                    3D
 Schrodinger Suite 2022-4.
 72 77  0  0  1  0            999 V2000
   -4.9600    3.7550  -22.0370 C   0  0  0  0  0  0
   -5.2120    3.9780  -23.3710 C   0  0  0  0  0  0
   -3.7260    3.4910  -21.6900 C   0  0  0  0  0  0
   -2.8120    3.6680  -23.8420 C   0  0  0  0  0  0
   -2.6670    3.3890  -22.4260 C   0  0  0  0  0  0
   -4.1530    3.9470  -24.3710 C   0  0  0  0  0  0
   -3.3740    4.0210  -26.5600 C   0  0  0  0  0  0
    6.2960    3.1330  -21.2110 C   0  0  0  0  0  0
    6.1850    3.3390  -23.7570 C   0  0  0  0  0  0
   -4.3900    4.1080  -25.7050 C   0  0  0  0  0  0
    2.4020    3.8960  -23.8010 C   0  0  0  0  0  0
    1.5810    4.9990  -23.4840 C   0  0  0  0  0  0
    3.3740    6.1730  -22.7550 C   0  0  0  0  0  0
    3.8000    4.0760  -23.4690 C   0  0  0  0  0  0
    1.8610    2.7970  -24.4960 C   0  0  0  0  0  0
   -0.2660    3.6130  -24.3880 C   0  0  0  0  0  0
    0.2570    4.8170  -23.7530 C   0  0  0  0  0  0
   -1.7150    3.6310  -24.7570 C   0  0  0  0  0  0
    4.3970    1.5700  -23.2320 C   0  0  0  0  0  0
    5.3170    1.1840  -22.0850 C   0  0  2  0  0  0
    6.9190    2.7330  -22.5660 C   0  0  2  0  0  0
    5.2890    2.1560  -20.8940 C   0  0  0  0  0  0
   -2.0250    3.8270  -26.1840 C   0  0  0  0  0  0
   -1.3300    2.9570  -21.8240 C   0  0  0  0  0  0
   -0.3050    2.5950  -21.3160 C   0  0  0  0  0  0
   -0.5860    5.8550  -23.3920 F   0  0  0  0  0  0
   -3.5310    3.2140  -20.3120 F   0  0  0  0  0  0
    2.0550    6.1430  -22.9190 N   0  0  0  0  0  0
    4.2710    5.2140  -22.9900 N   0  0  0  0  0  0
    0.5570    2.7180  -24.8170 N   0  0  0  0  0  0
    4.7170    3.0300  -23.6620 N   0  0  0  0  0  0
    6.7290    1.2590  -22.5510 N   0  0  1  0  0  0
   -3.5320    4.0710  -27.9500 O   0  0  0  0  0  0
   -5.7701    3.8022  -21.3183 H   0  0  0  0  0  0
   -6.2228    4.1830  -23.7046 H   0  0  0  0  0  0
    5.8288    4.1248  -21.3008 H   0  0  0  0  0  0
    7.0738    3.1229  -20.4332 H   0  0  0  0  0  0
    6.5885    2.9164  -24.6890 H   0  0  0  0  0  0
    6.3314    4.4292  -23.7620 H   0  0  0  0  0  0
   -5.3962    4.3038  -26.0575 H   0  0  0  0  0  0
    2.5009    1.9733  -24.7913 H   0  0  0  0  0  0
    3.3505    1.5074  -22.8990 H   0  0  0  0  0  0
    4.5666    0.8927  -24.0820 H   0  0  0  0  0  0
    5.0869    0.1638  -21.7439 H   0  0  0  0  0  0
    7.9883    2.9892  -22.5953 H   0  0  0  0  0  0
    4.3060    2.6475  -20.8486 H   0  0  0  0  0  0
    5.5786    1.6191  -19.9787 H   0  0  0  0  0  0
   -1.2475    3.8240  -26.9394 H   0  0  0  0  0  0
    0.5967    2.2751  -20.8691 H   0  0  0  0  0  0
    7.3681    0.7428  -21.8499 H   0  0  0  0  0  0
   -2.6830    3.9908  -28.3686 H   0  0  0  0  0  0
    3.3620    8.5030  -22.6010 O   0  0  0  0  0  0
    5.9020    9.7570  -21.9550 N   0  3  0  0  0  0
    7.0410   10.4010  -24.1160 C   0  0  0  0  0  0
    5.6590    8.7620  -20.8500 C   0  0  0  0  0  0
    6.8210    9.3030  -23.0580 C   0  0  0  0  0  0
    3.9260    7.4860  -22.2530 C   0  0  0  0  0  0
    5.1340    7.3980  -21.3490 C   0  0  0  0  0  0
    5.8550   10.4870  -25.0940 C   0  0  0  0  0  0
    6.2559   10.6138  -21.5591 H   0  0  0  0  0  0
    5.0184   10.0359  -22.3518 H   0  0  0  0  0  0
    7.9631   10.1890  -24.6771 H   0  0  0  0  0  0
    7.1740   11.3712  -23.6149 H   0  0  0  0  0  0
    4.9450    9.1850  -20.1280 H   0  0  0  0  0  0
    6.5902    8.6090  -20.2849 H   0  0  0  0  0  0
    6.3989    8.4089  -23.5401 H   0  0  0  0  0  0
    7.7899    9.0090  -22.6281 H   0  0  0  0  0  0
    4.8968    6.7606  -20.4844 H   0  0  0  0  0  0
    5.9427    6.8662  -21.8718 H   0  0  0  0  0  0
    6.0460   11.2790  -25.8330 H   0  0  0  0  0  0
    5.7350    9.5236  -25.6112 H   0  0  0  0  0  0
    4.9363   10.7209  -24.5362 H   0  0  0  0  0  0
  1  2  2  0  0  0
  1  3  1  0  0  0
  1 34  1  0  0  0
  2  6  1  0  0  0
  2 35  1  0  0  0
  3  5  2  0  0  0
  3 27  1  0  0  0
  4  5  1  0  0  0
  4  6  2  0  0  0
  4 18  1  0  0  0
  5 24  1  0  0  0
  6 10  1  0  0  0
  7 10  2  0  0  0
  7 23  1  0  0  0
  7 33  1  0  0  0
  8 21  1  0  0  0
  8 22  1  0  0  0
  8 36  1  0  0  0
  8 37  1  0  0  0
  9 21  1  0  0  0
  9 31  1  0  0  0
  9 38  1  0  0  0
  9 39  1  0  0  0
 10 40  1  0  0  0
 11 12  1  0  0  0
 11 14  2  0  0  0
 11 15  1  0  0  0
 12 17  1  0  0  0
 12 28  2  0  0  0
 13 28  1  0  0  0
 13 29  2  0  0  0
 13 57  1  0  0  0
 14 29  1  0  0  0
 14 31  1  0  0  0
 15 30  2  0  0  0
 15 41  1  0  0  0
 16 17  2  0  0  0
 16 18  1  0  0  0
 16 30  1  0  0  0
 17 26  1  0  0  0
 18 23  2  0  0  0
 19 20  1  0  0  0
 19 31  1  0  0  0
 19 42  1  0  0  0
 19 43  1  0  0  0
 20 22  1  0  0  0
 20 32  1  0  0  0
 20 44  1  0  0  0
 21 32  1  0  0  0
 21 45  1  0  0  0
 22 46  1  0  0  0
 22 47  1  0  0  0
 23 48  1  0  0  0
 24 25  3  0  0  0
 25 49  1  0  0  0
 32 50  1  0  0  0
 33 51  1  0  0  0
 52 57  2  0  0  0
 53 55  1  0  0  0
 53 56  1  0  0  0
 53 60  1  0  0  0
 53 61  1  0  0  0
 54 56  1  0  0  0
 54 59  1  0  0  0
 54 62  1  0  0  0
 54 63  1  0  0  0
 55 58  1  0  0  0
 55 64  1  0  0  0
 55 65  1  0  0  0
 56 66  1  0  0  0
 56 67  1  0  0  0
 57 58  1  0  0  0
 58 68  1  0  0  0
 58 69  1  0  0  0
 59 70  1  0  0  0
 59 71  1  0  0  0
 59 72  1  0  0  0
M  CHG  1  53   1
M  END
> <s_m_entry_id>
704

> <s_m_entry_name>
000000546.1

> <s_m_Source_Path>
/Users/zaksoul/Documents/3r_UNI/2nd_SEMESTER/BSC/FRAG_RECON/RESULTS/2

> <s_m_Source_File>
000000546.mol2

> <i_m_Source_File_Index>
1

$$$$
No_0_568
                    3D
 Schrodinger Suite 2022-4.
 73 79  0  0  1  0            999 V2000
   -5.0330    3.5660  -22.0190 C   0  0  0  0  0  0
   -5.2900    3.7470  -23.3570 C   0  0  0  0  0  0
   -3.7950    3.3230  -21.6670 C   0  0  0  0  0  0
   -2.8880    3.4460  -23.8270 C   0  0  0  0  0  0
   -2.7370    3.2090  -22.4040 C   0  0  0  0  0  0
   -4.2340    3.6970  -24.3590 C   0  0  0  0  0  0
   -3.4620    3.7130  -26.5520 C   0  0  0  0  0  0
    6.2310    3.0720  -21.2090 C   0  0  0  0  0  0
    6.1110    3.2020  -23.7600 C   0  0  0  0  0  0
   -4.4760    3.8160  -25.6970 C   0  0  0  0  0  0
    2.3230    3.7230  -23.8080 C   0  0  0  0  0  0
    1.4920    4.8270  -23.5210 C   0  0  0  0  0  0
    3.2770    6.0390  -22.8330 C   0  0  0  0  0  0
    3.7200    3.9250  -23.4850 C   0  0  0  0  0  0
    1.7900    2.5990  -24.4690 C   0  0  0  0  0  0
   -0.3440    3.3980  -24.3780 C   0  0  0  0  0  0
    0.1700    4.6240  -23.7810 C   0  0  0  0  0  0
   -1.7940    3.3920  -24.7440 C   0  0  0  0  0  0
    4.3410    1.4330  -23.1770 C   0  0  0  0  0  0
    5.2680    1.0890  -22.0220 C   0  0  2  0  0  0
    6.8540    2.6380  -22.5530 C   0  0  2  0  0  0
    5.2340    2.0960  -20.8600 C   0  0  0  0  0  0
   -2.1100    3.5420  -26.1750 C   0  0  0  0  0  0
   -1.3940    2.8080  -21.7930 C   0  0  0  0  0  0
   -0.3650    2.4700  -21.2780 C   0  0  0  0  0  0
   -0.6820    5.6650  -23.4480 F   0  0  0  0  0  0
   -3.5940    3.0890  -20.2820 F   0  0  0  0  0  0
    1.9570    5.9920  -22.9910 N   0  0  0  0  0  0
    4.1810    5.0810  -23.0420 N   0  0  0  0  0  0
    0.4860    2.4990  -24.7830 N   0  0  0  0  0  0
    4.6460    2.8830  -23.6510 N   0  0  0  0  0  0
    6.6780    1.1640  -22.4940 N   0  0  1  0  0  0
   -3.6240    3.7200  -27.9430 O   0  0  0  0  0  0
   -5.8407    3.6272  -21.2986 H   0  0  0  0  0  0
   -6.3034    3.9326  -23.6941 H   0  0  0  0  0  0
    5.7544    4.0565  -21.3261 H   0  0  0  0  0  0
    7.0107    3.0922  -20.4333 H   0  0  0  0  0  0
    6.5157    2.7559  -24.6804 H   0  0  0  0  0  0
    6.2472    4.2929  -23.7963 H   0  0  0  0  0  0
   -5.4851    3.9927  -26.0514 H   0  0  0  0  0  0
    2.4365    1.7728  -24.7420 H   0  0  0  0  0  0
    3.2961    1.3705  -22.8391 H   0  0  0  0  0  0
    4.5136    0.7327  -24.0075 H   0  0  0  0  0  0
    5.0481    0.0772  -21.6508 H   0  0  0  0  0  0
    7.9210    2.9025  -22.5934 H   0  0  0  0  0  0
    4.2466    2.5796  -20.8257 H   0  0  0  0  0  0
    5.5305    1.5887  -19.9301 H   0  0  0  0  0  0
   -1.3341    3.5249  -26.9318 H   0  0  0  0  0  0
    0.5407    2.1721  -20.8241 H   0  0  0  0  0  0
    7.3236    0.6744  -21.7799 H   0  0  0  0  0  0
   -2.7755    3.6358  -28.3618 H   0  0  0  0  0  0
    3.2420    8.3700  -22.7480 O   0  0  0  0  0  0
    6.2460    9.4570  -21.9760 N   0  3  0  0  0  0
    8.4080    8.4730  -21.5550 N   0  0  0  0  0  0
    6.7980   11.1840  -23.3990 C   0  0  0  0  0  0
    8.0070   10.2380  -23.2580 C   0  0  0  0  0  0
    5.0290    7.3520  -21.4620 C   0  0  0  0  0  0
    5.5880   10.4040  -22.8540 C   0  0  0  0  0  0
    7.5560    9.2960  -22.1730 C   0  0  0  0  0  0
    5.4700    8.7430  -20.9700 C   0  0  0  0  0  0
    3.8180    7.3710  -22.3710 C   0  0  0  0  0  0
    9.4025    8.4650  -21.8231 H   0  0  0  0  0  0
    8.0702    7.8454  -20.8114 H   0  0  0  0  0  0
    6.6361   11.4129  -24.4627 H   0  0  0  0  0  0
    6.9629   12.0805  -22.7833 H   0  0  0  0  0  0
    8.8762   10.8111  -22.9029 H   0  0  0  0  0  0
    8.1379    9.6762  -24.1946 H   0  0  0  0  0  0
    4.8232    6.7075  -20.5947 H   0  0  0  0  0  0
    5.8674    6.8648  -21.9813 H   0  0  0  0  0  0
    4.9653   11.0806  -22.2503 H   0  0  0  0  0  0
    5.1098    9.8577  -23.6804 H   0  0  0  0  0  0
    4.5827    9.3362  -20.7039 H   0  0  0  0  0  0
    6.0710    8.6350  -20.0550 H   0  0  0  0  0  0
  1  2  2  0  0  0
  1  3  1  0  0  0
  1 34  1  0  0  0
  2  6  1  0  0  0
  2 35  1  0  0  0
  3  5  2  0  0  0
  3 27  1  0  0  0
  4  5  1  0  0  0
  4  6  2  0  0  0
  4 18  1  0  0  0
  5 24  1  0  0  0
  6 10  1  0  0  0
  7 10  2  0  0  0
  7 23  1  0  0  0
  7 33  1  0  0  0
  8 21  1  0  0  0
  8 22  1  0  0  0
  8 36  1  0  0  0
  8 37  1  0  0  0
  9 21  1  0  0  0
  9 31  1  0  0  0
  9 38  1  0  0  0
  9 39  1  0  0  0
 10 40  1  0  0  0
 11 12  1  0  0  0
 11 14  2  0  0  0
 11 15  1  0  0  0
 12 17  1  0  0  0
 12 28  2  0  0  0
 13 28  1  0  0  0
 13 29  2  0  0  0
 13 61  1  0  0  0
 14 29  1  0  0  0
 14 31  1  0  0  0
 15 30  2  0  0  0
 15 41  1  0  0  0
 16 17  2  0  0  0
 16 18  1  0  0  0
 16 30  1  0  0  0
 17 26  1  0  0  0
 18 23  2  0  0  0
 19 20  1  0  0  0
 19 31  1  0  0  0
 19 42  1  0  0  0
 19 43  1  0  0  0
 20 22  1  0  0  0
 20 32  1  0  0  0
 20 44  1  0  0  0
 21 32  1  0  0  0
 21 45  1  0  0  0
 22 46  1  0  0  0
 22 47  1  0  0  0
 23 48  1  0  0  0
 24 25  3  0  0  0
 25 49  1  0  0  0
 32 50  1  0  0  0
 33 51  1  0  0  0
 52 61  2  0  0  0
 53 58  1  0  0  0
 53 59  2  0  0  0
 53 60  1  0  0  0
 54 59  1  0  0  0
 54 62  1  0  0  0
 54 63  1  0  0  0
 55 56  1  0  0  0
 55 58  1  0  0  0
 55 64  1  0  0  0
 55 65  1  0  0  0
 56 59  1  0  0  0
 56 66  1  0  0  0
 56 67  1  0  0  0
 57 60  1  0  0  0
 57 61  1  0  0  0
 57 68  1  0  0  0
 57 69  1  0  0  0
 58 70  1  0  0  0
 58 71  1  0  0  0
 60 72  1  0  0  0
 60 73  1  0  0  0
M  CHG  1  53   1
M  END
> <s_m_entry_id>
705

> <s_m_entry_name>
000000547.1

> <s_m_Source_Path>
/Users/zaksoul/Documents/3r_UNI/2nd_SEMESTER/BSC/FRAG_RECON/RESULTS/2

> <s_m_Source_File>
000000547.mol2

> <i_m_Source_File_Index>
1

$$$$
No_0_569
                    3D
 Schrodinger Suite 2022-4.
 69 74  0  0  1  0            999 V2000
   -4.9250    3.3900  -21.9570 C   0  0  0  0  0  0
   -5.1880    3.6420  -23.2830 C   0  0  0  0  0  0
   -3.6860    3.1300  -21.6240 C   0  0  0  0  0  0
   -2.7880    3.3700  -23.7770 C   0  0  0  0  0  0
   -2.6300    3.0570  -22.3690 C   0  0  0  0  0  0
   -4.1350    3.6470  -24.2900 C   0  0  0  0  0  0
   -3.3720    3.7820  -26.4810 C   0  0  0  0  0  0
    6.3430    2.8660  -21.2190 C   0  0  0  0  0  0
    6.2130    3.1320  -23.7590 C   0  0  0  0  0  0
   -4.3830    3.8380  -25.6190 C   0  0  0  0  0  0
    2.4240    3.6510  -23.7650 C   0  0  0  0  0  0
    1.5930    4.7370  -23.4150 C   0  0  0  0  0  0
    3.3790    5.9120  -22.6700 C   0  0  0  0  0  0
    3.8210    3.8370  -23.4370 C   0  0  0  0  0  0
    1.8890    2.5640  -24.4820 C   0  0  0  0  0  0
   -0.2450    3.3540  -24.3400 C   0  0  0  0  0  0
    0.2700    4.5470  -23.6800 C   0  0  0  0  0  0
   -1.6970    3.3660  -24.7000 C   0  0  0  0  0  0
    4.4460    1.3330  -23.2650 C   0  0  0  0  0  0
    5.3780    0.9280  -22.1330 C   0  0  2  0  0  0
    6.9610    2.5060  -22.5870 C   0  0  2  0  0  0
    5.3480    1.8710  -20.9190 C   0  0  0  0  0  0
   -2.0180    3.5930  -26.1200 C   0  0  0  0  0  0
   -1.2850    2.6250  -21.7860 C   0  0  0  0  0  0
   -0.2530    2.2610  -21.2940 C   0  0  0  0  0  0
   -0.5820    5.5680  -23.2880 F   0  0  0  0  0  0
   -3.4790    2.8220  -20.2540 F   0  0  0  0  0  0
    2.0590    5.8720  -22.8250 N   0  0  0  0  0  0
    4.2840    4.9680  -22.9330 N   0  0  0  0  0  0
    0.5840    2.4790  -24.7960 N   0  0  0  0  0  0
    4.7480    2.8060  -23.6610 N   0  0  0  0  0  0
    6.7860    1.0300  -22.6060 N   0  0  1  0  0  0
   -3.5400    3.8640  -27.8690 O   0  0  0  0  0  0
   -5.7300    3.4111  -21.2313 H   0  0  0  0  0  0
   -6.2029    3.8448  -23.6052 H   0  0  0  0  0  0
    5.8648    3.8546  -21.2815 H   0  0  0  0  0  0
    7.1262    2.8448  -20.4469 H   0  0  0  0  0  0
    6.6138    2.7363  -24.7039 H   0  0  0  0  0  0
    6.3472    4.2236  -23.7378 H   0  0  0  0  0  0
   -5.3937    4.0319  -25.9596 H   0  0  0  0  0  0
    2.5352    1.7543  -24.8011 H   0  0  0  0  0  0
    3.4024    1.2513  -22.9269 H   0  0  0  0  0  0
    4.6166    0.6779  -24.1320 H   0  0  0  0  0  0
    5.1600   -0.1025  -21.8161 H   0  0  0  0  0  0
    8.0275    2.7736  -22.6173 H   0  0  0  0  0  0
    4.3604    2.3512  -20.8554 H   0  0  0  0  0  0
    5.6487    1.3149  -20.0188 H   0  0  0  0  0  0
   -1.2457    3.6171  -26.8803 H   0  0  0  0  0  0
    0.6553    1.9409  -20.8608 H   0  0  0  0  0  0
    7.4352    0.5028  -21.9226 H   0  0  0  0  0  0
   -2.6932    3.8037  -28.2954 H   0  0  0  0  0  0
    3.3420    8.2350  -22.4600 O   0  0  0  0  0  0
    5.2620    9.6130  -21.6190 N   0  3  0  0  0  0
    6.7300    9.0360  -23.4170 N   0  0  0  0  0  0
    5.1470    7.1390  -21.2570 C   0  0  0  0  0  0
    5.6520    8.5090  -20.7470 C   0  0  0  0  0  0
    5.7790    9.7810  -22.8430 C   0  0  0  0  0  0
    5.2020   10.9320  -23.6360 C   0  0  0  0  0  0
    3.9210    7.2180  -22.1390 C   0  0  0  0  0  0
    4.5616   10.2774  -21.2598 H   0  0  0  0  0  0
    7.0538    9.2578  -24.3693 H   0  0  0  0  0  0
    7.1401    8.2407  -22.9068 H   0  0  0  0  0  0
    4.9360    6.4861  -20.3972 H   0  0  0  0  0  0
    5.9565    6.6317  -21.8023 H   0  0  0  0  0  0
    5.2630    8.6890  -19.7340 H   0  0  0  0  0  0
    6.7480    8.4840  -20.6570 H   0  0  0  0  0  0
    5.6918   10.9810  -24.6197 H   0  0  0  0  0  0
    4.1212   10.7789  -23.7721 H   0  0  0  0  0  0
    5.3740   11.8730  -23.0930 H   0  0  0  0  0  0
  1  2  2  0  0  0
  1  3  1  0  0  0
  1 34  1  0  0  0
  2  6  1  0  0  0
  2 35  1  0  0  0
  3  5  2  0  0  0
  3 27  1  0  0  0
  4  5  1  0  0  0
  4  6  2  0  0  0
  4 18  1  0  0  0
  5 24  1  0  0  0
  6 10  1  0  0  0
  7 10  2  0  0  0
  7 23  1  0  0  0
  7 33  1  0  0  0
  8 21  1  0  0  0
  8 22  1  0  0  0
  8 36  1  0  0  0
  8 37  1  0  0  0
  9 21  1  0  0  0
  9 31  1  0  0  0
  9 38  1  0  0  0
  9 39  1  0  0  0
 10 40  1  0  0  0
 11 12  1  0  0  0
 11 14  2  0  0  0
 11 15  1  0  0  0
 12 17  1  0  0  0
 12 28  2  0  0  0
 13 28  1  0  0  0
 13 29  2  0  0  0
 13 59  1  0  0  0
 14 29  1  0  0  0
 14 31  1  0  0  0
 15 30  2  0  0  0
 15 41  1  0  0  0
 16 17  2  0  0  0
 16 18  1  0  0  0
 16 30  1  0  0  0
 17 26  1  0  0  0
 18 23  2  0  0  0
 19 20  1  0  0  0
 19 31  1  0  0  0
 19 42  1  0  0  0
 19 43  1  0  0  0
 20 22  1  0  0  0
 20 32  1  0  0  0
 20 44  1  0  0  0
 21 32  1  0  0  0
 21 45  1  0  0  0
 22 46  1  0  0  0
 22 47  1  0  0  0
 23 48  1  0  0  0
 24 25  3  0  0  0
 25 49  1  0  0  0
 32 50  1  0  0  0
 33 51  1  0  0  0
 52 59  2  0  0  0
 53 56  1  0  0  0
 53 57  2  0  0  0
 53 60  1  0  0  0
 54 57  1  0  0  0
 54 61  1  0  0  0
 54 62  1  0  0  0
 55 56  1  0  0  0
 55 59  1  0  0  0
 55 63  1  0  0  0
 55 64  1  0  0  0
 56 65  1  0  0  0
 56 66  1  0  0  0
 57 58  1  0  0  0
 58 67  1  0  0  0
 58 68  1  0  0  0
 58 69  1  0  0  0
M  CHG  1  53   1
M  END
> <s_m_entry_id>
706

> <s_m_entry_name>
000000548.1

> <s_m_Source_Path>
/Users/zaksoul/Documents/3r_UNI/2nd_SEMESTER/BSC/FRAG_RECON/RESULTS/2

> <s_m_Source_File>
000000548.mol2

> <i_m_Source_File_Index>
1

$$$$
No_0_570
                    3D
 Schrodinger Suite 2022-4.
 67 72  0  0  1  0            999 V2000
   -4.8850    3.7130  -22.0540 C   0  0  0  0  0  0
   -5.1550    3.9100  -23.3880 C   0  0  0  0  0  0
   -3.6470    3.4540  -21.7190 C   0  0  0  0  0  0
   -2.7620    3.5910  -23.8870 C   0  0  0  0  0  0
   -2.5970    3.3380  -22.4680 C   0  0  0  0  0  0
   -4.1110    3.8600  -24.4020 C   0  0  0  0  0  0
   -3.3630    3.8920  -26.6020 C   0  0  0  0  0  0
    6.3820    3.1030  -21.3750 C   0  0  0  0  0  0
    6.2350    3.2600  -23.9230 C   0  0  0  0  0  0
   -4.3660    3.9950  -25.7360 C   0  0  0  0  0  0
    2.4520    3.8180  -23.9240 C   0  0  0  0  0  0
    1.6350    4.9270  -23.6160 C   0  0  0  0  0  0
    3.4380    6.1140  -22.9350 C   0  0  0  0  0  0
    3.8540    4.0030  -23.6150 C   0  0  0  0  0  0
    1.9000    2.7060  -24.5900 C   0  0  0  0  0  0
   -0.2250    3.5240  -24.4670 C   0  0  0  0  0  0
    0.3070    4.7400  -23.8630 C   0  0  0  0  0  0
   -1.6790    3.5360  -24.8170 C   0  0  0  0  0  0
    4.4540    1.5020  -23.3390 C   0  0  0  0  0  0
    5.3900    1.1380  -22.1970 C   0  0  2  0  0  0
    6.9850    2.6770  -22.7310 C   0  0  2  0  0  0
    5.3790    2.1320  -21.0250 C   0  0  0  0  0  0
   -2.0090    3.7040  -26.2420 C   0  0  0  0  0  0
   -1.2520    2.9180  -21.8770 C   0  0  0  0  0  0
   -0.2210    2.5640  -21.3760 C   0  0  0  0  0  0
   -0.5310    5.7850  -23.5100 F   0  0  0  0  0  0
   -3.4320    3.2040  -20.3390 F   0  0  0  0  0  0
    2.1160    6.0810  -23.0790 N   0  0  0  0  0  0
    4.3310    5.1500  -23.1640 N   0  0  0  0  0  0
    0.5930    2.6210  -24.8910 N   0  0  0  0  0  0
    4.7680    2.9540  -23.8010 N   0  0  0  0  0  0
    6.7960    1.2040  -22.6840 N   0  0  1  0  0  0
   -3.5410    3.9150  -27.9910 O   0  0  0  0  0  0
   -5.6846    3.7742  -21.3246 H   0  0  0  0  0  0
   -6.1705    4.1087  -23.7111 H   0  0  0  0  0  0
    5.9137    4.0931  -21.4769 H   0  0  0  0  0  0
    7.1708    3.1070  -20.6084 H   0  0  0  0  0  0
    6.6247    2.8199  -24.8528 H   0  0  0  0  0  0
    6.3803    4.3500  -23.9503 H   0  0  0  0  0  0
   -5.3773    4.1846  -26.0771 H   0  0  0  0  0  0
    2.5363    1.8770  -24.8780 H   0  0  0  0  0  0
    3.4123    1.4465  -22.9901 H   0  0  0  0  0  0
    4.6115    0.8083  -24.1781 H   0  0  0  0  0  0
    5.1651    0.1243  -21.8339 H   0  0  0  0  0  0
    8.0539    2.9321  -22.7794 H   0  0  0  0  0  0
    4.3972    2.6254  -20.9745 H   0  0  0  0  0  0
    5.6807    1.6123  -20.1037 H   0  0  0  0  0  0
   -1.2421    3.6869  -27.0079 H   0  0  0  0  0  0
    0.6871    2.2530  -20.9359 H   0  0  0  0  0  0
    7.4442    0.7002  -21.9823 H   0  0  0  0  0  0
   -2.6981    3.8270  -28.4203 H   0  0  0  0  0  0
    3.2260    8.3490  -22.2590 O   0  0  0  0  0  0
    5.8460    8.9380  -22.0920 O   0  0  0  0  0  0
    7.3170    9.0450  -24.7320 N   0  3  0  0  0  0
    7.2590    9.1780  -22.2260 C   0  0  0  0  0  0
    5.4950    7.5660  -22.3430 C   0  0  0  0  0  0
    7.5840    9.9150  -23.5380 C   0  0  0  0  0  0
    3.9970    7.4360  -22.4660 C   0  0  0  0  0  0
    7.5378    9.5526  -25.5744 H   0  0  0  0  0  0
    7.8892    8.2168  -24.6800 H   0  0  0  0  0  0
    6.3443    8.7811  -24.7460 H   0  0  0  0  0  0
    7.7971    8.2189  -22.2020 H   0  0  0  0  0  0
    7.6111    9.7762  -21.3727 H   0  0  0  0  0  0
    5.8498    6.9394  -21.5115 H   0  0  0  0  0  0
    5.9700    7.2310  -23.2769 H   0  0  0  0  0  0
    6.9741   10.8279  -23.6060 H   0  0  0  0  0  0
    8.6411   10.2190  -23.5350 H   0  0  0  0  0  0
  1  2  2  0  0  0
  1  3  1  0  0  0
  1 34  1  0  0  0
  2  6  1  0  0  0
  2 35  1  0  0  0
  3  5  2  0  0  0
  3 27  1  0  0  0
  4  5  1  0  0  0
  4  6  2  0  0  0
  4 18  1  0  0  0
  5 24  1  0  0  0
  6 10  1  0  0  0
  7 10  2  0  0  0
  7 23  1  0  0  0
  7 33  1  0  0  0
  8 21  1  0  0  0
  8 22  1  0  0  0
  8 36  1  0  0  0
  8 37  1  0  0  0
  9 21  1  0  0  0
  9 31  1  0  0  0
  9 38  1  0  0  0
  9 39  1  0  0  0
 10 40  1  0  0  0
 11 12  1  0  0  0
 11 14  2  0  0  0
 11 15  1  0  0  0
 12 17  1  0  0  0
 12 28  2  0  0  0
 13 28  1  0  0  0
 13 29  2  0  0  0
 13 58  1  0  0  0
 14 29  1  0  0  0
 14 31  1  0  0  0
 15 30  2  0  0  0
 15 41  1  0  0  0
 16 17  2  0  0  0
 16 18  1  0  0  0
 16 30  1  0  0  0
 17 26  1  0  0  0
 18 23  2  0  0  0
 19 20  1  0  0  0
 19 31  1  0  0  0
 19 42  1  0  0  0
 19 43  1  0  0  0
 20 22  1  0  0  0
 20 32  1  0  0  0
 20 44  1  0  0  0
 21 32  1  0  0  0
 21 45  1  0  0  0
 22 46  1  0  0  0
 22 47  1  0  0  0
 23 48  1  0  0  0
 24 25  3  0  0  0
 25 49  1  0  0  0
 32 50  1  0  0  0
 33 51  1  0  0  0
 52 58  2  0  0  0
 53 55  1  0  0  0
 53 56  1  0  0  0
 54 57  1  0  0  0
 54 59  1  0  0  0
 54 60  1  0  0  0
 54 61  1  0  0  0
 55 57  1  0  0  0
 55 62  1  0  0  0
 55 63  1  0  0  0
 56 58  1  0  0  0
 56 64  1  0  0  0
 56 65  1  0  0  0
 57 66  1  0  0  0
 57 67  1  0  0  0
M  CHG  1  54   1
M  END
> <s_m_entry_id>
707

> <s_m_entry_name>
000000549.1

> <s_m_Source_Path>
/Users/zaksoul/Documents/3r_UNI/2nd_SEMESTER/BSC/FRAG_RECON/RESULTS/2

> <s_m_Source_File>
000000549.mol2

> <i_m_Source_File_Index>
1

$$$$
No_0_571
                    3D
 Schrodinger Suite 2022-4.
 67 72  0  0  1  0            999 V2000
   -5.1810    3.6090  -21.8530 C   0  0  0  0  0  0
   -5.4520    3.8050  -23.1860 C   0  0  0  0  0  0
   -3.9420    3.3510  -21.5190 C   0  0  0  0  0  0
   -3.0590    3.4860  -23.6870 C   0  0  0  0  0  0
   -2.8930    3.2340  -22.2690 C   0  0  0  0  0  0
   -4.4090    3.7540  -24.2010 C   0  0  0  0  0  0
   -3.6630    3.7850  -26.4030 C   0  0  0  0  0  0
    6.0870    3.0010  -21.1820 C   0  0  0  0  0  0
    5.9380    3.1560  -23.7310 C   0  0  0  0  0  0
   -4.6650    3.8890  -25.5350 C   0  0  0  0  0  0
    2.1540    3.7130  -23.7290 C   0  0  0  0  0  0
    1.3370    4.8230  -23.4210 C   0  0  0  0  0  0
    3.1410    6.0110  -22.7430 C   0  0  0  0  0  0
    3.5570    3.8990  -23.4210 C   0  0  0  0  0  0
    1.6030    2.6010  -24.3930 C   0  0  0  0  0  0
   -0.5220    3.4190  -24.2700 C   0  0  0  0  0  0
    0.0100    4.6350  -23.6670 C   0  0  0  0  0  0
   -1.9770    3.4300  -24.6180 C   0  0  0  0  0  0
    4.1570    1.3990  -23.1440 C   0  0  0  0  0  0
    5.0950    1.0350  -22.0030 C   0  0  2  0  0  0
    6.6890    2.5740  -22.5390 C   0  0  2  0  0  0
    5.0840    2.0310  -20.8310 C   0  0  0  0  0  0
   -2.3080    3.5970  -26.0440 C   0  0  0  0  0  0
   -1.5470    2.8150  -21.6780 C   0  0  0  0  0  0
   -0.5150    2.4620  -21.1780 C   0  0  0  0  0  0
   -0.8280    5.6800  -23.3140 F   0  0  0  0  0  0
   -3.7260    3.1020  -20.1390 F   0  0  0  0  0  0
    1.8200    5.9780  -22.8860 N   0  0  0  0  0  0
    4.0350    5.0470  -22.9720 N   0  0  0  0  0  0
    0.2950    2.5160  -24.6930 N   0  0  0  0  0  0
    4.4710    2.8500  -23.6070 N   0  0  0  0  0  0
    6.5000    1.1010  -22.4910 N   0  0  1  0  0  0
   -3.8410    3.8060  -27.7920 O   0  0  0  0  0  0
   -5.9796    3.6712  -21.1226 H   0  0  0  0  0  0
   -6.4675    4.0037  -23.5091 H   0  0  0  0  0  0
    5.6179    3.9906  -21.2849 H   0  0  0  0  0  0
    6.8763    3.0060  -20.4159 H   0  0  0  0  0  0
    6.3275    2.7150  -24.6604 H   0  0  0  0  0  0
    6.0833    4.2460  -23.7593 H   0  0  0  0  0  0
   -5.6765    4.0776  -25.8762 H   0  0  0  0  0  0
    2.2385    1.7718  -24.6821 H   0  0  0  0  0  0
    3.1157    1.3435  -22.7939 H   0  0  0  0  0  0
    4.3144    0.7047  -23.9826 H   0  0  0  0  0  0
    4.8700    0.0218  -21.6387 H   0  0  0  0  0  0
    7.7578    2.8293  -22.5885 H   0  0  0  0  0  0
    4.1018    2.5236  -20.7805 H   0  0  0  0  0  0
    5.3877    1.5123  -19.9097 H   0  0  0  0  0  0
   -1.5411    3.5789  -26.8099 H   0  0  0  0  0  0
    0.3934    2.1519  -20.7378 H   0  0  0  0  0  0
    7.1492    0.5983  -21.7894 H   0  0  0  0  0  0
   -2.9984    3.7179  -28.2217 H   0  0  0  0  0  0
    3.1780    8.3540  -22.6700 O   0  0  0  0  0  0
    5.4280    8.6470  -21.2260 O   0  0  0  0  0  0
    7.9830    7.8590  -22.6410 N   0  3  0  0  0  0
    6.7340    8.6700  -20.6200 C   0  0  0  0  0  0
    4.9240    7.3100  -21.3930 C   0  0  0  0  0  0
    7.8310    8.9810  -21.6540 C   0  0  0  0  0  0
    3.7010    7.3330  -22.2760 C   0  0  0  0  0  0
    8.7061    8.0900  -23.3041 H   0  0  0  0  0  0
    8.2320    7.0129  -22.1530 H   0  0  0  0  0  0
    7.1120    7.7200  -23.1290 H   0  0  0  0  0  0
    6.9370    7.6959  -20.1510 H   0  0  0  0  0  0
    6.7550    9.4300  -19.8250 H   0  0  0  0  0  0
    4.6580    6.8940  -20.4100 H   0  0  0  0  0  0
    5.6983    6.6808  -21.8562 H   0  0  0  0  0  0
    7.5781    9.9078  -22.1899 H   0  0  0  0  0  0
    8.7875    9.1441  -21.1357 H   0  0  0  0  0  0
  1  2  2  0  0  0
  1  3  1  0  0  0
  1 34  1  0  0  0
  2  6  1  0  0  0
  2 35  1  0  0  0
  3  5  2  0  0  0
  3 27  1  0  0  0
  4  5  1  0  0  0
  4  6  2  0  0  0
  4 18  1  0  0  0
  5 24  1  0  0  0
  6 10  1  0  0  0
  7 10  2  0  0  0
  7 23  1  0  0  0
  7 33  1  0  0  0
  8 21  1  0  0  0
  8 22  1  0  0  0
  8 36  1  0  0  0
  8 37  1  0  0  0
  9 21  1  0  0  0
  9 31  1  0  0  0
  9 38  1  0  0  0
  9 39  1  0  0  0
 10 40  1  0  0  0
 11 12  1  0  0  0
 11 14  2  0  0  0
 11 15  1  0  0  0
 12 17  1  0  0  0
 12 28  2  0  0  0
 13 28  1  0  0  0
 13 29  2  0  0  0
 13 58  1  0  0  0
 14 29  1  0  0  0
 14 31  1  0  0  0
 15 30  2  0  0  0
 15 41  1  0  0  0
 16 17  2  0  0  0
 16 18  1  0  0  0
 16 30  1  0  0  0
 17 26  1  0  0  0
 18 23  2  0  0  0
 19 20  1  0  0  0
 19 31  1  0  0  0
 19 42  1  0  0  0
 19 43  1  0  0  0
 20 22  1  0  0  0
 20 32  1  0  0  0
 20 44  1  0  0  0
 21 32  1  0  0  0
 21 45  1  0  0  0
 22 46  1  0  0  0
 22 47  1  0  0  0
 23 48  1  0  0  0
 24 25  3  0  0  0
 25 49  1  0  0  0
 32 50  1  0  0  0
 33 51  1  0  0  0
 52 58  2  0  0  0
 53 55  1  0  0  0
 53 56  1  0  0  0
 54 57  1  0  0  0
 54 59  1  0  0  0
 54 60  1  0  0  0
 54 61  1  0  0  0
 55 57  1  0  0  0
 55 62  1  0  0  0
 55 63  1  0  0  0
 56 58  1  0  0  0
 56 64  1  0  0  0
 56 65  1  0  0  0
 57 66  1  0  0  0
 57 67  1  0  0  0
M  CHG  1  54   1
M  END
> <s_m_entry_id>
708

> <s_m_entry_name>
000000550.1

> <s_m_Source_Path>
/Users/zaksoul/Documents/3r_UNI/2nd_SEMESTER/BSC/FRAG_RECON/RESULTS/2

> <s_m_Source_File>
000000550.mol2

> <i_m_Source_File_Index>
1

$$$$
No_0_572
                    3D
 Schrodinger Suite 2022-4.
 67 72  0  0  1  0            999 V2000
   -5.0560    3.5590  -21.9060 C   0  0  0  0  0  0
   -5.3200    3.7630  -23.2390 C   0  0  0  0  0  0
   -3.8210    3.2900  -21.5670 C   0  0  0  0  0  0
   -2.9280    3.4270  -23.7320 C   0  0  0  0  0  0
   -2.7700    3.1680  -22.3130 C   0  0  0  0  0  0
   -4.2720    3.7090  -24.2500 C   0  0  0  0  0  0
   -3.5170    3.7440  -26.4480 C   0  0  0  0  0  0
    6.2030    2.8560  -21.1890 C   0  0  0  0  0  0
    6.0670    3.0250  -23.7370 C   0  0  0  0  0  0
   -4.5220    3.8520  -25.5840 C   0  0  0  0  0  0
    2.2880    3.6130  -23.7500 C   0  0  0  0  0  0
    1.4790    4.7270  -23.4400 C   0  0  0  0  0  0
    3.2890    5.8970  -22.7480 C   0  0  0  0  0  0
    3.6900    3.7860  -23.4340 C   0  0  0  0  0  0
    1.7300    2.5080  -24.4210 C   0  0  0  0  0  0
   -0.3890    3.3420  -24.3030 C   0  0  0  0  0  0
    0.1510    4.5510  -23.6920 C   0  0  0  0  0  0
   -1.8410    3.3670  -24.6580 C   0  0  0  0  0  0
    4.2690    1.2790  -23.1670 C   0  0  0  0  0  0
    5.1990    0.9020  -22.0230 C   0  0  2  0  0  0
    6.8080    2.4310  -22.5450 C   0  0  2  0  0  0
    5.1910    1.8920  -20.8470 C   0  0  0  0  0  0
   -2.1650    3.5440  -26.0840 C   0  0  0  0  0  0
   -1.4300    2.7340  -21.7190 C   0  0  0  0  0  0
   -0.4030    2.3710  -21.2160 C   0  0  0  0  0  0
   -0.6800    5.6020  -23.3380 F   0  0  0  0  0  0
   -3.6130    3.0320  -20.1880 F   0  0  0  0  0  0
    1.9680    5.8760  -22.8970 N   0  0  0  0  0  0
    4.1750    4.9270  -22.9780 N   0  0  0  0  0  0
    0.4230    2.4350  -24.7280 N   0  0  0  0  0  0
    4.5970    2.7300  -23.6220 N   0  0  0  0  0  0
    6.6060    0.9590  -22.5050 N   0  0  1  0  0  0
   -3.6890    3.7740  -27.8370 O   0  0  0  0  0  0
   -5.8569    3.6242  -21.1784 H   0  0  0  0  0  0
   -6.3320    3.9726  -23.5660 H   0  0  0  0  0  0
    5.7428    3.8500  -21.2899 H   0  0  0  0  0  0
    6.9893    2.8510  -20.4198 H   0  0  0  0  0  0
    6.4564    2.5852  -24.6670 H   0  0  0  0  0  0
    6.2214    4.1139  -23.7602 H   0  0  0  0  0  0
   -5.5305    4.0507  -25.9282 H   0  0  0  0  0  0
    2.3602    1.6751  -24.7110 H   0  0  0  0  0  0
    3.2257    1.2306  -22.8219 H   0  0  0  0  0  0
    4.4245    0.5873  -24.0081 H   0  0  0  0  0  0
    4.9639   -0.1111  -21.6648 H   0  0  0  0  0  0
    7.8792    2.6771  -22.5894 H   0  0  0  0  0  0
    4.2128    2.3927  -20.7985 H   0  0  0  0  0  0
    5.4856    1.3663  -19.9268 H   0  0  0  0  0  0
   -1.3951    3.5239  -26.8469 H   0  0  0  0  0  0
    0.5011    2.0510  -20.7740 H   0  0  0  0  0  0
    7.2487    0.4479  -21.8035 H   0  0  0  0  0  0
   -2.8452    3.6810  -28.2634 H   0  0  0  0  0  0
    3.2220    8.2250  -22.4780 O   0  0  0  0  0  0
    5.6780    8.5490  -21.4300 O   0  0  0  0  0  0
    7.9730    8.0400  -23.3330 N   0  3  0  0  0  0
    7.0690    8.6100  -21.0620 C   0  0  0  0  0  0
    5.2190    7.2000  -21.6220 C   0  0  0  0  0  0
    7.9450    9.0690  -22.2410 C   0  0  0  0  0  0
    3.8570    7.2130  -22.2720 C   0  0  0  0  0  0
    8.5529    8.3669  -24.0899 H   0  0  0  0  0  0
    8.3477    7.1766  -22.9722 H   0  0  0  0  0  0
    7.0367    7.8831  -23.6718 H   0  0  0  0  0  0
    7.4008    7.6175  -20.7232 H   0  0  0  0  0  0
    7.1940    9.3058  -20.2192 H   0  0  0  0  0  0
    5.1550    6.6930  -20.6479 H   0  0  0  0  0  0
    5.9283    6.6598  -22.2663 H   0  0  0  0  0  0
    7.5543   10.0164  -22.6407 H   0  0  0  0  0  0
    8.9696    9.2539  -21.8861 H   0  0  0  0  0  0
  1  2  2  0  0  0
  1  3  1  0  0  0
  1 34  1  0  0  0
  2  6  1  0  0  0
  2 35  1  0  0  0
  3  5  2  0  0  0
  3 27  1  0  0  0
  4  5  1  0  0  0
  4  6  2  0  0  0
  4 18  1  0  0  0
  5 24  1  0  0  0
  6 10  1  0  0  0
  7 10  2  0  0  0
  7 23  1  0  0  0
  7 33  1  0  0  0
  8 21  1  0  0  0
  8 22  1  0  0  0
  8 36  1  0  0  0
  8 37  1  0  0  0
  9 21  1  0  0  0
  9 31  1  0  0  0
  9 38  1  0  0  0
  9 39  1  0  0  0
 10 40  1  0  0  0
 11 12  1  0  0  0
 11 14  2  0  0  0
 11 15  1  0  0  0
 12 17  1  0  0  0
 12 28  2  0  0  0
 13 28  1  0  0  0
 13 29  2  0  0  0
 13 58  1  0  0  0
 14 29  1  0  0  0
 14 31  1  0  0  0
 15 30  2  0  0  0
 15 41  1  0  0  0
 16 17  2  0  0  0
 16 18  1  0  0  0
 16 30  1  0  0  0
 17 26  1  0  0  0
 18 23  2  0  0  0
 19 20  1  0  0  0
 19 31  1  0  0  0
 19 42  1  0  0  0
 19 43  1  0  0  0
 20 22  1  0  0  0
 20 32  1  0  0  0
 20 44  1  0  0  0
 21 32  1  0  0  0
 21 45  1  0  0  0
 22 46  1  0  0  0
 22 47  1  0  0  0
 23 48  1  0  0  0
 24 25  3  0  0  0
 25 49  1  0  0  0
 32 50  1  0  0  0
 33 51  1  0  0  0
 52 58  2  0  0  0
 53 55  1  0  0  0
 53 56  1  0  0  0
 54 57  1  0  0  0
 54 59  1  0  0  0
 54 60  1  0  0  0
 54 61  1  0  0  0
 55 57  1  0  0  0
 55 62  1  0  0  0
 55 63  1  0  0  0
 56 58  1  0  0  0
 56 64  1  0  0  0
 56 65  1  0  0  0
 57 66  1  0  0  0
 57 67  1  0  0  0
M  CHG  1  54   1
M  END
> <s_m_entry_id>
709

> <s_m_entry_name>
000000551.1

> <s_m_Source_Path>
/Users/zaksoul/Documents/3r_UNI/2nd_SEMESTER/BSC/FRAG_RECON/RESULTS/2

> <s_m_Source_File>
000000551.mol2

> <i_m_Source_File_Index>
1

$$$$
No_0_573
                    3D
 Schrodinger Suite 2022-4.
 67 72  0  0  1  0            999 V2000
   -4.8870    3.8530  -21.8140 C   0  0  0  0  0  0
   -5.1770    4.0110  -23.1480 C   0  0  0  0  0  0
   -3.6510    3.5680  -21.4920 C   0  0  0  0  0  0
   -2.8050    3.5980  -23.6800 C   0  0  0  0  0  0
   -2.6200    3.3910  -22.2560 C   0  0  0  0  0  0
   -4.1540    3.8910  -24.1790 C   0  0  0  0  0  0
   -3.4490    3.8210  -26.3930 C   0  0  0  0  0  0
    6.3670    2.9100  -21.3200 C   0  0  0  0  0  0
    6.1750    2.9800  -23.8690 C   0  0  0  0  0  0
   -4.4320    3.9870  -25.5120 C   0  0  0  0  0  0
    2.4120    3.6580  -23.8210 C   0  0  0  0  0  0
    1.6360    4.8020  -23.5380 C   0  0  0  0  0  0
    3.4880    5.9550  -22.9340 C   0  0  0  0  0  0
    3.8240    3.8090  -23.5440 C   0  0  0  0  0  0
    1.8130    2.5410  -24.4350 C   0  0  0  0  0  0
   -0.2830    3.4300  -24.3040 C   0  0  0  0  0  0
    0.2990    4.6490  -23.7540 C   0  0  0  0  0  0
   -1.7420    3.4760  -24.6260 C   0  0  0  0  0  0
    4.3520    1.3020  -23.1890 C   0  0  0  0  0  0
    5.2990    0.9490  -22.0520 C   0  0  2  0  0  0
    6.9300    2.4170  -22.6700 C   0  0  2  0  0  0
    5.3410    1.9850  -20.9160 C   0  0  0  0  0  0
   -2.0950    3.6040  -26.0510 C   0  0  0  0  0  0
   -1.2780    2.9500  -21.6740 C   0  0  0  0  0  0
   -0.2480    2.5820  -21.1810 C   0  0  0  0  0  0
   -0.4990    5.7320  -23.4230 F   0  0  0  0  0  0
   -3.4170    3.3600  -20.1080 F   0  0  0  0  0  0
    2.1640    5.9600  -23.0530 N   0  0  0  0  0  0
    4.3460    4.9560  -23.1440 N   0  0  0  0  0  0
    0.4980    2.4870  -24.7090 N   0  0  0  0  0  0
    4.7020    2.7260  -23.7090 N   0  0  0  0  0  0
    6.6950    0.9530  -22.5670 N   0  0  1  0  0  0
   -3.6530    3.8000  -27.7780 O   0  0  0  0  0  0
   -5.6697    3.9654  -21.0725 H   0  0  0  0  0  0
   -6.1916    4.2308  -23.4601 H   0  0  0  0  0  0
    5.9271    3.9099  -21.4492 H   0  0  0  0  0  0
    7.1701    2.9161  -20.5683 H   0  0  0  0  0  0
    6.5334    2.4944  -24.7887 H   0  0  0  0  0  0
    6.3535    4.0632  -23.9386 H   0  0  0  0  0  0
   -5.4432    4.1969  -25.8414 H   0  0  0  0  0  0
    2.4172    1.6828  -24.7060 H   0  0  0  0  0  0
    3.3162    1.2919  -22.8189 H   0  0  0  0  0  0
    4.4712    0.5739  -24.0049 H   0  0  0  0  0  0
    5.0487   -0.0431  -21.6483 H   0  0  0  0  0  0
    8.0053    2.6349  -22.7487 H   0  0  0  0  0  0
    4.3757    2.5101  -20.8665 H   0  0  0  0  0  0
    5.6447    1.4885  -19.9826 H   0  0  0  0  0  0
   -1.3437    3.5348  -26.8294 H   0  0  0  0  0  0
    0.6580    2.2580  -20.7460 H   0  0  0  0  0  0
    7.3419    0.4547  -21.8602 H   0  0  0  0  0  0
   -2.8218    3.6704  -28.2193 H   0  0  0  0  0  0
    3.4000    8.2660  -22.5500 O   0  0  0  0  0  0
    6.0060    8.6540  -22.0090 O   0  0  0  0  0  0
    7.8780    8.3140  -24.3600 N   0  3  0  0  0  0
    7.4400    8.7590  -21.9280 C   0  0  0  0  0  0
    5.5630    7.2950  -22.1650 C   0  0  0  0  0  0
    8.0400    9.3000  -23.2390 C   0  0  0  0  0  0
    4.0970    7.2750  -22.5240 C   0  0  0  0  0  0
    8.2799    8.6939  -25.2028 H   0  0  0  0  0  0
    8.3477    7.4545  -24.1221 H   0  0  0  0  0  0
    6.8979    8.1310  -24.5080 H   0  0  0  0  0  0
    7.8674    7.7692  -21.7098 H   0  0  0  0  0  0
    7.7119    9.4279  -21.0982 H   0  0  0  0  0  0
    5.7171    6.7488  -21.2227 H   0  0  0  0  0  0
    6.1423    6.8098  -22.9644 H   0  0  0  0  0  0
    7.5438   10.2444  -23.5071 H   0  0  0  0  0  0
    9.1090    9.5130  -23.0910 H   0  0  0  0  0  0
  1  2  2  0  0  0
  1  3  1  0  0  0
  1 34  1  0  0  0
  2  6  1  0  0  0
  2 35  1  0  0  0
  3  5  2  0  0  0
  3 27  1  0  0  0
  4  5  1  0  0  0
  4  6  2  0  0  0
  4 18  1  0  0  0
  5 24  1  0  0  0
  6 10  1  0  0  0
  7 10  2  0  0  0
  7 23  1  0  0  0
  7 33  1  0  0  0
  8 21  1  0  0  0
  8 22  1  0  0  0
  8 36  1  0  0  0
  8 37  1  0  0  0
  9 21  1  0  0  0
  9 31  1  0  0  0
  9 38  1  0  0  0
  9 39  1  0  0  0
 10 40  1  0  0  0
 11 12  1  0  0  0
 11 14  2  0  0  0
 11 15  1  0  0  0
 12 17  1  0  0  0
 12 28  2  0  0  0
 13 28  1  0  0  0
 13 29  2  0  0  0
 13 58  1  0  0  0
 14 29  1  0  0  0
 14 31  1  0  0  0
 15 30  2  0  0  0
 15 41  1  0  0  0
 16 17  2  0  0  0
 16 18  1  0  0  0
 16 30  1  0  0  0
 17 26  1  0  0  0
 18 23  2  0  0  0
 19 20  1  0  0  0
 19 31  1  0  0  0
 19 42  1  0  0  0
 19 43  1  0  0  0
 20 22  1  0  0  0
 20 32  1  0  0  0
 20 44  1  0  0  0
 21 32  1  0  0  0
 21 45  1  0  0  0
 22 46  1  0  0  0
 22 47  1  0  0  0
 23 48  1  0  0  0
 24 25  3  0  0  0
 25 49  1  0  0  0
 32 50  1  0  0  0
 33 51  1  0  0  0
 52 58  2  0  0  0
 53 55  1  0  0  0
 53 56  1  0  0  0
 54 57  1  0  0  0
 54 59  1  0  0  0
 54 60  1  0  0  0
 54 61  1  0  0  0
 55 57  1  0  0  0
 55 62  1  0  0  0
 55 63  1  0  0  0
 56 58  1  0  0  0
 56 64  1  0  0  0
 56 65  1  0  0  0
 57 66  1  0  0  0
 57 67  1  0  0  0
M  CHG  1  54   1
M  END
> <s_m_entry_id>
710

> <s_m_entry_name>
000000552.1

> <s_m_Source_Path>
/Users/zaksoul/Documents/3r_UNI/2nd_SEMESTER/BSC/FRAG_RECON/RESULTS/2

> <s_m_Source_File>
000000552.mol2

> <i_m_Source_File_Index>
1

$$$$
No_0_574
                    3D
 Schrodinger Suite 2022-4.
 71 76  0  0  1  0            999 V2000
   -5.1810    3.6090  -21.8530 C   0  0  0  0  0  0
   -5.4520    3.8050  -23.1860 C   0  0  0  0  0  0
   -3.9420    3.3510  -21.5190 C   0  0  0  0  0  0
   -3.0590    3.4860  -23.6870 C   0  0  0  0  0  0
   -2.8930    3.2340  -22.2690 C   0  0  0  0  0  0
   -4.4090    3.7540  -24.2010 C   0  0  0  0  0  0
   -3.6630    3.7850  -26.4030 C   0  0  0  0  0  0
    6.0870    3.0010  -21.1820 C   0  0  0  0  0  0
    5.9380    3.1560  -23.7310 C   0  0  0  0  0  0
   -4.6650    3.8890  -25.5350 C   0  0  0  0  0  0
    2.1540    3.7130  -23.7290 C   0  0  0  0  0  0
    1.3370    4.8230  -23.4210 C   0  0  0  0  0  0
    3.1410    6.0110  -22.7430 C   0  0  0  0  0  0
    3.5570    3.8990  -23.4210 C   0  0  0  0  0  0
    1.6030    2.6010  -24.3930 C   0  0  0  0  0  0
   -0.5220    3.4190  -24.2700 C   0  0  0  0  0  0
    0.0100    4.6350  -23.6670 C   0  0  0  0  0  0
   -1.9770    3.4300  -24.6180 C   0  0  0  0  0  0
    4.1570    1.3990  -23.1440 C   0  0  0  0  0  0
    5.0950    1.0350  -22.0030 C   0  0  2  0  0  0
    6.6890    2.5740  -22.5390 C   0  0  2  0  0  0
    5.0840    2.0310  -20.8310 C   0  0  0  0  0  0
   -2.3080    3.5970  -26.0440 C   0  0  0  0  0  0
   -1.5470    2.8150  -21.6780 C   0  0  0  0  0  0
   -0.5150    2.4620  -21.1780 C   0  0  0  0  0  0
   -0.8280    5.6800  -23.3140 F   0  0  0  0  0  0
   -3.7260    3.1020  -20.1390 F   0  0  0  0  0  0
    1.8200    5.9780  -22.8860 N   0  0  0  0  0  0
    4.0350    5.0470  -22.9720 N   0  0  0  0  0  0
    0.2950    2.5160  -24.6930 N   0  0  0  0  0  0
    4.4710    2.8500  -23.6070 N   0  0  0  0  0  0
    6.5000    1.1010  -22.4910 N   0  0  1  0  0  0
   -3.8410    3.8060  -27.7920 O   0  0  0  0  0  0
   -5.9796    3.6712  -21.1226 H   0  0  0  0  0  0
   -6.4675    4.0037  -23.5091 H   0  0  0  0  0  0
    5.6179    3.9906  -21.2849 H   0  0  0  0  0  0
    6.8763    3.0060  -20.4159 H   0  0  0  0  0  0
    6.3275    2.7150  -24.6604 H   0  0  0  0  0  0
    6.0833    4.2460  -23.7593 H   0  0  0  0  0  0
   -5.6765    4.0776  -25.8762 H   0  0  0  0  0  0
    2.2385    1.7718  -24.6821 H   0  0  0  0  0  0
    3.1157    1.3435  -22.7939 H   0  0  0  0  0  0
    4.3144    0.7047  -23.9826 H   0  0  0  0  0  0
    4.8700    0.0218  -21.6387 H   0  0  0  0  0  0
    7.7578    2.8293  -22.5885 H   0  0  0  0  0  0
    4.1018    2.5236  -20.7805 H   0  0  0  0  0  0
    5.3877    1.5123  -19.9097 H   0  0  0  0  0  0
   -1.5411    3.5789  -26.8099 H   0  0  0  0  0  0
    0.3934    2.1519  -20.7378 H   0  0  0  0  0  0
    7.1492    0.5983  -21.7894 H   0  0  0  0  0  0
   -2.9984    3.7179  -28.2217 H   0  0  0  0  0  0
    3.1440    8.3520  -22.6260 O   0  0  0  0  0  0
    5.5380    8.6860  -21.3180 N   0  0  1  0  0  0
    6.8160   10.5900  -22.4000 C   0  0  0  0  0  0
    6.2120    9.1810  -22.5680 C   0  0  0  0  0  0
    5.7770   11.7310  -22.3810 C   0  0  0  0  0  0
    3.7010    7.3330  -22.2760 C   0  0  0  0  0  0
    4.9590    7.3060  -21.4440 C   0  0  0  0  0  0
    5.1170   11.9480  -23.7550 C   0  0  0  0  0  0
    6.2536    8.6590  -20.5095 H   0  0  0  0  0  0
    7.5435   10.7729  -23.2045 H   0  0  0  0  0  0
    7.4120   10.6240  -21.4761 H   0  0  0  0  0  0
    5.4863    9.1910  -23.3946 H   0  0  0  0  0  0
    7.0037    8.4754  -22.8602 H   0  0  0  0  0  0
    6.2640   12.6630  -22.0580 H   0  0  0  0  0  0
    5.0016   11.5069  -21.6336 H   0  0  0  0  0  0
    4.7288    6.9117  -20.4432 H   0  0  0  0  0  0
    5.6969    6.6421  -21.9180 H   0  0  0  0  0  0
    4.3881   12.7689  -23.6860 H   0  0  0  0  0  0
    5.8886   12.2049  -24.4957 H   0  0  0  0  0  0
    4.6027   11.0264  -24.0652 H   0  0  0  0  0  0
  1  2  2  0  0  0
  1  3  1  0  0  0
  1 34  1  0  0  0
  2  6  1  0  0  0
  2 35  1  0  0  0
  3  5  2  0  0  0
  3 27  1  0  0  0
  4  5  1  0  0  0
  4  6  2  0  0  0
  4 18  1  0  0  0
  5 24  1  0  0  0
  6 10  1  0  0  0
  7 10  2  0  0  0
  7 23  1  0  0  0
  7 33  1  0  0  0
  8 21  1  0  0  0
  8 22  1  0  0  0
  8 36  1  0  0  0
  8 37  1  0  0  0
  9 21  1  0  0  0
  9 31  1  0  0  0
  9 38  1  0  0  0
  9 39  1  0  0  0
 10 40  1  0  0  0
 11 12  1  0  0  0
 11 14  2  0  0  0
 11 15  1  0  0  0
 12 17  1  0  0  0
 12 28  2  0  0  0
 13 28  1  0  0  0
 13 29  2  0  0  0
 13 57  1  0  0  0
 14 29  1  0  0  0
 14 31  1  0  0  0
 15 30  2  0  0  0
 15 41  1  0  0  0
 16 17  2  0  0  0
 16 18  1  0  0  0
 16 30  1  0  0  0
 17 26  1  0  0  0
 18 23  2  0  0  0
 19 20  1  0  0  0
 19 31  1  0  0  0
 19 42  1  0  0  0
 19 43  1  0  0  0
 20 22  1  0  0  0
 20 32  1  0  0  0
 20 44  1  0  0  0
 21 32  1  0  0  0
 21 45  1  0  0  0
 22 46  1  0  0  0
 22 47  1  0  0  0
 23 48  1  0  0  0
 24 25  3  0  0  0
 25 49  1  0  0  0
 32 50  1  0  0  0
 33 51  1  0  0  0
 52 57  2  0  0  0
 53 55  1  0  0  0
 53 58  1  0  0  0
 53 60  1  0  0  0
 54 55  1  0  0  0
 54 56  1  0  0  0
 54 61  1  0  0  0
 54 62  1  0  0  0
 55 63  1  0  0  0
 55 64  1  0  0  0
 56 59  1  0  0  0
 56 65  1  0  0  0
 56 66  1  0  0  0
 57 58  1  0  0  0
 58 67  1  0  0  0
 58 68  1  0  0  0
 59 69  1  0  0  0
 59 70  1  0  0  0
 59 71  1  0  0  0
M  END
> <s_m_entry_id>
711

> <s_m_entry_name>
000000553.1

> <s_m_Source_Path>
/Users/zaksoul/Documents/3r_UNI/2nd_SEMESTER/BSC/FRAG_RECON/RESULTS/2

> <s_m_Source_File>
000000553.mol2

> <i_m_Source_File_Index>
1

$$$$
No_0_575
                    3D
 Schrodinger Suite 2022-4.
 65 70  0  0  1  0            999 V2000
   -5.0120    3.5230  -22.0580 C   0  0  0  0  0  0
   -5.2610    3.7300  -23.3940 C   0  0  0  0  0  0
   -3.7810    3.2490  -21.7070 C   0  0  0  0  0  0
   -2.8650    3.3870  -23.8620 C   0  0  0  0  0  0
   -2.7220    3.1250  -22.4430 C   0  0  0  0  0  0
   -4.2030    3.6730  -24.3940 C   0  0  0  0  0  0
   -3.4250    3.7080  -26.5840 C   0  0  0  0  0  0
    6.2380    2.7850  -21.2260 C   0  0  0  0  0  0
    6.1280    2.9570  -23.7750 C   0  0  0  0  0  0
   -4.4390    3.8180  -25.7310 C   0  0  0  0  0  0
    2.3510    3.5560  -23.8260 C   0  0  0  0  0  0
    1.5420    4.6730  -23.5230 C   0  0  0  0  0  0
    3.3490    5.8370  -22.8120 C   0  0  0  0  0  0
    3.7510    3.7250  -23.4960 C   0  0  0  0  0  0
    1.7970    2.4540  -24.5040 C   0  0  0  0  0  0
   -0.3200    3.2950  -24.4070 C   0  0  0  0  0  0
    0.2160    4.5010  -23.7900 C   0  0  0  0  0  0
   -1.7690    3.3240  -24.7770 C   0  0  0  0  0  0
    4.3190    1.2160  -23.2250 C   0  0  0  0  0  0
    5.2360    0.8350  -22.0720 C   0  0  2  0  0  0
    6.8550    2.3600  -22.5750 C   0  0  2  0  0  0
    5.2190    1.8240  -20.8950 C   0  0  0  0  0  0
   -2.0770    3.5040  -26.2060 C   0  0  0  0  0  0
   -1.3900    2.6870  -21.8350 C   0  0  0  0  0  0
   -0.3700    2.3200  -21.3220 C   0  0  0  0  0  0
   -0.6150    5.5540  -23.4430 F   0  0  0  0  0  0
   -3.5880    2.9890  -20.3260 F   0  0  0  0  0  0
    2.0290    5.8190  -22.9740 N   0  0  0  0  0  0
    4.2350    4.8640  -23.0330 N   0  0  0  0  0  0
    0.4930    2.3850  -24.8240 N   0  0  0  0  0  0
    4.6560    2.6660  -23.6750 N   0  0  0  0  0  0
    6.6480    0.8880  -22.5390 N   0  0  1  0  0  0
   -3.5830    3.7400  -27.9750 O   0  0  0  0  0  0
   -5.8205    3.5893  -21.3389 H   0  0  0  0  0  0
   -6.2693    3.9417  -23.7311 H   0  0  0  0  0  0
    5.7812    3.7803  -21.3299 H   0  0  0  0  0  0
    7.0158    2.7769  -20.4482 H   0  0  0  0  0  0
    6.5256    2.5170  -24.7014 H   0  0  0  0  0  0
    6.2855    4.0455  -23.7942 H   0  0  0  0  0  0
   -5.4431    4.0208  -26.0855 H   0  0  0  0  0  0
    2.4275    1.6196  -24.7892 H   0  0  0  0  0  0
    3.2720    1.1696  -22.8908 H   0  0  0  0  0  0
    4.4805    0.5244  -24.0650 H   0  0  0  0  0  0
    4.9937   -0.1778  -21.7176 H   0  0  0  0  0  0
    7.9273    2.6031  -22.6083 H   0  0  0  0  0  0
    4.2419    2.3277  -20.8556 H   0  0  0  0  0  0
    5.5024    1.2966  -19.9722 H   0  0  0  0  0  0
   -1.3002    3.4819  -26.9617 H   0  0  0  0  0  0
    0.5283    1.9972  -20.8703 H   0  0  0  0  0  0
    7.2820    0.3748  -21.8312 H   0  0  0  0  0  0
   -2.7350    3.6450  -28.3926 H   0  0  0  0  0  0
    7.3550   10.2970  -23.4500 F   0  0  0  0  0  0
    3.1470    8.0660  -22.1290 O   0  0  0  0  0  0
    5.7650    8.6290  -21.6320 N   0  0  1  0  0  0
    5.4080    7.2560  -22.1280 C   0  0  0  0  0  0
    7.2400    8.9050  -21.4910 C   0  0  0  0  0  0
    7.9410    9.1940  -22.8340 C   0  0  0  0  0  0
    3.9160    7.1500  -22.3280 C   0  0  0  0  0  0
    5.3800    9.3700  -22.3170 H   0  0  0  0  0  0
    5.7332    6.5045  -21.3935 H   0  0  0  0  0  0
    5.9196    7.0671  -23.0833 H   0  0  0  0  0  0
    7.7272    8.0487  -21.0018 H   0  0  0  0  0  0
    7.3880    9.7569  -20.8111 H   0  0  0  0  0  0
    9.0069    9.3982  -22.6548 H   0  0  0  0  0  0
    7.8500    8.3167  -23.4913 H   0  0  0  0  0  0
  1  2  2  0  0  0
  1  3  1  0  0  0
  1 34  1  0  0  0
  2  6  1  0  0  0
  2 35  1  0  0  0
  3  5  2  0  0  0
  3 27  1  0  0  0
  4  5  1  0  0  0
  4  6  2  0  0  0
  4 18  1  0  0  0
  5 24  1  0  0  0
  6 10  1  0  0  0
  7 10  2  0  0  0
  7 23  1  0  0  0
  7 33  1  0  0  0
  8 21  1  0  0  0
  8 22  1  0  0  0
  8 36  1  0  0  0
  8 37  1  0  0  0
  9 21  1  0  0  0
  9 31  1  0  0  0
  9 38  1  0  0  0
  9 39  1  0  0  0
 10 40  1  0  0  0
 11 12  1  0  0  0
 11 14  2  0  0  0
 11 15  1  0  0  0
 12 17  1  0  0  0
 12 28  2  0  0  0
 13 28  1  0  0  0
 13 29  2  0  0  0
 13 58  1  0  0  0
 14 29  1  0  0  0
 14 31  1  0  0  0
 15 30  2  0  0  0
 15 41  1  0  0  0
 16 17  2  0  0  0
 16 18  1  0  0  0
 16 30  1  0  0  0
 17 26  1  0  0  0
 18 23  2  0  0  0
 19 20  1  0  0  0
 19 31  1  0  0  0
 19 42  1  0  0  0
 19 43  1  0  0  0
 20 22  1  0  0  0
 20 32  1  0  0  0
 20 44  1  0  0  0
 21 32  1  0  0  0
 21 45  1  0  0  0
 22 46  1  0  0  0
 22 47  1  0  0  0
 23 48  1  0  0  0
 24 25  3  0  0  0
 25 49  1  0  0  0
 32 50  1  0  0  0
 33 51  1  0  0  0
 52 57  1  0  0  0
 53 58  2  0  0  0
 54 55  1  0  0  0
 54 56  1  0  0  0
 54 59  1  0  0  0
 55 58  1  0  0  0
 55 60  1  0  0  0
 55 61  1  0  0  0
 56 57  1  0  0  0
 56 62  1  0  0  0
 56 63  1  0  0  0
 57 64  1  0  0  0
 57 65  1  0  0  0
M  END
> <s_m_entry_id>
712

> <s_m_entry_name>
000000554.1

> <s_m_Source_Path>
/Users/zaksoul/Documents/3r_UNI/2nd_SEMESTER/BSC/FRAG_RECON/RESULTS/2

> <s_m_Source_File>
000000554.mol2

> <i_m_Source_File_Index>
1

$$$$
No_0_576
                    3D
 Schrodinger Suite 2022-4.
 65 70  0  0  1  0            999 V2000
   -4.8150    3.7790  -21.7300 C   0  0  0  0  0  0
   -5.1150    3.9900  -23.0540 C   0  0  0  0  0  0
   -3.5750    3.4820  -21.4300 C   0  0  0  0  0  0
   -2.7470    3.6020  -23.6200 C   0  0  0  0  0  0
   -2.5510    3.3380  -22.2080 C   0  0  0  0  0  0
   -4.1010    3.9130  -24.0970 C   0  0  0  0  0  0
   -3.4130    3.9330  -26.3170 C   0  0  0  0  0  0
    6.4440    2.8310  -21.3620 C   0  0  0  0  0  0
    6.2320    3.0040  -23.9040 C   0  0  0  0  0  0
   -4.3880    4.0620  -25.4230 C   0  0  0  0  0  0
    2.4680    3.6740  -23.8000 C   0  0  0  0  0  0
    1.6930    4.8050  -23.4650 C   0  0  0  0  0  0
    3.5500    5.9350  -22.8300 C   0  0  0  0  0  0
    3.8830    3.8160  -23.5280 C   0  0  0  0  0  0
    1.8660    2.5820  -24.4540 C   0  0  0  0  0  0
   -0.2290    3.4620  -24.2700 C   0  0  0  0  0  0
    0.3550    4.6590  -23.6760 C   0  0  0  0  0  0
   -1.6920    3.5190  -24.5800 C   0  0  0  0  0  0
    4.4160    1.2970  -23.2780 C   0  0  0  0  0  0
    5.3720    0.9000  -22.1640 C   0  0  2  0  0  0
    6.9970    2.3940  -22.7360 C   0  0  2  0  0  0
    5.4220    1.8890  -20.9880 C   0  0  0  0  0  0
   -2.0550    3.7040  -25.9950 C   0  0  0  0  0  0
   -1.2030    2.8750  -21.6550 C   0  0  0  0  0  0
   -0.1690    2.4890  -21.1840 C   0  0  0  0  0  0
   -0.4410    5.7270  -23.2960 F   0  0  0  0  0  0
   -3.3310    3.2190  -20.0570 F   0  0  0  0  0  0
    2.2240    5.9430  -22.9370 N   0  0  0  0  0  0
    4.4070    4.9470  -23.0860 N   0  0  0  0  0  0
    0.5490    2.5380  -24.7200 N   0  0  0  0  0  0
    4.7610    2.7410  -23.7430 N   0  0  0  0  0  0
    6.7650    0.9260  -22.6890 N   0  0  1  0  0  0
   -3.6270    3.9680  -27.7010 O   0  0  0  0  0  0
   -5.5918    3.8603  -20.9783 H   0  0  0  0  0  0
   -6.1323    4.2207  -23.3489 H   0  0  0  0  0  0
    6.0022    3.8347  -21.4477 H   0  0  0  0  0  0
    7.2533    2.8078  -20.6173 H   0  0  0  0  0  0
    6.5832    2.5569  -24.8457 H   0  0  0  0  0  0
    6.4097    4.0892  -23.9313 H   0  0  0  0  0  0
   -5.4019    4.2836  -25.7359 H   0  0  0  0  0  0
    2.4691    1.7360  -24.7631 H   0  0  0  0  0  0
    3.3827    1.2708  -22.9016 H   0  0  0  0  0  0
    4.5290    0.6027  -24.1237 H   0  0  0  0  0  0
    5.1258   -0.1080  -21.7988 H   0  0  0  0  0  0
    8.0714    2.6170  -22.8127 H   0  0  0  0  0  0
    4.4569    2.4109  -20.9093 H   0  0  0  0  0  0
    5.7339    1.3561  -20.0776 H   0  0  0  0  0  0
   -1.3103    3.6669  -26.7818 H   0  0  0  0  0  0
    0.7410    2.1490  -20.7700 H   0  0  0  0  0  0
    7.4176    0.4007  -22.0075 H   0  0  0  0  0  0
   -2.7991    3.8571  -28.1536 H   0  0  0  0  0  0
    7.0170   10.7260  -24.0040 F   0  0  0  0  0  0
    3.4290    8.0710  -21.8800 O   0  0  0  0  0  0
    6.0530    8.7820  -22.0260 N   0  0  1  0  0  0
    5.6440    7.4380  -22.5580 C   0  0  0  0  0  0
    7.4970    9.1560  -22.2450 C   0  0  0  0  0  0
    7.7980    9.6190  -23.6850 C   0  0  0  0  0  0
    4.1600    7.2380  -22.3710 C   0  0  0  0  0  0
    5.4640    9.5520  -22.5020 H   0  0  0  0  0  0
    6.1905    6.6497  -22.0195 H   0  0  0  0  0  0
    5.8910    7.3770  -23.6282 H   0  0  0  0  0  0
    8.1383    8.2977  -21.9959 H   0  0  0  0  0  0
    7.7799    9.9508  -21.5392 H   0  0  0  0  0  0
    8.8618    9.8860  -23.7690 H   0  0  0  0  0  0
    7.5780    8.8011  -24.3869 H   0  0  0  0  0  0
  1  2  2  0  0  0
  1  3  1  0  0  0
  1 34  1  0  0  0
  2  6  1  0  0  0
  2 35  1  0  0  0
  3  5  2  0  0  0
  3 27  1  0  0  0
  4  5  1  0  0  0
  4  6  2  0  0  0
  4 18  1  0  0  0
  5 24  1  0  0  0
  6 10  1  0  0  0
  7 10  2  0  0  0
  7 23  1  0  0  0
  7 33  1  0  0  0
  8 21  1  0  0  0
  8 22  1  0  0  0
  8 36  1  0  0  0
  8 37  1  0  0  0
  9 21  1  0  0  0
  9 31  1  0  0  0
  9 38  1  0  0  0
  9 39  1  0  0  0
 10 40  1  0  0  0
 11 12  1  0  0  0
 11 14  2  0  0  0
 11 15  1  0  0  0
 12 17  1  0  0  0
 12 28  2  0  0  0
 13 28  1  0  0  0
 13 29  2  0  0  0
 13 58  1  0  0  0
 14 29  1  0  0  0
 14 31  1  0  0  0
 15 30  2  0  0  0
 15 41  1  0  0  0
 16 17  2  0  0  0
 16 18  1  0  0  0
 16 30  1  0  0  0
 17 26  1  0  0  0
 18 23  2  0  0  0
 19 20  1  0  0  0
 19 31  1  0  0  0
 19 42  1  0  0  0
 19 43  1  0  0  0
 20 22  1  0  0  0
 20 32  1  0  0  0
 20 44  1  0  0  0
 21 32  1  0  0  0
 21 45  1  0  0  0
 22 46  1  0  0  0
 22 47  1  0  0  0
 23 48  1  0  0  0
 24 25  3  0  0  0
 25 49  1  0  0  0
 32 50  1  0  0  0
 33 51  1  0  0  0
 52 57  1  0  0  0
 53 58  2  0  0  0
 54 55  1  0  0  0
 54 56  1  0  0  0
 54 59  1  0  0  0
 55 58  1  0  0  0
 55 60  1  0  0  0
 55 61  1  0  0  0
 56 57  1  0  0  0
 56 62  1  0  0  0
 56 63  1  0  0  0
 57 64  1  0  0  0
 57 65  1  0  0  0
M  END
> <s_m_entry_id>
713

> <s_m_entry_name>
000000555.1

> <s_m_Source_Path>
/Users/zaksoul/Documents/3r_UNI/2nd_SEMESTER/BSC/FRAG_RECON/RESULTS/2

> <s_m_Source_File>
000000555.mol2

> <i_m_Source_File_Index>
1

$$$$
No_0_577
                    3D
 Schrodinger Suite 2022-4.
 65 70  0  0  1  0            999 V2000
   -5.1740    3.7280  -21.9240 C   0  0  0  0  0  0
   -5.4420    3.9380  -23.2560 C   0  0  0  0  0  0
   -3.9380    3.4510  -21.5910 C   0  0  0  0  0  0
   -3.0530    3.5930  -23.7580 C   0  0  0  0  0  0
   -2.8910    3.3270  -22.3420 C   0  0  0  0  0  0
   -4.3980    3.8830  -24.2710 C   0  0  0  0  0  0
   -3.6510    3.9220  -26.4710 C   0  0  0  0  0  0
    6.0850    2.9700  -21.2530 C   0  0  0  0  0  0
    5.9390    3.1480  -23.8000 C   0  0  0  0  0  0
   -4.6520    4.0320  -25.6030 C   0  0  0  0  0  0
    2.1640    3.7540  -23.7960 C   0  0  0  0  0  0
    1.3610    4.8710  -23.4790 C   0  0  0  0  0  0
    3.1790    6.0300  -22.7900 C   0  0  0  0  0  0
    3.5680    3.9190  -23.4850 C   0  0  0  0  0  0
    1.5980    2.6540  -24.4700 C   0  0  0  0  0  0
   -0.5160    3.4980  -24.3400 C   0  0  0  0  0  0
    0.0310    4.7020  -23.7270 C   0  0  0  0  0  0
   -1.9700    3.5310  -24.6890 C   0  0  0  0  0  0
    4.1360    1.4090  -23.2290 C   0  0  0  0  0  0
    5.0680    1.0230  -22.0910 C   0  0  2  0  0  0
    6.6830    2.5470  -22.6130 C   0  0  2  0  0  0
    5.0700    2.0090  -20.9100 C   0  0  0  0  0  0
   -2.2990    3.7140  -26.1130 C   0  0  0  0  0  0
   -1.5510    2.8850  -21.7540 C   0  0  0  0  0  0
   -0.5240    2.5150  -21.2570 C   0  0  0  0  0  0
   -0.7930    5.7550  -23.3660 F   0  0  0  0  0  0
   -3.7260    3.1870  -20.2130 F   0  0  0  0  0  0
    1.8570    6.0150  -22.9340 N   0  0  0  0  0  0
    4.0600    5.0560  -23.0260 N   0  0  0  0  0  0
    0.2890    2.5880  -24.7710 N   0  0  0  0  0  0
    4.4690    2.8600  -23.6800 N   0  0  0  0  0  0
    6.4740    1.0750  -22.5770 N   0  0  1  0  0  0
   -3.8280    3.9580  -27.8600 O   0  0  0  0  0  0
   -5.9720    3.7932  -21.1933 H   0  0  0  0  0  0
   -6.4544    4.1529  -23.5784 H   0  0  0  0  0  0
    5.6287    3.9664  -21.3479 H   0  0  0  0  0  0
    6.8743    2.9579  -20.4869 H   0  0  0  0  0  0
    6.3236    2.7099  -24.7328 H   0  0  0  0  0  0
    6.0995    4.2361  -23.8192 H   0  0  0  0  0  0
   -5.6607    4.2367  -25.9432 H   0  0  0  0  0  0
    2.2232    1.8191  -24.7650 H   0  0  0  0  0  0
    3.0938    1.3636  -22.8799 H   0  0  0  0  0  0
    4.2844    0.7194  -24.0731 H   0  0  0  0  0  0
    4.8299    0.0099  -21.7348 H   0  0  0  0  0  0
    7.7552    2.7883  -22.6604 H   0  0  0  0  0  0
    4.0945    2.5144  -20.8565 H   0  0  0  0  0  0
    5.3657    1.4791  -19.9925 H   0  0  0  0  0  0
   -1.5326    3.6929  -26.8794 H   0  0  0  0  0  0
    0.3802    2.1899  -20.8189 H   0  0  0  0  0  0
    7.1168    0.5584  -21.8796 H   0  0  0  0  0  0
   -2.9866    3.8630  -28.2906 H   0  0  0  0  0  0
    7.9490    9.6580  -22.1310 F   0  0  0  0  0  0
    3.2070    8.3660  -22.6560 O   0  0  0  0  0  0
    5.3880    8.7040  -21.0600 N   0  0  1  0  0  0
    4.9860    7.3060  -21.4390 C   0  0  0  0  0  0
    6.6690    8.8210  -20.2740 C   0  0  0  0  0  0
    7.9360    8.6780  -21.1410 C   0  0  0  0  0  0
    3.7550    7.3410  -22.3110 C   0  0  0  0  0  0
    5.5250    9.2941  -21.9541 H   0  0  0  0  0  0
    4.7740    6.7259  -20.5288 H   0  0  0  0  0  0
    5.8095    6.8243  -21.9866 H   0  0  0  0  0  0
    6.6810    8.0589  -19.4809 H   0  0  0  0  0  0
    6.6900    9.7897  -19.7532 H   0  0  0  0  0  0
    8.8283    8.7860  -20.5068 H   0  0  0  0  0  0
    7.9490    7.6836  -21.6112 H   0  0  0  0  0  0
  1  2  2  0  0  0
  1  3  1  0  0  0
  1 34  1  0  0  0
  2  6  1  0  0  0
  2 35  1  0  0  0
  3  5  2  0  0  0
  3 27  1  0  0  0
  4  5  1  0  0  0
  4  6  2  0  0  0
  4 18  1  0  0  0
  5 24  1  0  0  0
  6 10  1  0  0  0
  7 10  2  0  0  0
  7 23  1  0  0  0
  7 33  1  0  0  0
  8 21  1  0  0  0
  8 22  1  0  0  0
  8 36  1  0  0  0
  8 37  1  0  0  0
  9 21  1  0  0  0
  9 31  1  0  0  0
  9 38  1  0  0  0
  9 39  1  0  0  0
 10 40  1  0  0  0
 11 12  1  0  0  0
 11 14  2  0  0  0
 11 15  1  0  0  0
 12 17  1  0  0  0
 12 28  2  0  0  0
 13 28  1  0  0  0
 13 29  2  0  0  0
 13 58  1  0  0  0
 14 29  1  0  0  0
 14 31  1  0  0  0
 15 30  2  0  0  0
 15 41  1  0  0  0
 16 17  2  0  0  0
 16 18  1  0  0  0
 16 30  1  0  0  0
 17 26  1  0  0  0
 18 23  2  0  0  0
 19 20  1  0  0  0
 19 31  1  0  0  0
 19 42  1  0  0  0
 19 43  1  0  0  0
 20 22  1  0  0  0
 20 32  1  0  0  0
 20 44  1  0  0  0
 21 32  1  0  0  0
 21 45  1  0  0  0
 22 46  1  0  0  0
 22 47  1  0  0  0
 23 48  1  0  0  0
 24 25  3  0  0  0
 25 49  1  0  0  0
 32 50  1  0  0  0
 33 51  1  0  0  0
 52 57  1  0  0  0
 53 58  2  0  0  0
 54 55  1  0  0  0
 54 56  1  0  0  0
 54 59  1  0  0  0
 55 58  1  0  0  0
 55 60  1  0  0  0
 55 61  1  0  0  0
 56 57  1  0  0  0
 56 62  1  0  0  0
 56 63  1  0  0  0
 57 64  1  0  0  0
 57 65  1  0  0  0
M  END
> <s_m_entry_id>
714

> <s_m_entry_name>
000000556.1

> <s_m_Source_Path>
/Users/zaksoul/Documents/3r_UNI/2nd_SEMESTER/BSC/FRAG_RECON/RESULTS/2

> <s_m_Source_File>
000000556.mol2

> <i_m_Source_File_Index>
1

$$$$
No_0_578
                    3D
 Schrodinger Suite 2022-4.
 65 70  0  0  1  0            999 V2000
   -4.8560    3.7400  -21.8030 C   0  0  0  0  0  0
   -5.1390    3.9650  -23.1290 C   0  0  0  0  0  0
   -3.6190    3.4490  -21.4880 C   0  0  0  0  0  0
   -2.7600    3.6020  -23.6650 C   0  0  0  0  0  0
   -2.5820    3.3220  -22.2530 C   0  0  0  0  0  0
   -4.1080    3.9090  -24.1570 C   0  0  0  0  0  0
   -3.3880    3.9630  -26.3670 C   0  0  0  0  0  0
    6.4030    2.8720  -21.2810 C   0  0  0  0  0  0
    6.2270    3.0750  -23.8240 C   0  0  0  0  0  0
   -4.3780    4.0730  -25.4850 C   0  0  0  0  0  0
    2.4570    3.7160  -23.7660 C   0  0  0  0  0  0
    1.6690    4.8370  -23.4290 C   0  0  0  0  0  0
    3.5070    5.9730  -22.7520 C   0  0  0  0  0  0
    3.8670    3.8650  -23.4720 C   0  0  0  0  0  0
    1.8730    2.6280  -24.4430 C   0  0  0  0  0  0
   -0.2320    3.4900  -24.2790 C   0  0  0  0  0  0
    0.3350    4.6830  -23.6620 C   0  0  0  0  0  0
   -1.6890    3.5390  -24.6090 C   0  0  0  0  0  0
    4.4150    1.3470  -23.2460 C   0  0  0  0  0  0
    5.3580    0.9430  -22.1230 C   0  0  2  0  0  0
    6.9800    2.4560  -22.6520 C   0  0  2  0  0  0
    5.3830    1.9180  -20.9340 C   0  0  0  0  0  0
   -2.0340    3.7390  -26.0280 C   0  0  0  0  0  0
   -1.2390    2.8620  -21.6860 C   0  0  0  0  0  0
   -0.2090    2.4780  -21.2050 C   0  0  0  0  0  0
   -0.4750    5.7400  -23.2800 F   0  0  0  0  0  0
   -3.3920    3.1700  -20.1150 F   0  0  0  0  0  0
    2.1830    5.9720  -22.8800 N   0  0  0  0  0  0
    4.3750    4.9940  -23.0090 N   0  0  0  0  0  0
    0.5600    2.5770  -24.7290 N   0  0  0  0  0  0
    4.7560    2.7990  -23.6880 N   0  0  0  0  0  0
    6.7580    0.9870  -22.6270 N   0  0  1  0  0  0
   -3.5830    4.0130  -27.7530 O   0  0  0  0  0  0
   -5.6438    3.8062  -21.0614 H   0  0  0  0  0  0
   -6.1534    4.1920  -23.4363 H   0  0  0  0  0  0
    5.9548    3.8734  -21.3607 H   0  0  0  0  0  0
    7.2010    2.8458  -20.5244 H   0  0  0  0  0  0
    6.5954    2.6420  -24.7657 H   0  0  0  0  0  0
    6.3965    4.1618  -23.8351 H   0  0  0  0  0  0
   -5.3889    4.2908  -25.8102 H   0  0  0  0  0  0
    2.4862    1.7900  -24.7541 H   0  0  0  0  0  0
    3.3767    1.3087  -22.8848 H   0  0  0  0  0  0
    4.5462    0.6647  -24.0988 H   0  0  0  0  0  0
    5.1148   -0.0713  -21.7738 H   0  0  0  0  0  0
    8.0536    2.6883  -22.7106 H   0  0  0  0  0  0
    4.4129    2.4318  -20.8633 H   0  0  0  0  0  0
    5.6857    1.3761  -20.0258 H   0  0  0  0  0  0
   -1.2772    3.7179  -26.8038 H   0  0  0  0  0  0
    0.6975    2.1398  -20.7818 H   0  0  0  0  0  0
    7.4041    0.4575  -21.9424 H   0  0  0  0  0  0
   -2.7476    3.9140  -28.1944 H   0  0  0  0  0  0
    8.0680    9.9150  -22.7930 F   0  0  0  0  0  0
    3.4250    8.2770  -22.3530 O   0  0  0  0  0  0
    5.9010    8.6400  -21.2780 N   0  0  1  0  0  0
    5.5050    7.2590  -21.7160 C   0  0  0  0  0  0
    7.3230    8.7890  -20.8020 C   0  0  0  0  0  0
    8.3510    8.8440  -21.9510 C   0  0  0  0  0  0
    4.1010    7.2740  -22.2690 C   0  0  0  0  0  0
    5.7831    9.3276  -22.1025 H   0  0  0  0  0  0
    5.5530    6.5738  -20.8568 H   0  0  0  0  0  0
    6.1998    6.9071  -22.4928 H   0  0  0  0  0  0
    7.5721    7.9547  -20.1298 H   0  0  0  0  0  0
    7.4111    9.6985  -20.1896 H   0  0  0  0  0  0
    9.3615    8.9639  -21.5332 H   0  0  0  0  0  0
    8.3110    7.9059  -22.5241 H   0  0  0  0  0  0
  1  2  2  0  0  0
  1  3  1  0  0  0
  1 34  1  0  0  0
  2  6  1  0  0  0
  2 35  1  0  0  0
  3  5  2  0  0  0
  3 27  1  0  0  0
  4  5  1  0  0  0
  4  6  2  0  0  0
  4 18  1  0  0  0
  5 24  1  0  0  0
  6 10  1  0  0  0
  7 10  2  0  0  0
  7 23  1  0  0  0
  7 33  1  0  0  0
  8 21  1  0  0  0
  8 22  1  0  0  0
  8 36  1  0  0  0
  8 37  1  0  0  0
  9 21  1  0  0  0
  9 31  1  0  0  0
  9 38  1  0  0  0
  9 39  1  0  0  0
 10 40  1  0  0  0
 11 12  1  0  0  0
 11 14  2  0  0  0
 11 15  1  0  0  0
 12 17  1  0  0  0
 12 28  2  0  0  0
 13 28  1  0  0  0
 13 29  2  0  0  0
 13 58  1  0  0  0
 14 29  1  0  0  0
 14 31  1  0  0  0
 15 30  2  0  0  0
 15 41  1  0  0  0
 16 17  2  0  0  0
 16 18  1  0  0  0
 16 30  1  0  0  0
 17 26  1  0  0  0
 18 23  2  0  0  0
 19 20  1  0  0  0
 19 31  1  0  0  0
 19 42  1  0  0  0
 19 43  1  0  0  0
 20 22  1  0  0  0
 20 32  1  0  0  0
 20 44  1  0  0  0
 21 32  1  0  0  0
 21 45  1  0  0  0
 22 46  1  0  0  0
 22 47  1  0  0  0
 23 48  1  0  0  0
 24 25  3  0  0  0
 25 49  1  0  0  0
 32 50  1  0  0  0
 33 51  1  0  0  0
 52 57  1  0  0  0
 53 58  2  0  0  0
 54 55  1  0  0  0
 54 56  1  0  0  0
 54 59  1  0  0  0
 55 58  1  0  0  0
 55 60  1  0  0  0
 55 61  1  0  0  0
 56 57  1  0  0  0
 56 62  1  0  0  0
 56 63  1  0  0  0
 57 64  1  0  0  0
 57 65  1  0  0  0
M  END
> <s_m_entry_id>
715

> <s_m_entry_name>
000000557.1

> <s_m_Source_Path>
/Users/zaksoul/Documents/3r_UNI/2nd_SEMESTER/BSC/FRAG_RECON/RESULTS/2

> <s_m_Source_File>
000000557.mol2

> <i_m_Source_File_Index>
1

$$$$
No_0_579
                    3D
 Schrodinger Suite 2022-4.
 71 77  0  0  1  0            999 V2000
   -5.2690    3.6930  -22.1590 C   0  0  0  0  0  0
   -5.5140    3.8580  -23.5020 C   0  0  0  0  0  0
   -4.0410    3.4240  -21.7960 C   0  0  0  0  0  0
   -3.1190    3.4870  -23.9520 C   0  0  0  0  0  0
   -2.9810    3.2700  -22.5250 C   0  0  0  0  0  0
   -4.4540    3.7640  -24.4970 C   0  0  0  0  0  0
   -3.6700    3.7240  -26.6840 C   0  0  0  0  0  0
    5.9740    2.9200  -21.2750 C   0  0  0  0  0  0
    5.8710    3.0100  -23.8280 C   0  0  0  0  0  0
   -4.6860    3.8670  -25.8380 C   0  0  0  0  0  0
    2.0980    3.6290  -23.9080 C   0  0  0  0  0  0
    1.2940    4.7590  -23.6430 C   0  0  0  0  0  0
    3.1060    5.9350  -22.9650 C   0  0  0  0  0  0
    3.4980    3.8000  -23.5800 C   0  0  0  0  0  0
    1.5390    2.5080  -24.5530 C   0  0  0  0  0  0
   -0.5740    3.3640  -24.4880 C   0  0  0  0  0  0
   -0.0310    4.5860  -23.9080 C   0  0  0  0  0  0
   -2.0220    3.3890  -24.8620 C   0  0  0  0  0  0
    4.0510    1.2980  -23.2270 C   0  0  0  0  0  0
    4.9630    0.9490  -22.0610 C   0  0  2  0  0  0
    6.5920    2.4480  -22.6090 C   0  0  2  0  0  0
    4.9490    1.9750  -20.9160 C   0  0  0  0  0  0
   -2.3250    3.5240  -26.2970 C   0  0  0  0  0  0
   -1.6530    2.8440  -21.9000 C   0  0  0  0  0  0
   -0.6360    2.4880  -21.3730 C   0  0  0  0  0  0
   -0.8580    5.6540  -23.5970 F   0  0  0  0  0  0
   -3.8530    3.2070  -20.4070 F   0  0  0  0  0  0
    1.7870    5.9200  -23.1300 N   0  0  0  0  0  0
    3.9870    4.9510  -23.1530 N   0  0  0  0  0  0
    0.2350    2.4370  -24.8730 N   0  0  0  0  0  0
    4.3980    2.7310  -23.7230 N   0  0  0  0  0  0
    6.3770    0.9790  -22.5260 N   0  0  1  0  0  0
   -3.8250    3.7120  -28.0760 O   0  0  0  0  0  0
   -6.0788    3.7863  -21.4445 H   0  0  0  0  0  0
   -6.5206    4.0647  -23.8472 H   0  0  0  0  0  0
    5.5229    3.9140  -21.4112 H   0  0  0  0  0  0
    6.7503    2.9321  -20.4957 H   0  0  0  0  0  0
    6.2685    2.5388  -24.7390 H   0  0  0  0  0  0
    6.0356    4.0963  -23.8825 H   0  0  0  0  0  0
   -5.6881    4.0638  -26.2015 H   0  0  0  0  0  0
    2.1657    1.6614  -24.8091 H   0  0  0  0  0  0
    3.0028    1.2687  -22.8948 H   0  0  0  0  0  0
    4.2114    0.5795  -24.0444 H   0  0  0  0  0  0
    4.7147   -0.0504  -21.6744 H   0  0  0  0  0  0
    7.6659    2.6832  -22.6463 H   0  0  0  0  0  0
    3.9750    2.4857  -20.8958 H   0  0  0  0  0  0
    5.2275    1.4754  -19.9764 H   0  0  0  0  0  0
   -1.5459    3.4738  -27.0490 H   0  0  0  0  0  0
    0.2596    2.1751  -20.9092 H   0  0  0  0  0  0
    7.0061    0.4847  -21.8006 H   0  0  0  0  0  0
   -2.9768    3.5992  -28.4887 H   0  0  0  0  0  0
    9.4350    9.1950  -21.7030 O   0  0  0  0  0  0
    3.1460    8.2780  -22.9080 O   0  0  0  0  0  0
    5.4690    8.5640  -21.3180 N   0  0  0  0  0  0
    7.4330    8.7930  -22.9210 C   0  0  0  0  0  0
    7.7870    7.9660  -20.5080 C   0  0  0  0  0  0
    6.0380    9.3070  -22.5060 C   0  0  0  0  0  0
    6.4110    8.5570  -20.1370 C   0  0  0  0  0  0
    3.6790    7.2590  -22.5220 C   0  0  0  0  0  0
    8.3340    8.6950  -21.7120 C   0  0  0  0  0  0
    4.9060    7.2010  -21.6400 C   0  0  0  0  0  0
    7.8761    9.4841  -23.6531 H   0  0  0  0  0  0
    7.3340    7.8005  -23.3848 H   0  0  0  0  0  0
    7.6760    6.8978  -20.7460 H   0  0  0  0  0  0
    8.4787    8.0879  -19.6614 H   0  0  0  0  0  0
    6.0990   10.3799  -22.2710 H   0  0  0  0  0  0
    5.3468    9.2190  -23.3572 H   0  0  0  0  0  0
    5.9690    7.9691  -19.3191 H   0  0  0  0  0  0
    6.5421    9.5845  -19.7668 H   0  0  0  0  0  0
    4.6599    6.6769  -20.7047 H   0  0  0  0  0  0
    5.6806    6.5943  -22.1318 H   0  0  0  0  0  0
  1  2  2  0  0  0
  1  3  1  0  0  0
  1 34  1  0  0  0
  2  6  1  0  0  0
  2 35  1  0  0  0
  3  5  2  0  0  0
  3 27  1  0  0  0
  4  5  1  0  0  0
  4  6  2  0  0  0
  4 18  1  0  0  0
  5 24  1  0  0  0
  6 10  1  0  0  0
  7 10  2  0  0  0
  7 23  1  0  0  0
  7 33  1  0  0  0
  8 21  1  0  0  0
  8 22  1  0  0  0
  8 36  1  0  0  0
  8 37  1  0  0  0
  9 21  1  0  0  0
  9 31  1  0  0  0
  9 38  1  0  0  0
  9 39  1  0  0  0
 10 40  1  0  0  0
 11 12  1  0  0  0
 11 14  2  0  0  0
 11 15  1  0  0  0
 12 17  1  0  0  0
 12 28  2  0  0  0
 13 28  1  0  0  0
 13 29  2  0  0  0
 13 59  1  0  0  0
 14 29  1  0  0  0
 14 31  1  0  0  0
 15 30  2  0  0  0
 15 41  1  0  0  0
 16 17  2  0  0  0
 16 18  1  0  0  0
 16 30  1  0  0  0
 17 26  1  0  0  0
 18 23  2  0  0  0
 19 20  1  0  0  0
 19 31  1  0  0  0
 19 42  1  0  0  0
 19 43  1  0  0  0
 20 22  1  0  0  0
 20 32  1  0  0  0
 20 44  1  0  0  0
 21 32  1  0  0  0
 21 45  1  0  0  0
 22 46  1  0  0  0
 22 47  1  0  0  0
 23 48  1  0  0  0
 24 25  3  0  0  0
 25 49  1  0  0  0
 32 50  1  0  0  0
 33 51  1  0  0  0
 52 60  2  0  0  0
 53 59  2  0  0  0
 54 57  1  0  0  0
 54 58  1  0  0  0
 54 61  1  0  0  0
 55 57  1  0  0  0
 55 60  1  0  0  0
 55 62  1  0  0  0
 55 63  1  0  0  0
 56 58  1  0  0  0
 56 60  1  0  0  0
 56 64  1  0  0  0
 56 65  1  0  0  0
 57 66  1  0  0  0
 57 67  1  0  0  0
 58 68  1  0  0  0
 58 69  1  0  0  0
 59 61  1  0  0  0
 61 70  1  0  0  0
 61 71  1  0  0  0
M  END
> <s_m_entry_id>
716

> <s_m_entry_name>
000000558.1

> <s_m_Source_Path>
/Users/zaksoul/Documents/3r_UNI/2nd_SEMESTER/BSC/FRAG_RECON/RESULTS/2

> <s_m_Source_File>
000000558.mol2

> <i_m_Source_File_Index>
1

$$$$
No_0_580
                    3D
 Schrodinger Suite 2022-4.
 71 77  0  0  1  0            999 V2000
   -4.8960    3.6710  -22.0500 C   0  0  0  0  0  0
   -5.1550    3.8560  -23.3870 C   0  0  0  0  0  0
   -3.6610    3.4090  -21.7020 C   0  0  0  0  0  0
   -2.7590    3.5200  -23.8640 C   0  0  0  0  0  0
   -2.6070    3.2790  -22.4420 C   0  0  0  0  0  0
   -4.1020    3.7910  -24.3930 C   0  0  0  0  0  0
   -3.3370    3.7980  -26.5870 C   0  0  0  0  0  0
    6.3620    3.0060  -21.2750 C   0  0  0  0  0  0
    6.2360    3.1400  -23.8250 C   0  0  0  0  0  0
   -4.3460    3.9150  -25.7300 C   0  0  0  0  0  0
    2.4560    3.7180  -23.8620 C   0  0  0  0  0  0
    1.6430    4.8340  -23.5710 C   0  0  0  0  0  0
    3.4470    6.0180  -22.8870 C   0  0  0  0  0  0
    3.8560    3.8990  -23.5430 C   0  0  0  0  0  0
    1.9040    2.6030  -24.5210 C   0  0  0  0  0  0
   -0.2170    3.4340  -24.4240 C   0  0  0  0  0  0
    0.3160    4.6520  -23.8270 C   0  0  0  0  0  0
   -1.6690    3.4500  -24.7850 C   0  0  0  0  0  0
    4.4410    1.3970  -23.2390 C   0  0  0  0  0  0
    5.3660    1.0380  -22.0870 C   0  0  2  0  0  0
    6.9740    2.5640  -22.6220 C   0  0  2  0  0  0
    5.3510    2.0440  -20.9240 C   0  0  0  0  0  0
   -1.9860    3.6070  -26.2150 C   0  0  0  0  0  0
   -1.2690    2.8570  -21.8360 C   0  0  0  0  0  0
   -0.2430    2.5030  -21.3240 C   0  0  0  0  0  0
   -0.5190    5.7050  -23.4900 F   0  0  0  0  0  0
   -3.4590    3.1700  -20.3180 F   0  0  0  0  0  0
    2.1270    5.9910  -23.0410 N   0  0  0  0  0  0
    4.3370    5.0470  -23.1000 N   0  0  0  0  0  0
    0.5980    2.5230  -24.8320 N   0  0  0  0  0  0
    4.7670    2.8430  -23.7120 N   0  0  0  0  0  0
    6.7750    1.0920  -22.5630 N   0  0  1  0  0  0
   -3.5030    3.8090  -27.9780 O   0  0  0  0  0  0
   -5.7008    3.7433  -21.3275 H   0  0  0  0  0  0
   -6.1662    4.0578  -23.7214 H   0  0  0  0  0  0
    5.8996    3.9974  -21.3901 H   0  0  0  0  0  0
    7.1443    3.0131  -20.5018 H   0  0  0  0  0  0
    6.6306    2.6889  -24.7474 H   0  0  0  0  0  0
    6.3884    4.2288  -23.8613 H   0  0  0  0  0  0
   -5.3533    4.1076  -26.0811 H   0  0  0  0  0  0
    2.5374    1.7678  -24.7971 H   0  0  0  0  0  0
    3.3962    1.3506  -22.8981 H   0  0  0  0  0  0
    4.6004    0.6947  -24.0705 H   0  0  0  0  0  0
    5.1318    0.0295  -21.7155 H   0  0  0  0  0  0
    8.0448    2.8123  -22.6644 H   0  0  0  0  0  0
    4.3712    2.5425  -20.8867 H   0  0  0  0  0  0
    5.6427    1.5313  -19.9955 H   0  0  0  0  0  0
   -1.2128    3.5779  -26.9742 H   0  0  0  0  0  0
    0.6602    2.1919  -20.8739 H   0  0  0  0  0  0
    7.4155    0.5916  -21.8519 H   0  0  0  0  0  0
   -2.6570    3.7130  -28.3995 H   0  0  0  0  0  0
    9.6790    9.6630  -22.5050 O   0  0  0  0  0  0
    3.3480    8.3430  -22.5980 O   0  0  0  0  0  0
    5.9120    8.6770  -21.4500 N   0  0  0  0  0  0
    7.5090    9.2070  -23.3610 C   0  0  0  0  0  0
    8.3770    8.2020  -21.1540 C   0  0  0  0  0  0
    6.1910    9.5660  -22.6420 C   0  0  0  0  0  0
    7.0640    8.6430  -20.4740 C   0  0  0  0  0  0
    4.0100    7.3410  -22.4260 C   0  0  0  0  0  0
    8.6320    9.0780  -22.3580 C   0  0  0  0  0  0
    5.3860    7.3060  -21.8000 C   0  0  0  0  0  0
    7.7561    9.9944  -24.0883 H   0  0  0  0  0  0
    7.3859    8.2545  -23.8973 H   0  0  0  0  0  0
    8.2900    7.1535  -21.4751 H   0  0  0  0  0  0
    9.2100    8.3050  -20.4430 H   0  0  0  0  0  0
    6.2280   10.6151  -22.3133 H   0  0  0  0  0  0
    5.3556    9.4970  -23.3543 H   0  0  0  0  0  0
    6.8269    7.9507  -19.6527 H   0  0  0  0  0  0
    7.1980    9.6409  -20.0310 H   0  0  0  0  0  0
    5.3590    6.6829  -20.8939 H   0  0  0  0  0  0
    6.0872    6.8099  -22.4872 H   0  0  0  0  0  0
  1  2  2  0  0  0
  1  3  1  0  0  0
  1 34  1  0  0  0
  2  6  1  0  0  0
  2 35  1  0  0  0
  3  5  2  0  0  0
  3 27  1  0  0  0
  4  5  1  0  0  0
  4  6  2  0  0  0
  4 18  1  0  0  0
  5 24  1  0  0  0
  6 10  1  0  0  0
  7 10  2  0  0  0
  7 23  1  0  0  0
  7 33  1  0  0  0
  8 21  1  0  0  0
  8 22  1  0  0  0
  8 36  1  0  0  0
  8 37  1  0  0  0
  9 21  1  0  0  0
  9 31  1  0  0  0
  9 38  1  0  0  0
  9 39  1  0  0  0
 10 40  1  0  0  0
 11 12  1  0  0  0
 11 14  2  0  0  0
 11 15  1  0  0  0
 12 17  1  0  0  0
 12 28  2  0  0  0
 13 28  1  0  0  0
 13 29  2  0  0  0
 13 59  1  0  0  0
 14 29  1  0  0  0
 14 31  1  0  0  0
 15 30  2  0  0  0
 15 41  1  0  0  0
 16 17  2  0  0  0
 16 18  1  0  0  0
 16 30  1  0  0  0
 17 26  1  0  0  0
 18 23  2  0  0  0
 19 20  1  0  0  0
 19 31  1  0  0  0
 19 42  1  0  0  0
 19 43  1  0  0  0
 20 22  1  0  0  0
 20 32  1  0  0  0
 20 44  1  0  0  0
 21 32  1  0  0  0
 21 45  1  0  0  0
 22 46  1  0  0  0
 22 47  1  0  0  0
 23 48  1  0  0  0
 24 25  3  0  0  0
 25 49  1  0  0  0
 32 50  1  0  0  0
 33 51  1  0  0  0
 52 60  2  0  0  0
 53 59  2  0  0  0
 54 57  1  0  0  0
 54 58  1  0  0  0
 54 61  1  0  0  0
 55 57  1  0  0  0
 55 60  1  0  0  0
 55 62  1  0  0  0
 55 63  1  0  0  0
 56 58  1  0  0  0
 56 60  1  0  0  0
 56 64  1  0  0  0
 56 65  1  0  0  0
 57 66  1  0  0  0
 57 67  1  0  0  0
 58 68  1  0  0  0
 58 69  1  0  0  0
 59 61  1  0  0  0
 61 70  1  0  0  0
 61 71  1  0  0  0
M  END
> <s_m_entry_id>
717

> <s_m_entry_name>
000000559.1

> <s_m_Source_Path>
/Users/zaksoul/Documents/3r_UNI/2nd_SEMESTER/BSC/FRAG_RECON/RESULTS/2

> <s_m_Source_File>
000000559.mol2

> <i_m_Source_File_Index>
1

$$$$
No_0_581
                    3D
 Schrodinger Suite 2022-4.
 71 77  0  0  1  0            999 V2000
   -4.9850    3.7640  -21.7200 C   0  0  0  0  0  0
   -5.2800    3.9540  -23.0500 C   0  0  0  0  0  0
   -3.7430    3.4910  -21.4090 C   0  0  0  0  0  0
   -2.9020    3.5980  -23.5950 C   0  0  0  0  0  0
   -2.7120    3.3540  -22.1780 C   0  0  0  0  0  0
   -4.2570    3.8820  -24.0850 C   0  0  0  0  0  0
   -3.5550    3.8860  -26.3000 C   0  0  0  0  0  0
    6.2840    3.0010  -21.2680 C   0  0  0  0  0  0
    6.0870    3.1400  -23.8130 C   0  0  0  0  0  0
   -4.5390    4.0100  -25.4140 C   0  0  0  0  0  0
    2.3120    3.7510  -23.7410 C   0  0  0  0  0  0
    1.5170    4.8740  -23.4260 C   0  0  0  0  0  0
    3.3510    6.0410  -22.7920 C   0  0  0  0  0  0
    3.7230    3.9190  -23.4620 C   0  0  0  0  0  0
    1.7320    2.6410  -24.3860 C   0  0  0  0  0  0
   -0.3780    3.4910  -24.2270 C   0  0  0  0  0  0
    0.1830    4.7030  -23.6440 C   0  0  0  0  0  0
   -1.8390    3.5200  -24.5470 C   0  0  0  0  0  0
    4.2930    1.4120  -23.1780 C   0  0  0  0  0  0
    5.2480    1.0430  -22.0530 C   0  0  2  0  0  0
    6.8530    2.5560  -22.6320 C   0  0  2  0  0  0
    5.2750    2.0470  -20.8890 C   0  0  0  0  0  0
   -2.1960    3.6820  -25.9670 C   0  0  0  0  0  0
   -1.3610    2.9200  -21.6110 C   0  0  0  0  0  0
   -0.3240    2.5560  -21.1290 C   0  0  0  0  0  0
   -0.6330    5.7630  -23.2820 F   0  0  0  0  0  0
   -3.5040    3.2490  -20.0310 F   0  0  0  0  0  0
    2.0260    6.0260  -22.9090 N   0  0  0  0  0  0
    4.2260    5.0630  -23.0310 N   0  0  0  0  0  0
    0.4170    2.5730  -24.6600 N   0  0  0  0  0  0
    4.6190    2.8550  -23.6590 N   0  0  0  0  0  0
    6.6440    1.0860  -22.5700 N   0  0  1  0  0  0
   -3.7610    3.9000  -27.6860 O   0  0  0  0  0  0
   -5.7683    3.8423  -20.9748 H   0  0  0  0  0  0
   -6.2987    4.1658  -23.3541 H   0  0  0  0  0  0
    5.8267    3.9963  -21.3689 H   0  0  0  0  0  0
    7.0881    3.0000  -20.5174 H   0  0  0  0  0  0
    6.4514    2.6868  -24.7467 H   0  0  0  0  0  0
    6.2466    4.2277  -23.8524 H   0  0  0  0  0  0
   -5.5541    4.2118  -25.7363 H   0  0  0  0  0  0
    2.3503    1.8009  -24.6811 H   0  0  0  0  0  0
    3.2580    1.3736  -22.8074 H   0  0  0  0  0  0
    4.4242    0.7097  -24.0144 H   0  0  0  0  0  0
    5.0158    0.0355  -21.6775 H   0  0  0  0  0  0
    7.9242    2.7950  -22.7056 H   0  0  0  0  0  0
    4.3013    2.5545  -20.8234 H   0  0  0  0  0  0
    5.5888    1.5305  -19.9699 H   0  0  0  0  0  0
   -1.4451    3.6469  -26.7480 H   0  0  0  0  0  0
    0.5888    2.2361  -20.7051 H   0  0  0  0  0  0
    7.2994    0.5792  -21.8772 H   0  0  0  0  0  0
   -2.9281    3.7971  -28.1311 H   0  0  0  0  0  0
    9.4350    9.9250  -23.2030 O   0  0  0  0  0  0
    3.2240    8.3380  -22.3430 O   0  0  0  0  0  0
    5.9300    8.7170  -21.6110 N   0  0  0  0  0  0
    7.1690    9.4250  -23.7190 C   0  0  0  0  0  0
    8.4250    8.3330  -21.7540 C   0  0  0  0  0  0
    5.9780    9.6850  -22.7730 C   0  0  0  0  0  0
    7.2290    8.6760  -20.8410 C   0  0  0  0  0  0
    3.9380    7.3580  -22.3460 C   0  0  0  0  0  0
    8.4470    9.2870  -22.9250 C   0  0  0  0  0  0
    5.3990    7.3470  -21.9570 C   0  0  0  0  0  0
    7.2660   10.2630  -24.4250 H   0  0  0  0  0  0
    6.9901    8.5013  -24.2888 H   0  0  0  0  0  0
    8.3200    7.3021  -22.1230 H   0  0  0  0  0  0
    9.3608    8.4310  -21.1841 H   0  0  0  0  0  0
    6.0340   10.7142  -22.3889 H   0  0  0  0  0  0
    5.0382    9.6200  -23.3409 H   0  0  0  0  0  0
    7.1549    7.9285  -20.0374 H   0  0  0  0  0  0
    7.4019    9.6516  -20.3632 H   0  0  0  0  0  0
    5.5440    6.6718  -21.1008 H   0  0  0  0  0  0
    5.9928    6.9221  -22.7797 H   0  0  0  0  0  0
  1  2  2  0  0  0
  1  3  1  0  0  0
  1 34  1  0  0  0
  2  6  1  0  0  0
  2 35  1  0  0  0
  3  5  2  0  0  0
  3 27  1  0  0  0
  4  5  1  0  0  0
  4  6  2  0  0  0
  4 18  1  0  0  0
  5 24  1  0  0  0
  6 10  1  0  0  0
  7 10  2  0  0  0
  7 23  1  0  0  0
  7 33  1  0  0  0
  8 21  1  0  0  0
  8 22  1  0  0  0
  8 36  1  0  0  0
  8 37  1  0  0  0
  9 21  1  0  0  0
  9 31  1  0  0  0
  9 38  1  0  0  0
  9 39  1  0  0  0
 10 40  1  0  0  0
 11 12  1  0  0  0
 11 14  2  0  0  0
 11 15  1  0  0  0
 12 17  1  0  0  0
 12 28  2  0  0  0
 13 28  1  0  0  0
 13 29  2  0  0  0
 13 59  1  0  0  0
 14 29  1  0  0  0
 14 31  1  0  0  0
 15 30  2  0  0  0
 15 41  1  0  0  0
 16 17  2  0  0  0
 16 18  1  0  0  0
 16 30  1  0  0  0
 17 26  1  0  0  0
 18 23  2  0  0  0
 19 20  1  0  0  0
 19 31  1  0  0  0
 19 42  1  0  0  0
 19 43  1  0  0  0
 20 22  1  0  0  0
 20 32  1  0  0  0
 20 44  1  0  0  0
 21 32  1  0  0  0
 21 45  1  0  0  0
 22 46  1  0  0  0
 22 47  1  0  0  0
 23 48  1  0  0  0
 24 25  3  0  0  0
 25 49  1  0  0  0
 32 50  1  0  0  0
 33 51  1  0  0  0
 52 60  2  0  0  0
 53 59  2  0  0  0
 54 57  1  0  0  0
 54 58  1  0  0  0
 54 61  1  0  0  0
 55 57  1  0  0  0
 55 60  1  0  0  0
 55 62  1  0  0  0
 55 63  1  0  0  0
 56 58  1  0  0  0
 56 60  1  0  0  0
 56 64  1  0  0  0
 56 65  1  0  0  0
 57 66  1  0  0  0
 57 67  1  0  0  0
 58 68  1  0  0  0
 58 69  1  0  0  0
 59 61  1  0  0  0
 61 70  1  0  0  0
 61 71  1  0  0  0
M  END
> <s_m_entry_id>
718

> <s_m_entry_name>
000000560.1

> <s_m_Source_Path>
/Users/zaksoul/Documents/3r_UNI/2nd_SEMESTER/BSC/FRAG_RECON/RESULTS/2

> <s_m_Source_File>
000000560.mol2

> <i_m_Source_File_Index>
1

$$$$
No_0_582
                    3D
 Schrodinger Suite 2022-4.
 71 77  0  0  1  0            999 V2000
   -5.2680    3.8490  -21.8110 C   0  0  0  0  0  0
   -5.5630    4.0030  -23.1450 C   0  0  0  0  0  0
   -4.0290    3.5710  -21.4940 C   0  0  0  0  0  0
   -3.1910    3.6010  -23.6840 C   0  0  0  0  0  0
   -3.0010    3.3980  -22.2610 C   0  0  0  0  0  0
   -4.5440    3.8870  -24.1790 C   0  0  0  0  0  0
   -3.8470    3.8160  -26.3950 C   0  0  0  0  0  0
    5.9920    2.9650  -21.3560 C   0  0  0  0  0  0
    5.7910    3.0290  -23.9050 C   0  0  0  0  0  0
   -4.8270    3.9790  -25.5110 C   0  0  0  0  0  0
    2.0240    3.6870  -23.8440 C   0  0  0  0  0  0
    1.2440    4.8290  -23.5610 C   0  0  0  0  0  0
    3.0920    5.9920  -22.9660 C   0  0  0  0  0  0
    3.4370    3.8470  -23.5730 C   0  0  0  0  0  0
    1.4290    2.5660  -24.4550 C   0  0  0  0  0  0
   -0.6700    3.4450  -24.3170 C   0  0  0  0  0  0
   -0.0930    4.6680  -23.7720 C   0  0  0  0  0  0
   -2.1310    3.4820  -24.6340 C   0  0  0  0  0  0
    3.9790    1.3430  -23.2150 C   0  0  0  0  0  0
    4.9320    0.9970  -22.0810 C   0  0  2  0  0  0
    6.5530    2.4720  -22.7080 C   0  0  2  0  0  0
    4.9730    2.0350  -20.9480 C   0  0  0  0  0  0
   -2.4900    3.6060  -26.0580 C   0  0  0  0  0  0
   -1.6530    2.9640  -21.6830 C   0  0  0  0  0  0
   -0.6200    2.6030  -21.1930 C   0  0  0  0  0  0
   -0.8960    5.7480  -23.4400 F   0  0  0  0  0  0
   -3.7890    3.3660  -20.1100 F   0  0  0  0  0  0
    1.7670    5.9900  -23.0800 N   0  0  0  0  0  0
    3.9550    4.9970  -23.1770 N   0  0  0  0  0  0
    0.1130    2.5060  -24.7240 N   0  0  0  0  0  0
    4.3200    2.7670  -23.7390 N   0  0  0  0  0  0
    6.3270    1.0070  -22.6010 N   0  0  1  0  0  0
   -4.0550    3.7910  -27.7800 O   0  0  0  0  0  0
   -6.0484    3.9585  -21.0667 H   0  0  0  0  0  0
   -6.5801    4.2167  -23.4529 H   0  0  0  0  0  0
    5.5468    3.9624  -21.4862 H   0  0  0  0  0  0
    6.7985    2.9761  -20.6080 H   0  0  0  0  0  0
    6.1483    2.5445  -24.8256 H   0  0  0  0  0  0
    5.9646    4.1129  -23.9767 H   0  0  0  0  0  0
   -5.8406    4.1819  -25.8375 H   0  0  0  0  0  0
    2.0368    1.7101  -24.7252 H   0  0  0  0  0  0
    2.9444    1.3279  -22.8416 H   0  0  0  0  0  0
    4.0991    0.6144  -24.0303 H   0  0  0  0  0  0
    4.6889    0.0042  -21.6744 H   0  0  0  0  0  0
    7.6268    2.6960  -22.7908 H   0  0  0  0  0  0
    4.0054    2.5556  -20.8955 H   0  0  0  0  0  0
    5.2826    1.5429  -20.0142 H   0  0  0  0  0  0
   -1.7417    3.5388  -26.8394 H   0  0  0  0  0  0
    0.2895    2.2848  -20.7608 H   0  0  0  0  0  0
    6.9783    0.5129  -21.8952 H   0  0  0  0  0  0
   -3.2244    3.6653  -28.2235 H   0  0  0  0  0  0
    3.1530    8.3310  -22.9400 O   0  0  0  0  0  0
    8.6610    7.9310  -22.0520 O   0  0  0  0  0  0
    5.3500    8.7030  -21.3330 N   0  3  1  0  0  0
    6.4180    8.8140  -20.2890 C   0  0  0  0  0  0
    6.0820    9.4700  -22.3910 C   0  0  0  0  0  0
    4.9340    7.3040  -21.6940 C   0  0  0  0  0  0
    8.5670    9.3150  -21.6790 C   0  0  0  0  0  0
    7.1370    9.7450  -21.2930 C   0  0  2  0  0  0
    3.6960    7.3150  -22.5600 C   0  0  0  0  0  0
    9.5602    7.7240  -22.2780 H   0  0  0  0  0  0
    4.5406    9.2276  -21.0402 H   0  0  0  0  0  0
    6.9647    7.8595  -20.2900 H   0  0  0  0  0  0
    6.0173    9.4546  -19.4896 H   0  0  0  0  0  0
    5.5297   10.4086  -22.5461 H   0  0  0  0  0  0
    6.5208    8.7293  -23.0757 H   0  0  0  0  0  0
    4.7330    6.7340  -20.7749 H   0  0  0  0  0  0
    5.7541    6.8060  -22.2320 H   0  0  0  0  0  0
    8.9261    9.9422  -22.5083 H   0  0  0  0  0  0
    9.2479    9.5130  -20.8381 H   0  0  0  0  0  0
    7.1080   10.7934  -20.9612 H   0  0  0  0  0  0
  1  2  2  0  0  0
  1  3  1  0  0  0
  1 34  1  0  0  0
  2  6  1  0  0  0
  2 35  1  0  0  0
  3  5  2  0  0  0
  3 27  1  0  0  0
  4  5  1  0  0  0
  4  6  2  0  0  0
  4 18  1  0  0  0
  5 24  1  0  0  0
  6 10  1  0  0  0
  7 10  2  0  0  0
  7 23  1  0  0  0
  7 33  1  0  0  0
  8 21  1  0  0  0
  8 22  1  0  0  0
  8 36  1  0  0  0
  8 37  1  0  0  0
  9 21  1  0  0  0
  9 31  1  0  0  0
  9 38  1  0  0  0
  9 39  1  0  0  0
 10 40  1  0  0  0
 11 12  1  0  0  0
 11 14  2  0  0  0
 11 15  1  0  0  0
 12 17  1  0  0  0
 12 28  2  0  0  0
 13 28  1  0  0  0
 13 29  2  0  0  0
 13 60  1  0  0  0
 14 29  1  0  0  0
 14 31  1  0  0  0
 15 30  2  0  0  0
 15 41  1  0  0  0
 16 17  2  0  0  0
 16 18  1  0  0  0
 16 30  1  0  0  0
 17 26  1  0  0  0
 18 23  2  0  0  0
 19 20  1  0  0  0
 19 31  1  0  0  0
 19 42  1  0  0  0
 19 43  1  0  0  0
 20 22  1  0  0  0
 20 32  1  0  0  0
 20 44  1  0  0  0
 21 32  1  0  0  0
 21 45  1  0  0  0
 22 46  1  0  0  0
 22 47  1  0  0  0
 23 48  1  0  0  0
 24 25  3  0  0  0
 25 49  1  0  0  0
 32 50  1  0  0  0
 33 51  1  0  0  0
 52 60  2  0  0  0
 53 58  1  0  0  0
 53 61  1  0  0  0
 54 55  1  0  0  0
 54 56  1  0  0  0
 54 57  1  0  0  0
 54 62  1  0  0  0
 55 59  1  0  0  0
 55 63  1  0  0  0
 55 64  1  0  0  0
 56 59  1  0  0  0
 56 65  1  0  0  0
 56 66  1  0  0  0
 57 60  1  0  0  0
 57 67  1  0  0  0
 57 68  1  0  0  0
 58 59  1  0  0  0
 58 69  1  0  0  0
 58 70  1  0  0  0
 59 71  1  0  0  0
M  CHG  1  54   1
M  END
> <s_m_entry_id>
719

> <s_m_entry_name>
000000561.1

> <s_m_Source_Path>
/Users/zaksoul/Documents/3r_UNI/2nd_SEMESTER/BSC/FRAG_RECON/RESULTS/2

> <s_m_Source_File>
000000561.mol2

> <i_m_Source_File_Index>
1

$$$$
No_0_583
                    3D
 Schrodinger Suite 2022-4.
 71 77  0  0  1  0            999 V2000
   -4.8910    3.5860  -22.0430 C   0  0  0  0  0  0
   -5.1660    3.7870  -23.3750 C   0  0  0  0  0  0
   -3.6510    3.3250  -21.7140 C   0  0  0  0  0  0
   -2.7750    3.4650  -23.8850 C   0  0  0  0  0  0
   -2.6050    3.2090  -22.4680 C   0  0  0  0  0  0
   -4.1260    3.7380  -24.3940 C   0  0  0  0  0  0
   -3.3870    3.7750  -26.5970 C   0  0  0  0  0  0
    6.3780    2.9570  -21.4120 C   0  0  0  0  0  0
    6.2210    3.1210  -23.9590 C   0  0  0  0  0  0
   -4.3860    3.8770  -25.7260 C   0  0  0  0  0  0
    2.4390    3.6840  -23.9430 C   0  0  0  0  0  0
    1.6250    4.7940  -23.6290 C   0  0  0  0  0  0
    3.4330    5.9760  -22.9520 C   0  0  0  0  0  0
    3.8420    3.8670  -23.6390 C   0  0  0  0  0  0
    1.8830    2.5750  -24.6090 C   0  0  0  0  0  0
   -0.2400    3.3960  -24.4760 C   0  0  0  0  0  0
    0.2960    4.6090  -23.8710 C   0  0  0  0  0  0
   -1.6960    3.4110  -24.8190 C   0  0  0  0  0  0
    4.4390    1.3640  -23.3720 C   0  0  0  0  0  0
    5.3800    0.9950  -22.2350 C   0  0  2  0  0  0
    6.9750    2.5330  -22.7710 C   0  0  2  0  0  0
    5.3750    1.9870  -21.0600 C   0  0  0  0  0  0
   -2.0310    3.5840  -26.2430 C   0  0  0  0  0  0
   -1.2580    2.7850  -21.8830 C   0  0  0  0  0  0
   -0.2250    2.4290  -21.3880 C   0  0  0  0  0  0
   -0.5390    5.6550  -23.5110 F   0  0  0  0  0  0
   -3.4310    3.0700  -20.3360 F   0  0  0  0  0  0
    2.1100    5.9460  -23.0910 N   0  0  0  0  0  0
    4.3230    5.0120  -23.1870 N   0  0  0  0  0  0
    0.5740    2.4930  -24.9050 N   0  0  0  0  0  0
    4.7540    2.8160  -23.8310 N   0  0  0  0  0  0
    6.7830    1.0600  -22.7280 N   0  0  1  0  0  0
   -3.5700    3.8020  -27.9860 O   0  0  0  0  0  0
   -5.6873    3.6462  -21.3100 H   0  0  0  0  0  0
   -6.1821    3.9888  -23.6943 H   0  0  0  0  0  0
    5.9108    3.9480  -21.5099 H   0  0  0  0  0  0
    7.1698    2.9570  -20.6484 H   0  0  0  0  0  0
    6.6067    2.6818  -24.8909 H   0  0  0  0  0  0
    6.3685    4.2108  -23.9832 H   0  0  0  0  0  0
   -5.3981    4.0696  -26.0630 H   0  0  0  0  0  0
    2.5164    1.7459  -24.9031 H   0  0  0  0  0  0
    3.3987    1.3095  -23.0188 H   0  0  0  0  0  0
    4.5924    0.6727  -24.2137 H   0  0  0  0  0  0
    5.1540   -0.0191  -21.8738 H   0  0  0  0  0  0
    8.0442    2.7862  -22.8235 H   0  0  0  0  0  0
    4.3940    2.4815  -21.0045 H   0  0  0  0  0  0
    5.6798    1.4641  -20.1415 H   0  0  0  0  0  0
   -1.2676    3.5669  -27.0124 H   0  0  0  0  0  0
    0.6841    2.1150  -20.9520 H   0  0  0  0  0  0
    7.4339    0.5544  -22.0301 H   0  0  0  0  0  0
   -2.7288    3.7139  -28.4185 H   0  0  0  0  0  0
    3.3220    8.2920  -22.6380 O   0  0  0  0  0  0
    8.9160    8.3170  -22.6930 O   0  0  0  0  0  0
    5.7250    8.6860  -21.3660 N   0  3  1  0  0  0
    6.9430    8.7780  -20.4980 C   0  0  0  0  0  0
    6.2090    9.6340  -22.4200 C   0  0  0  0  0  0
    5.3600    7.3040  -21.8310 C   0  0  0  0  0  0
    8.7830    9.6340  -22.1370 C   0  0  0  0  0  0
    7.4100    9.8810  -21.4770 C   0  0  2  0  0  0
    3.9960    7.2960  -22.4820 C   0  0  0  0  0  0
    9.7767    8.2230  -23.0839 H   0  0  0  0  0  0
    4.9395    9.0947  -20.8843 H   0  0  0  0  0  0
    7.5511    7.8858  -20.7080 H   0  0  0  0  0  0
    6.6358    9.2833  -19.5705 H   0  0  0  0  0  0
    5.5697   10.5274  -22.3650 H   0  0  0  0  0  0
    6.5788    9.0203  -23.2546 H   0  0  0  0  0  0
    5.3600    6.6159  -20.9728 H   0  0  0  0  0  0
    6.1113    6.9499  -22.5522 H   0  0  0  0  0  0
    8.9490   10.3832  -22.9252 H   0  0  0  0  0  0
    9.5789    9.8000  -21.3961 H   0  0  0  0  0  0
    7.3600   10.8776  -21.0142 H   0  0  0  0  0  0
  1  2  2  0  0  0
  1  3  1  0  0  0
  1 34  1  0  0  0
  2  6  1  0  0  0
  2 35  1  0  0  0
  3  5  2  0  0  0
  3 27  1  0  0  0
  4  5  1  0  0  0
  4  6  2  0  0  0
  4 18  1  0  0  0
  5 24  1  0  0  0
  6 10  1  0  0  0
  7 10  2  0  0  0
  7 23  1  0  0  0
  7 33  1  0  0  0
  8 21  1  0  0  0
  8 22  1  0  0  0
  8 36  1  0  0  0
  8 37  1  0  0  0
  9 21  1  0  0  0
  9 31  1  0  0  0
  9 38  1  0  0  0
  9 39  1  0  0  0
 10 40  1  0  0  0
 11 12  1  0  0  0
 11 14  2  0  0  0
 11 15  1  0  0  0
 12 17  1  0  0  0
 12 28  2  0  0  0
 13 28  1  0  0  0
 13 29  2  0  0  0
 13 60  1  0  0  0
 14 29  1  0  0  0
 14 31  1  0  0  0
 15 30  2  0  0  0
 15 41  1  0  0  0
 16 17  2  0  0  0
 16 18  1  0  0  0
 16 30  1  0  0  0
 17 26  1  0  0  0
 18 23  2  0  0  0
 19 20  1  0  0  0
 19 31  1  0  0  0
 19 42  1  0  0  0
 19 43  1  0  0  0
 20 22  1  0  0  0
 20 32  1  0  0  0
 20 44  1  0  0  0
 21 32  1  0  0  0
 21 45  1  0  0  0
 22 46  1  0  0  0
 22 47  1  0  0  0
 23 48  1  0  0  0
 24 25  3  0  0  0
 25 49  1  0  0  0
 32 50  1  0  0  0
 33 51  1  0  0  0
 52 60  2  0  0  0
 53 58  1  0  0  0
 53 61  1  0  0  0
 54 55  1  0  0  0
 54 56  1  0  0  0
 54 57  1  0  0  0
 54 62  1  0  0  0
 55 59  1  0  0  0
 55 63  1  0  0  0
 55 64  1  0  0  0
 56 59  1  0  0  0
 56 65  1  0  0  0
 56 66  1  0  0  0
 57 60  1  0  0  0
 57 67  1  0  0  0
 57 68  1  0  0  0
 58 59  1  0  0  0
 58 69  1  0  0  0
 58 70  1  0  0  0
 59 71  1  0  0  0
M  CHG  1  54   1
M  END
> <s_m_entry_id>
720

> <s_m_entry_name>
000000562.1

> <s_m_Source_Path>
/Users/zaksoul/Documents/3r_UNI/2nd_SEMESTER/BSC/FRAG_RECON/RESULTS/2

> <s_m_Source_File>
000000562.mol2

> <i_m_Source_File_Index>
1

$$$$
No_0_584
                    3D
 Schrodinger Suite 2022-4.
 71 77  0  0  1  0            999 V2000
   -4.9320    3.5580  -22.0460 C   0  0  0  0  0  0
   -5.2020    3.7330  -23.3830 C   0  0  0  0  0  0
   -3.6990    3.2770  -21.7090 C   0  0  0  0  0  0
   -2.8190    3.3470  -23.8820 C   0  0  0  0  0  0
   -2.6550    3.1200  -22.4590 C   0  0  0  0  0  0
   -4.1630    3.6370  -24.3990 C   0  0  0  0  0  0
   -3.4230    3.6050  -26.6020 C   0  0  0  0  0  0
    6.3200    2.6940  -21.3890 C   0  0  0  0  0  0
    6.1670    2.8010  -23.9400 C   0  0  0  0  0  0
   -4.4200    3.7500  -25.7340 C   0  0  0  0  0  0
    2.3980    3.4490  -23.9410 C   0  0  0  0  0  0
    1.6090    4.5830  -23.6540 C   0  0  0  0  0  0
    3.4430    5.7410  -23.0040 C   0  0  0  0  0  0
    3.8050    3.6070  -23.6400 C   0  0  0  0  0  0
    1.8180    2.3360  -24.5810 C   0  0  0  0  0  0
   -0.2860    3.2070  -24.4690 C   0  0  0  0  0  0
    0.2770    4.4220  -23.8930 C   0  0  0  0  0  0
   -1.7410    3.2460  -24.8140 C   0  0  0  0  0  0
    4.3470    1.0990  -23.3130 C   0  0  0  0  0  0
    5.2790    0.7360  -22.1670 C   0  0  2  0  0  0
    6.9080    2.2260  -22.7380 C   0  0  2  0  0  0
    5.2950    1.7560  -21.0150 C   0  0  0  0  0  0
   -2.0720    3.3920  -26.2420 C   0  0  0  0  0  0
   -1.3180    2.6800  -21.8630 C   0  0  0  0  0  0
   -0.2940    2.3130  -21.3590 C   0  0  0  0  0  0
   -0.5350    5.4940  -23.5590 F   0  0  0  0  0  0
   -3.4850    3.0510  -20.3250 F   0  0  0  0  0  0
    2.1200    5.7370  -23.1430 N   0  0  0  0  0  0
    4.3120    4.7520  -23.2150 N   0  0  0  0  0  0
    0.5080    2.2770  -24.8760 N   0  0  0  0  0  0
    4.6940    2.5330  -23.8060 N   0  0  0  0  0  0
    6.6830    0.7590  -22.6600 N   0  0  1  0  0  0
   -3.6050    3.6020  -27.9900 O   0  0  0  0  0  0
   -5.7270    3.6534  -21.3153 H   0  0  0  0  0  0
   -6.2135    3.9497  -23.7071 H   0  0  0  0  0  0
    5.8743    3.6922  -21.5110 H   0  0  0  0  0  0
    7.1113    2.6960  -20.6249 H   0  0  0  0  0  0
    6.5436    2.3315  -24.8608 H   0  0  0  0  0  0
    6.3386    3.8864  -23.9905 H   0  0  0  0  0  0
   -5.4276    3.9567  -26.0762 H   0  0  0  0  0  0
    2.4335    1.4865  -24.8541 H   0  0  0  0  0  0
    3.3055    1.0758  -22.9598 H   0  0  0  0  0  0
    4.4853    0.3843  -24.1377 H   0  0  0  0  0  0
    5.0308   -0.2639  -21.7816 H   0  0  0  0  0  0
    7.9826    2.4540  -22.7955 H   0  0  0  0  0  0
    4.3249    2.2728  -20.9726 H   0  0  0  0  0  0
    5.5887    1.2483  -20.0844 H   0  0  0  0  0  0
   -1.3084    3.3408  -27.0097 H   0  0  0  0  0  0
    0.6080    1.9900  -20.9150 H   0  0  0  0  0  0
    7.3221    0.2546  -21.9504 H   0  0  0  0  0  0
   -2.7661    3.4853  -28.4203 H   0  0  0  0  0  0
    3.3080    8.0300  -22.5370 O   0  0  0  0  0  0
    8.7940    8.3130  -23.5970 O   0  0  0  0  0  0
    5.8870    8.4660  -21.6970 N   0  3  1  0  0  0
    7.2390    8.5680  -21.0590 C   0  0  0  0  0  0
    6.1370    9.4890  -22.7630 C   0  0  0  0  0  0
    5.4930    7.0950  -22.1710 C   0  0  0  0  0  0
    8.7180    9.5930  -22.9470 C   0  0  0  0  0  0
    7.4810    9.7420  -22.0380 C   0  0  2  0  0  0
    4.0350    7.0590  -22.5650 C   0  0  0  0  0  0
    9.5721    8.2800  -24.1411 H   0  0  0  0  0  0
    5.1890    8.8130  -21.0580 H   0  0  0  0  0  0
    7.8312    7.7177  -21.4281 H   0  0  0  0  0  0
    7.0890    9.0100  -20.0630 H   0  0  0  0  0  0
    5.4877   10.3484  -22.5399 H   0  0  0  0  0  0
    6.3709    8.9373  -23.6855 H   0  0  0  0  0  0
    5.6740    6.3641  -21.3691 H   0  0  0  0  0  0
    6.1130    6.8140  -23.0351 H   0  0  0  0  0  0
    8.7110   10.3881  -23.7071 H   0  0  0  0  0  0
    9.6294    9.7551  -22.3528 H   0  0  0  0  0  0
    7.4800   10.7096  -21.5147 H   0  0  0  0  0  0
  1  2  2  0  0  0
  1  3  1  0  0  0
  1 34  1  0  0  0
  2  6  1  0  0  0
  2 35  1  0  0  0
  3  5  2  0  0  0
  3 27  1  0  0  0
  4  5  1  0  0  0
  4  6  2  0  0  0
  4 18  1  0  0  0
  5 24  1  0  0  0
  6 10  1  0  0  0
  7 10  2  0  0  0
  7 23  1  0  0  0
  7 33  1  0  0  0
  8 21  1  0  0  0
  8 22  1  0  0  0
  8 36  1  0  0  0
  8 37  1  0  0  0
  9 21  1  0  0  0
  9 31  1  0  0  0
  9 38  1  0  0  0
  9 39  1  0  0  0
 10 40  1  0  0  0
 11 12  1  0  0  0
 11 14  2  0  0  0
 11 15  1  0  0  0
 12 17  1  0  0  0
 12 28  2  0  0  0
 13 28  1  0  0  0
 13 29  2  0  0  0
 13 60  1  0  0  0
 14 29  1  0  0  0
 14 31  1  0  0  0
 15 30  2  0  0  0
 15 41  1  0  0  0
 16 17  2  0  0  0
 16 18  1  0  0  0
 16 30  1  0  0  0
 17 26  1  0  0  0
 18 23  2  0  0  0
 19 20  1  0  0  0
 19 31  1  0  0  0
 19 42  1  0  0  0
 19 43  1  0  0  0
 20 22  1  0  0  0
 20 32  1  0  0  0
 20 44  1  0  0  0
 21 32  1  0  0  0
 21 45  1  0  0  0
 22 46  1  0  0  0
 22 47  1  0  0  0
 23 48  1  0  0  0
 24 25  3  0  0  0
 25 49  1  0  0  0
 32 50  1  0  0  0
 33 51  1  0  0  0
 52 60  2  0  0  0
 53 58  1  0  0  0
 53 61  1  0  0  0
 54 55  1  0  0  0
 54 56  1  0  0  0
 54 57  1  0  0  0
 54 62  1  0  0  0
 55 59  1  0  0  0
 55 63  1  0  0  0
 55 64  1  0  0  0
 56 59  1  0  0  0
 56 65  1  0  0  0
 56 66  1  0  0  0
 57 60  1  0  0  0
 57 67  1  0  0  0
 57 68  1  0  0  0
 58 59  1  0  0  0
 58 69  1  0  0  0
 58 70  1  0  0  0
 59 71  1  0  0  0
M  CHG  1  54   1
M  END
> <s_m_entry_id>
721

> <s_m_entry_name>
000000563.1

> <s_m_Source_Path>
/Users/zaksoul/Documents/3r_UNI/2nd_SEMESTER/BSC/FRAG_RECON/RESULTS/2

> <s_m_Source_File>
000000563.mol2

> <i_m_Source_File_Index>
1

$$$$
No_0_585
                    3D
 Schrodinger Suite 2022-4.
 69 75  0  0  1  0            999 V2000
   -4.9970    3.6700  -21.9540 C   0  0  0  0  0  0
   -5.2600    3.8450  -23.2920 C   0  0  0  0  0  0
   -3.7680    3.3800  -21.6100 C   0  0  0  0  0  0
   -2.8770    3.4400  -23.7790 C   0  0  0  0  0  0
   -2.7220    3.2140  -22.3550 C   0  0  0  0  0  0
   -4.2160    3.7390  -24.3020 C   0  0  0  0  0  0
   -3.4650    3.6980  -26.5020 C   0  0  0  0  0  0
    6.2440    2.7230  -21.2380 C   0  0  0  0  0  0
    6.1050    2.8270  -23.7890 C   0  0  0  0  0  0
   -4.4650    3.8520  -25.6390 C   0  0  0  0  0  0
    2.3420    3.5030  -23.8110 C   0  0  0  0  0  0
    1.5590    4.6430  -23.5290 C   0  0  0  0  0  0
    3.3980    5.7890  -22.8720 C   0  0  0  0  0  0
    3.7480    3.6510  -23.5020 C   0  0  0  0  0  0
    1.7560    2.3940  -24.4520 C   0  0  0  0  0  0
   -0.3420    3.2810  -24.3520 C   0  0  0  0  0  0
    0.2270    4.4920  -23.7750 C   0  0  0  0  0  0
   -1.7950    3.3300  -24.7050 C   0  0  0  0  0  0
    4.2690    1.1390  -23.1690 C   0  0  0  0  0  0
    5.1930    0.7720  -22.0180 C   0  0  2  0  0  0
    6.8360    2.2480  -22.5830 C   0  0  2  0  0  0
    5.2110    1.7920  -20.8680 C   0  0  0  0  0  0
   -2.1170    3.4760  -26.1350 C   0  0  0  0  0  0
   -1.3910    2.7660  -21.7510 C   0  0  0  0  0  0
   -0.3720    2.3920  -21.2410 C   0  0  0  0  0  0
   -0.5780    5.5710  -23.4470 F   0  0  0  0  0  0
   -3.5630    3.1540  -20.2240 F   0  0  0  0  0  0
    2.0760    5.7940  -23.0180 N   0  0  0  0  0  0
    4.2610    4.7930  -23.0770 N   0  0  0  0  0  0
    0.4470    2.3430  -24.7540 N   0  0  0  0  0  0
    4.6300    2.5700  -23.6630 N   0  0  0  0  0  0
    6.6000    0.7830  -22.5030 N   0  0  1  0  0  0
   -3.6400    3.6950  -27.8910 O   0  0  0  0  0  0
   -5.7949    3.7724  -21.2274 H   0  0  0  0  0  0
   -6.2679    4.0689  -23.6223 H   0  0  0  0  0  0
    5.8068    3.7246  -21.3632 H   0  0  0  0  0  0
    7.0318    2.7200  -20.4703 H   0  0  0  0  0  0
    6.4825    2.3537  -24.7074 H   0  0  0  0  0  0
    6.2856    3.9108  -23.8405 H   0  0  0  0  0  0
   -5.4691    4.0657  -25.9871 H   0  0  0  0  0  0
    2.3660    1.5392  -24.7209 H   0  0  0  0  0  0
    3.2256    1.1239  -22.8209 H   0  0  0  0  0  0
    4.4062    0.4226  -23.9924 H   0  0  0  0  0  0
    4.9348   -0.2255  -21.6327 H   0  0  0  0  0  0
    7.9125    2.4681  -22.6355 H   0  0  0  0  0  0
    4.2448    2.3165  -20.8317 H   0  0  0  0  0  0
    5.4956    1.2844  -19.9345 H   0  0  0  0  0  0
   -1.3501    3.4178  -26.8989 H   0  0  0  0  0  0
    0.5250    2.0620  -20.7920 H   0  0  0  0  0  0
    7.2321    0.2750  -21.7897 H   0  0  0  0  0  0
   -2.7995    3.5714  -28.3162 H   0  0  0  0  0  0
    3.2450    8.0370  -22.2500 O   0  0  0  0  0  0
    7.7660   10.4630  -24.5990 O   0  5  0  0  0  0
    9.3940    9.4800  -23.3380 O   0  0  0  0  0  0
    5.9120    8.5290  -21.7160 N   0  3  2  0  0  0
    5.8170    9.6670  -22.6840 C   0  0  0  0  0  0
    7.3760    8.6850  -21.4460 C   0  0  0  0  0  0
    5.4940    7.1800  -22.2300 C   0  0  0  0  0  0
    8.2210    9.9670  -23.5090 C   0  0  0  0  0  0
    7.2910    9.9610  -22.3170 C   0  0  1  0  0  0
    3.9980    7.1030  -22.4320 C   0  0  0  0  0  0
    5.3895    8.7498  -20.8828 H   0  0  0  0  0  0
    5.2052   10.4457  -22.2052 H   0  0  0  0  0  0
    5.8180    9.2298  -23.6934 H   0  0  0  0  0  0
    7.8949    7.9221  -22.0449 H   0  0  0  0  0  0
    7.4770    9.0151  -20.4016 H   0  0  0  0  0  0
    5.8072    6.4026  -21.5176 H   0  0  0  0  0  0
    6.0018    6.9781  -23.1846 H   0  0  0  0  0  0
    7.3890   10.8763  -21.7148 H   0  0  0  0  0  0
  1  2  2  0  0  0
  1  3  1  0  0  0
  1 34  1  0  0  0
  2  6  1  0  0  0
  2 35  1  0  0  0
  3  5  2  0  0  0
  3 27  1  0  0  0
  4  5  1  0  0  0
  4  6  2  0  0  0
  4 18  1  0  0  0
  5 24  1  0  0  0
  6 10  1  0  0  0
  7 10  2  0  0  0
  7 23  1  0  0  0
  7 33  1  0  0  0
  8 21  1  0  0  0
  8 22  1  0  0  0
  8 36  1  0  0  0
  8 37  1  0  0  0
  9 21  1  0  0  0
  9 31  1  0  0  0
  9 38  1  0  0  0
  9 39  1  0  0  0
 10 40  1  0  0  0
 11 12  1  0  0  0
 11 14  2  0  0  0
 11 15  1  0  0  0
 12 17  1  0  0  0
 12 28  2  0  0  0
 13 28  1  0  0  0
 13 29  2  0  0  0
 13 61  1  0  0  0
 14 29  1  0  0  0
 14 31  1  0  0  0
 15 30  2  0  0  0
 15 41  1  0  0  0
 16 17  2  0  0  0
 16 18  1  0  0  0
 16 30  1  0  0  0
 17 26  1  0  0  0
 18 23  2  0  0  0
 19 20  1  0  0  0
 19 31  1  0  0  0
 19 42  1  0  0  0
 19 43  1  0  0  0
 20 22  1  0  0  0
 20 32  1  0  0  0
 20 44  1  0  0  0
 21 32  1  0  0  0
 21 45  1  0  0  0
 22 46  1  0  0  0
 22 47  1  0  0  0
 23 48  1  0  0  0
 24 25  3  0  0  0
 25 49  1  0  0  0
 32 50  1  0  0  0
 33 51  1  0  0  0
 52 61  2  0  0  0
 53 59  1  0  0  0
 54 59  2  0  0  0
 55 56  1  0  0  0
 55 57  1  0  0  0
 55 58  1  0  0  0
 55 62  1  0  0  0
 56 60  1  0  0  0
 56 63  1  0  0  0
 56 64  1  0  0  0
 57 60  1  0  0  0
 57 65  1  0  0  0
 57 66  1  0  0  0
 58 61  1  0  0  0
 58 67  1  0  0  0
 58 68  1  0  0  0
 59 60  1  0  0  0
 60 69  1  0  0  0
M  CHG  2  53  -1  55   1
M  END
> <s_m_entry_id>
722

> <s_m_entry_name>
000000564.1

> <s_m_Source_Path>
/Users/zaksoul/Documents/3r_UNI/2nd_SEMESTER/BSC/FRAG_RECON/RESULTS/2

> <s_m_Source_File>
000000564.mol2

> <i_m_Source_File_Index>
1

$$$$
No_0_586
                    3D
 Schrodinger Suite 2022-4.
 69 75  0  0  1  0            999 V2000
   -5.0280    3.5610  -21.7550 C   0  0  0  0  0  0
   -5.2850    3.7660  -23.0900 C   0  0  0  0  0  0
   -3.7990    3.2640  -21.4140 C   0  0  0  0  0  0
   -2.9010    3.3710  -23.5780 C   0  0  0  0  0  0
   -2.7510    3.1140  -22.1590 C   0  0  0  0  0  0
   -4.2380    3.6830  -24.0990 C   0  0  0  0  0  0
   -3.4790    3.6910  -26.2960 C   0  0  0  0  0  0
    6.2110    2.5970  -21.0210 C   0  0  0  0  0  0
    6.0820    2.7580  -23.5700 C   0  0  0  0  0  0
   -4.4820    3.8260  -25.4340 C   0  0  0  0  0  0
    2.3180    3.4340  -23.5900 C   0  0  0  0  0  0
    1.5350    4.5680  -23.2860 C   0  0  0  0  0  0
    3.3710    5.6990  -22.5960 C   0  0  0  0  0  0
    3.7240    3.5760  -23.2740 C   0  0  0  0  0  0
    1.7350    2.3400  -24.2580 C   0  0  0  0  0  0
   -0.3640    3.2250  -24.1460 C   0  0  0  0  0  0
    0.2030    4.4230  -23.5390 C   0  0  0  0  0  0
   -1.8150    3.2820  -24.5020 C   0  0  0  0  0  0
    4.2430    1.0570  -22.9950 C   0  0  0  0  0  0
    5.1620    0.6630  -21.8490 C   0  0  2  0  0  0
    6.8080    2.1520  -22.3740 C   0  0  2  0  0  0
    5.1770    1.6580  -20.6760 C   0  0  0  0  0  0
   -2.1320    3.4610  -25.9300 C   0  0  0  0  0  0
   -1.4220    2.6520  -21.5600 C   0  0  0  0  0  0
   -0.4050    2.2660  -21.0550 C   0  0  0  0  0  0
   -0.6030    5.4940  -23.1900 F   0  0  0  0  0  0
   -3.5990    3.0060  -20.0330 F   0  0  0  0  0  0
    2.0500    5.7080  -22.7470 N   0  0  0  0  0  0
    4.2350    4.7070  -22.8210 N   0  0  0  0  0  0
    0.4270    2.2970  -24.5650 N   0  0  0  0  0  0
    4.6060    2.4980  -23.4550 N   0  0  0  0  0  0
    6.5710    0.6850  -22.3290 N   0  0  1  0  0  0
   -3.6490    3.7190  -27.6860 O   0  0  0  0  0  0
   -5.8283    3.6474  -21.0290 H   0  0  0  0  0  0
   -6.2917    3.9968  -23.4192 H   0  0  0  0  0  0
    5.7749    3.6014  -21.1260 H   0  0  0  0  0  0
    6.9962    2.5758  -20.2509 H   0  0  0  0  0  0
    6.4624    2.3049  -24.4974 H   0  0  0  0  0  0
    6.2616    3.8429  -23.5972 H   0  0  0  0  0  0
   -5.4850    4.0467  -25.7810 H   0  0  0  0  0  0
    2.3463    1.4918  -24.5441 H   0  0  0  0  0  0
    3.1985    1.0338  -22.6509 H   0  0  0  0  0  0
    4.3833    0.3584  -23.8330 H   0  0  0  0  0  0
    4.9035   -0.3428  -21.4865 H   0  0  0  0  0  0
    7.8847    2.3730  -22.4184 H   0  0  0  0  0  0
    4.2106    2.1815  -20.6316 H   0  0  0  0  0  0
    5.4576    1.1290  -19.7533 H   0  0  0  0  0  0
   -1.3626    3.4188  -26.6924 H   0  0  0  0  0  0
    0.4907    1.9271  -20.6101 H   0  0  0  0  0  0
    7.2008    0.1622  -21.6244 H   0  0  0  0  0  0
   -2.8073    3.6043  -28.1113 H   0  0  0  0  0  0
    3.3010    8.0080  -22.2410 O   0  0  0  0  0  0
    8.5180    9.7850  -23.4530 O   0  5  0  0  0  0
    9.6350    8.8240  -21.7090 O   0  0  0  0  0  0
    5.7650    8.3440  -21.0360 N   0  3  2  0  0  0
    6.0540    9.3690  -22.0890 C   0  0  0  0  0  0
    7.1120    8.4130  -20.3870 C   0  0  0  0  0  0
    5.3570    6.9820  -21.5250 C   0  0  0  0  0  0
    8.6100    9.3810  -22.2400 C   0  0  0  0  0  0
    7.4000    9.5840  -21.3560 C   0  0  1  0  0  0
    3.9690    7.0020  -22.1250 C   0  0  0  0  0  0
    5.0662    8.6989  -20.4022 H   0  0  0  0  0  0
    5.4247   10.2434  -21.8669 H   0  0  0  0  0  0
    6.2780    8.8210  -23.0161 H   0  0  0  0  0  0
    7.6878    7.5484  -20.7488 H   0  0  0  0  0  0
    6.9659    8.8512  -19.3887 H   0  0  0  0  0  0
    5.3840    6.2689  -20.6879 H   0  0  0  0  0  0
    6.0767    6.6341  -22.2807 H   0  0  0  0  0  0
    7.4320   10.5511  -20.8329 H   0  0  0  0  0  0
  1  2  2  0  0  0
  1  3  1  0  0  0
  1 34  1  0  0  0
  2  6  1  0  0  0
  2 35  1  0  0  0
  3  5  2  0  0  0
  3 27  1  0  0  0
  4  5  1  0  0  0
  4  6  2  0  0  0
  4 18  1  0  0  0
  5 24  1  0  0  0
  6 10  1  0  0  0
  7 10  2  0  0  0
  7 23  1  0  0  0
  7 33  1  0  0  0
  8 21  1  0  0  0
  8 22  1  0  0  0
  8 36  1  0  0  0
  8 37  1  0  0  0
  9 21  1  0  0  0
  9 31  1  0  0  0
  9 38  1  0  0  0
  9 39  1  0  0  0
 10 40  1  0  0  0
 11 12  1  0  0  0
 11 14  2  0  0  0
 11 15  1  0  0  0
 12 17  1  0  0  0
 12 28  2  0  0  0
 13 28  1  0  0  0
 13 29  2  0  0  0
 13 61  1  0  0  0
 14 29  1  0  0  0
 14 31  1  0  0  0
 15 30  2  0  0  0
 15 41  1  0  0  0
 16 17  2  0  0  0
 16 18  1  0  0  0
 16 30  1  0  0  0
 17 26  1  0  0  0
 18 23  2  0  0  0
 19 20  1  0  0  0
 19 31  1  0  0  0
 19 42  1  0  0  0
 19 43  1  0  0  0
 20 22  1  0  0  0
 20 32  1  0  0  0
 20 44  1  0  0  0
 21 32  1  0  0  0
 21 45  1  0  0  0
 22 46  1  0  0  0
 22 47  1  0  0  0
 23 48  1  0  0  0
 24 25  3  0  0  0
 25 49  1  0  0  0
 32 50  1  0  0  0
 33 51  1  0  0  0
 52 61  2  0  0  0
 53 59  1  0  0  0
 54 59  2  0  0  0
 55 56  1  0  0  0
 55 57  1  0  0  0
 55 58  1  0  0  0
 55 62  1  0  0  0
 56 60  1  0  0  0
 56 63  1  0  0  0
 56 64  1  0  0  0
 57 60  1  0  0  0
 57 65  1  0  0  0
 57 66  1  0  0  0
 58 61  1  0  0  0
 58 67  1  0  0  0
 58 68  1  0  0  0
 59 60  1  0  0  0
 60 69  1  0  0  0
M  CHG  2  53  -1  55   1
M  END
> <s_m_entry_id>
723

> <s_m_entry_name>
000000565.1

> <s_m_Source_Path>
/Users/zaksoul/Documents/3r_UNI/2nd_SEMESTER/BSC/FRAG_RECON/RESULTS/2

> <s_m_Source_File>
000000565.mol2

> <i_m_Source_File_Index>
1

$$$$
No_0_587
                    3D
 Schrodinger Suite 2022-4.
 69 75  0  0  1  0            999 V2000
   -4.9200    3.7130  -22.0770 C   0  0  0  0  0  0
   -5.1930    3.8830  -23.4130 C   0  0  0  0  0  0
   -3.6840    3.4450  -21.7400 C   0  0  0  0  0  0
   -2.8070    3.5180  -23.9140 C   0  0  0  0  0  0
   -2.6400    3.2960  -22.4910 C   0  0  0  0  0  0
   -4.1530    3.7950  -24.4300 C   0  0  0  0  0  0
   -3.4140    3.7660  -26.6330 C   0  0  0  0  0  0
    6.3400    2.9550  -21.4250 C   0  0  0  0  0  0
    6.1850    3.0560  -23.9760 C   0  0  0  0  0  0
   -4.4120    3.9040  -25.7660 C   0  0  0  0  0  0
    2.4100    3.6690  -23.9760 C   0  0  0  0  0  0
    1.6100    4.7960  -23.6900 C   0  0  0  0  0  0
    3.4330    5.9720  -23.0440 C   0  0  0  0  0  0
    3.8150    3.8410  -23.6760 C   0  0  0  0  0  0
    1.8400    2.5500  -24.6140 C   0  0  0  0  0  0
   -0.2730    3.4010  -24.5020 C   0  0  0  0  0  0
    0.2790    4.6230  -23.9280 C   0  0  0  0  0  0
   -1.7280    3.4260  -24.8460 C   0  0  0  0  0  0
    4.3810    1.3380  -23.3450 C   0  0  0  0  0  0
    5.3160    0.9860  -22.1990 C   0  0  2  0  0  0
    6.9310    2.4900  -22.7740 C   0  0  2  0  0  0
    5.3240    2.0080  -21.0490 C   0  0  0  0  0  0
   -2.0610    3.5670  -26.2740 C   0  0  0  0  0  0
   -1.2980    2.8700  -21.8950 C   0  0  0  0  0  0
   -0.2700    2.5130  -21.3900 C   0  0  0  0  0  0
   -0.5420    5.6880  -23.5960 F   0  0  0  0  0  0
   -3.4670    3.2220  -20.3560 F   0  0  0  0  0  0
    2.1110    5.9560  -23.1820 N   0  0  0  0  0  0
    4.3120    4.9910  -23.2540 N   0  0  0  0  0  0
    0.5300    2.4780  -24.9080 N   0  0  0  0  0  0
    4.7140    2.7740  -23.8410 N   0  0  0  0  0  0
    6.7200    1.0210  -22.6930 N   0  0  1  0  0  0
   -3.5970    3.7600  -28.0220 O   0  0  0  0  0  0
   -5.7153    3.8023  -21.3459 H   0  0  0  0  0  0
   -6.2065    4.0897  -23.7371 H   0  0  0  0  0  0
    5.8850    3.9488  -21.5491 H   0  0  0  0  0  0
    7.1318    2.9651  -20.6615 H   0  0  0  0  0  0
    6.5645    2.5886  -24.8966 H   0  0  0  0  0  0
    6.3455    4.1430  -24.0285 H   0  0  0  0  0  0
   -5.4220    4.0998  -26.1074 H   0  0  0  0  0  0
    2.4622    1.7050  -24.8860 H   0  0  0  0  0  0
    3.3400    1.3057  -22.9909 H   0  0  0  0  0  0
    4.5244    0.6233  -24.1688 H   0  0  0  0  0  0
    5.0777   -0.0155  -21.8113 H   0  0  0  0  0  0
    8.0033    2.7281  -22.8325 H   0  0  0  0  0  0
    4.3490    2.5157  -21.0076 H   0  0  0  0  0  0
    5.6227    1.5045  -20.1177 H   0  0  0  0  0  0
   -1.2977    3.5209  -27.0423 H   0  0  0  0  0  0
    0.6352    2.1989  -20.9459 H   0  0  0  0  0  0
    7.3642    0.5242  -21.9826 H   0  0  0  0  0  0
   -2.7568    3.6501  -28.4515 H   0  0  0  0  0  0
    3.2750    8.2580  -22.5820 O   0  0  0  0  0  0
    8.1400   10.4190  -24.4550 O   0  5  0  0  0  0
    9.5570    9.4770  -22.9330 O   0  0  0  0  0  0
    5.8640    8.7170  -21.7310 N   0  3  2  0  0  0
    5.9330    9.7940  -22.7690 C   0  0  0  0  0  0
    7.2850    8.8540  -21.2810 C   0  0  0  0  0  0
    5.4720    7.3490  -22.2150 C   0  0  0  0  0  0
    8.4330    9.9820  -23.2870 C   0  0  0  0  0  0
    7.3550   10.0740  -22.2300 C   0  0  1  0  0  0
    4.0130    7.2960  -22.6070 C   0  0  0  0  0  0
    5.2448    9.0031  -20.9888 H   0  0  0  0  0  0
    5.2899   10.6162  -22.4219 H   0  0  0  0  0  0
    6.0510    9.2941  -23.7417 H   0  0  0  0  0  0
    7.8522    8.0418  -21.7591 H   0  0  0  0  0  0
    7.2600    9.2470  -20.2539 H   0  0  0  0  0  0
    5.6649    6.6112  -21.4222 H   0  0  0  0  0  0
    6.0940    7.0750  -23.0799 H   0  0  0  0  0  0
    7.4050   11.0223  -21.6748 H   0  0  0  0  0  0
  1  2  2  0  0  0
  1  3  1  0  0  0
  1 34  1  0  0  0
  2  6  1  0  0  0
  2 35  1  0  0  0
  3  5  2  0  0  0
  3 27  1  0  0  0
  4  5  1  0  0  0
  4  6  2  0  0  0
  4 18  1  0  0  0
  5 24  1  0  0  0
  6 10  1  0  0  0
  7 10  2  0  0  0
  7 23  1  0  0  0
  7 33  1  0  0  0
  8 21  1  0  0  0
  8 22  1  0  0  0
  8 36  1  0  0  0
  8 37  1  0  0  0
  9 21  1  0  0  0
  9 31  1  0  0  0
  9 38  1  0  0  0
  9 39  1  0  0  0
 10 40  1  0  0  0
 11 12  1  0  0  0
 11 14  2  0  0  0
 11 15  1  0  0  0
 12 17  1  0  0  0
 12 28  2  0  0  0
 13 28  1  0  0  0
 13 29  2  0  0  0
 13 61  1  0  0  0
 14 29  1  0  0  0
 14 31  1  0  0  0
 15 30  2  0  0  0
 15 41  1  0  0  0
 16 17  2  0  0  0
 16 18  1  0  0  0
 16 30  1  0  0  0
 17 26  1  0  0  0
 18 23  2  0  0  0
 19 20  1  0  0  0
 19 31  1  0  0  0
 19 42  1  0  0  0
 19 43  1  0  0  0
 20 22  1  0  0  0
 20 32  1  0  0  0
 20 44  1  0  0  0
 21 32  1  0  0  0
 21 45  1  0  0  0
 22 46  1  0  0  0
 22 47  1  0  0  0
 23 48  1  0  0  0
 24 25  3  0  0  0
 25 49  1  0  0  0
 32 50  1  0  0  0
 33 51  1  0  0  0
 52 61  2  0  0  0
 53 59  1  0  0  0
 54 59  2  0  0  0
 55 56  1  0  0  0
 55 57  1  0  0  0
 55 58  1  0  0  0
 55 62  1  0  0  0
 56 60  1  0  0  0
 56 63  1  0  0  0
 56 64  1  0  0  0
 57 60  1  0  0  0
 57 65  1  0  0  0
 57 66  1  0  0  0
 58 61  1  0  0  0
 58 67  1  0  0  0
 58 68  1  0  0  0
 59 60  1  0  0  0
 60 69  1  0  0  0
M  CHG  2  53  -1  55   1
M  END
> <s_m_entry_id>
724

> <s_m_entry_name>
000000566.1

> <s_m_Source_Path>
/Users/zaksoul/Documents/3r_UNI/2nd_SEMESTER/BSC/FRAG_RECON/RESULTS/2

> <s_m_Source_File>
000000566.mol2

> <i_m_Source_File_Index>
1

$$$$
No_0_588
                    3D
 Schrodinger Suite 2022-4.
 67 73  0  0  1  0            999 V2000
   -5.1640    3.6630  -21.9230 C   0  0  0  0  0  0
   -5.4140    3.8690  -23.2590 C   0  0  0  0  0  0
   -3.9330    3.3890  -21.5720 C   0  0  0  0  0  0
   -3.0170    3.5260  -23.7270 C   0  0  0  0  0  0
   -2.8750    3.2640  -22.3080 C   0  0  0  0  0  0
   -4.3560    3.8130  -24.2590 C   0  0  0  0  0  0
   -3.5780    3.8480  -26.4490 C   0  0  0  0  0  0
    6.0850    2.9240  -21.0920 C   0  0  0  0  0  0
    5.9750    3.0960  -23.6410 C   0  0  0  0  0  0
   -4.5910    3.9580  -25.5950 C   0  0  0  0  0  0
    2.1990    3.6960  -23.6920 C   0  0  0  0  0  0
    1.3900    4.8120  -23.3890 C   0  0  0  0  0  0
    3.1970    5.9760  -22.6780 C   0  0  0  0  0  0
    3.5980    3.8640  -23.3620 C   0  0  0  0  0  0
    1.6440    2.5930  -24.3700 C   0  0  0  0  0  0
   -0.4730    3.4340  -24.2730 C   0  0  0  0  0  0
    0.0640    4.6410  -23.6550 C   0  0  0  0  0  0
   -1.9220    3.4640  -24.6420 C   0  0  0  0  0  0
    4.1670    1.3550  -23.0910 C   0  0  0  0  0  0
    5.0840    0.9740  -21.9390 C   0  0  2  0  0  0
    6.7030    2.4990  -22.4420 C   0  0  2  0  0  0
    5.0670    1.9630  -20.7610 C   0  0  0  0  0  0
   -2.2300    3.6430  -26.0710 C   0  0  0  0  0  0
   -1.5430    2.8260  -21.7000 C   0  0  0  0  0  0
   -0.5220    2.4590  -21.1870 C   0  0  0  0  0  0
   -0.7670    5.6930  -23.3080 F   0  0  0  0  0  0
   -3.7400    3.1290  -20.1910 F   0  0  0  0  0  0
    1.8770    5.9590  -22.8400 N   0  0  0  0  0  0
    4.0820    5.0030  -22.8990 N   0  0  0  0  0  0
    0.3400    2.5250  -24.6900 N   0  0  0  0  0  0
    4.5040    2.8050  -23.5410 N   0  0  0  0  0  0
    6.4960    1.0270  -22.4060 N   0  0  1  0  0  0
   -3.7360    3.8800  -27.8400 O   0  0  0  0  0  0
   -5.9720    3.7292  -21.2034 H   0  0  0  0  0  0
   -6.4222    4.0819  -23.5954 H   0  0  0  0  0  0
    5.6290    3.9196  -21.1959 H   0  0  0  0  0  0
    6.8638    2.9159  -20.3152 H   0  0  0  0  0  0
    6.3726    2.6560  -24.5674 H   0  0  0  0  0  0
    6.1335    4.1843  -23.6612 H   0  0  0  0  0  0
   -5.5950    4.1606  -25.9500 H   0  0  0  0  0  0
    2.2745    1.7586  -24.6551 H   0  0  0  0  0  0
    3.1199    1.3086  -22.7571 H   0  0  0  0  0  0
    4.3284    0.6639  -23.9314 H   0  0  0  0  0  0
    4.8417   -0.0385  -21.5837 H   0  0  0  0  0  0
    7.7755    2.7414  -22.4753 H   0  0  0  0  0  0
    4.0899    2.4667  -20.7226 H   0  0  0  0  0  0
    5.3506    1.4352  -19.8385 H   0  0  0  0  0  0
   -1.4532    3.6209  -26.8267 H   0  0  0  0  0  0
    0.3764    2.1359  -20.7358 H   0  0  0  0  0  0
    7.1290    0.5127  -21.6981 H   0  0  0  0  0  0
   -2.8880    3.7850  -28.2576 H   0  0  0  0  0  0
    3.2200    8.3130  -22.5490 O   0  0  0  0  0  0
    5.5580    8.5600  -20.9420 N   0  0  0  0  0  0
    3.7640    7.2890  -22.1940 C   0  0  0  0  0  0
    4.8650   10.7810  -20.7900 C   0  0  0  0  0  0
    5.6570   10.7130  -21.8330 C   0  0  0  0  0  0
    6.1420    9.3180  -22.1120 C   0  0  0  0  0  0
    4.6410    9.4480  -20.1310 C   0  0  0  0  0  0
    4.9880    7.2150  -21.3110 C   0  0  0  0  0  0
    4.4459   11.7393  -20.4869 H   0  0  0  0  0  0
    5.8959   11.6148  -22.3948 H   0  0  0  0  0  0
    5.6827    8.9558  -23.0436 H   0  0  0  0  0  0
    7.2397    9.2980  -22.0430 H   0  0  0  0  0  0
    5.0059    9.4930  -19.0943 H   0  0  0  0  0  0
    3.5989    9.1360  -20.2940 H   0  0  0  0  0  0
    4.7421    6.6591  -20.3942 H   0  0  0  0  0  0
    5.7622    6.6138  -21.8101 H   0  0  0  0  0  0
  1  2  2  0  0  0
  1  3  1  0  0  0
  1 34  1  0  0  0
  2  6  1  0  0  0
  2 35  1  0  0  0
  3  5  2  0  0  0
  3 27  1  0  0  0
  4  5  1  0  0  0
  4  6  2  0  0  0
  4 18  1  0  0  0
  5 24  1  0  0  0
  6 10  1  0  0  0
  7 10  2  0  0  0
  7 23  1  0  0  0
  7 33  1  0  0  0
  8 21  1  0  0  0
  8 22  1  0  0  0
  8 36  1  0  0  0
  8 37  1  0  0  0
  9 21  1  0  0  0
  9 31  1  0  0  0
  9 38  1  0  0  0
  9 39  1  0  0  0
 10 40  1  0  0  0
 11 12  1  0  0  0
 11 14  2  0  0  0
 11 15  1  0  0  0
 12 17  1  0  0  0
 12 28  2  0  0  0
 13 28  1  0  0  0
 13 29  2  0  0  0
 13 54  1  0  0  0
 14 29  1  0  0  0
 14 31  1  0  0  0
 15 30  2  0  0  0
 15 41  1  0  0  0
 16 17  2  0  0  0
 16 18  1  0  0  0
 16 30  1  0  0  0
 17 26  1  0  0  0
 18 23  2  0  0  0
 19 20  1  0  0  0
 19 31  1  0  0  0
 19 42  1  0  0  0
 19 43  1  0  0  0
 20 22  1  0  0  0
 20 32  1  0  0  0
 20 44  1  0  0  0
 21 32  1  0  0  0
 21 45  1  0  0  0
 22 46  1  0  0  0
 22 47  1  0  0  0
 23 48  1  0  0  0
 24 25  3  0  0  0
 25 49  1  0  0  0
 32 50  1  0  0  0
 33 51  1  0  0  0
 52 54  2  0  0  0
 53 57  1  0  0  0
 53 58  1  0  0  0
 53 59  1  0  0  0
 54 59  1  0  0  0
 55 56  2  0  0  0
 55 58  1  0  0  0
 55 60  1  0  0  0
 56 57  1  0  0  0
 56 61  1  0  0  0
 57 62  1  0  0  0
 57 63  1  0  0  0
 58 64  1  0  0  0
 58 65  1  0  0  0
 59 66  1  0  0  0
 59 67  1  0  0  0
M  END
> <s_m_entry_id>
725

> <s_m_entry_name>
000000567.1

> <s_m_Source_Path>
/Users/zaksoul/Documents/3r_UNI/2nd_SEMESTER/BSC/FRAG_RECON/RESULTS/2

> <s_m_Source_File>
000000567.mol2

> <i_m_Source_File_Index>
1

$$$$
No_0_589
                    3D
 Schrodinger Suite 2022-4.
 67 73  0  0  1  0            999 V2000
   -4.9910    3.6400  -22.0950 C   0  0  0  0  0  0
   -5.2490    3.8030  -23.4350 C   0  0  0  0  0  0
   -3.7610    3.3570  -21.7450 C   0  0  0  0  0  0
   -2.8640    3.4000  -23.9110 C   0  0  0  0  0  0
   -2.7120    3.1870  -22.4850 C   0  0  0  0  0  0
   -4.2020    3.6920  -24.4420 C   0  0  0  0  0  0
   -3.4430    3.6340  -26.6380 C   0  0  0  0  0  0
    6.2510    2.7300  -21.3350 C   0  0  0  0  0  0
    6.1200    2.8110  -23.8880 C   0  0  0  0  0  0
   -4.4470    3.7930  -25.7810 C   0  0  0  0  0  0
    2.3550    3.4770  -23.9270 C   0  0  0  0  0  0
    1.5690    4.6180  -23.6580 C   0  0  0  0  0  0
    3.4020    5.7740  -23.0050 C   0  0  0  0  0  0
    3.7600    3.6320  -23.6160 C   0  0  0  0  0  0
    1.7750    2.3610  -24.5610 C   0  0  0  0  0  0
   -0.3260    3.2430  -24.4760 C   0  0  0  0  0  0
    0.2380    4.4610  -23.9070 C   0  0  0  0  0  0
   -1.7780    3.2850  -24.8330 C   0  0  0  0  0  0
    4.2870    1.1240  -23.2590 C   0  0  0  0  0  0
    5.2070    0.7690  -22.1020 C   0  0  2  0  0  0
    6.8480    2.2450  -22.6740 C   0  0  2  0  0  0
    5.2190    1.8000  -20.9610 C   0  0  0  0  0  0
   -2.0960    3.4190  -26.2650 C   0  0  0  0  0  0
   -1.3830    2.7480  -21.8730 C   0  0  0  0  0  0
   -0.3640    2.3810  -21.3560 C   0  0  0  0  0  0
   -0.5710    5.5400  -23.5910 F   0  0  0  0  0  0
   -3.5600    3.1440  -20.3570 F   0  0  0  0  0  0
    2.0810    5.7750  -23.1550 N   0  0  0  0  0  0
    4.2690    4.7780  -23.1990 N   0  0  0  0  0  0
    0.4660    2.3040  -24.8660 N   0  0  0  0  0  0
    4.6450    2.5510  -23.7640 N   0  0  0  0  0  0
    6.6160    0.7800  -22.5830 N   0  0  1  0  0  0
   -3.6140    3.6180  -28.0280 O   0  0  0  0  0  0
   -5.7914    3.7475  -21.3719 H   0  0  0  0  0  0
   -6.2564    4.0217  -23.7701 H   0  0  0  0  0  0
    5.8119    3.7293  -21.4713 H   0  0  0  0  0  0
    7.0363    2.7350  -20.5648 H   0  0  0  0  0  0
    6.5016    2.3315  -24.8015 H   0  0  0  0  0  0
    6.2976    3.8949  -23.9486 H   0  0  0  0  0  0
   -5.4509    4.0008  -26.1334 H   0  0  0  0  0  0
    2.3877    1.5052  -24.8202 H   0  0  0  0  0  0
    3.2423    1.1099  -22.9148 H   0  0  0  0  0  0
    4.4283    0.4004  -24.0754 H   0  0  0  0  0  0
    4.9507   -0.2257  -21.7085 H   0  0  0  0  0  0
    7.9242    2.4669  -22.7254 H   0  0  0  0  0  0
    4.2511    2.3218  -20.9317 H   0  0  0  0  0  0
    5.5015    1.3005  -20.0226 H   0  0  0  0  0  0
   -1.3268    3.3547  -27.0261 H   0  0  0  0  0  0
    0.5330    2.0580  -20.9020 H   0  0  0  0  0  0
    7.2465    0.2799  -21.8627 H   0  0  0  0  0  0
   -2.7718    3.4933  -28.4496 H   0  0  0  0  0  0
    3.2650    8.0570  -22.5090 O   0  0  0  0  0  0
    6.0250    8.4680  -21.9430 N   0  0  0  0  0  0
    3.9970    7.0930  -22.5740 C   0  0  0  0  0  0
    5.2590   10.5270  -21.1610 C   0  0  0  0  0  0
    5.5510   10.6990  -22.4280 C   0  0  0  0  0  0
    6.0020    9.4350  -23.1040 C   0  0  0  0  0  0
    5.4490    9.1090  -20.6990 C   0  0  0  0  0  0
    5.4780    7.1030  -22.2730 C   0  0  0  0  0  0
    4.9180   11.3701  -20.5620 H   0  0  0  0  0  0
    5.4530   11.6849  -22.8800 H   0  0  0  0  0  0
    5.2335    9.1162  -23.8235 H   0  0  0  0  0  0
    7.0264    9.5731  -23.4802 H   0  0  0  0  0  0
    6.2049    9.0880  -19.9001 H   0  0  0  0  0  0
    4.4664    8.6632  -20.4851 H   0  0  0  0  0  0
    5.6860    6.4151  -21.4402 H   0  0  0  0  0  0
    6.0270    6.6880  -23.1311 H   0  0  0  0  0  0
  1  2  2  0  0  0
  1  3  1  0  0  0
  1 34  1  0  0  0
  2  6  1  0  0  0
  2 35  1  0  0  0
  3  5  2  0  0  0
  3 27  1  0  0  0
  4  5  1  0  0  0
  4  6  2  0  0  0
  4 18  1  0  0  0
  5 24  1  0  0  0
  6 10  1  0  0  0
  7 10  2  0  0  0
  7 23  1  0  0  0
  7 33  1  0  0  0
  8 21  1  0  0  0
  8 22  1  0  0  0
  8 36  1  0  0  0
  8 37  1  0  0  0
  9 21  1  0  0  0
  9 31  1  0  0  0
  9 38  1  0  0  0
  9 39  1  0  0  0
 10 40  1  0  0  0
 11 12  1  0  0  0
 11 14  2  0  0  0
 11 15  1  0  0  0
 12 17  1  0  0  0
 12 28  2  0  0  0
 13 28  1  0  0  0
 13 29  2  0  0  0
 13 54  1  0  0  0
 14 29  1  0  0  0
 14 31  1  0  0  0
 15 30  2  0  0  0
 15 41  1  0  0  0
 16 17  2  0  0  0
 16 18  1  0  0  0
 16 30  1  0  0  0
 17 26  1  0  0  0
 18 23  2  0  0  0
 19 20  1  0  0  0
 19 31  1  0  0  0
 19 42  1  0  0  0
 19 43  1  0  0  0
 20 22  1  0  0  0
 20 32  1  0  0  0
 20 44  1  0  0  0
 21 32  1  0  0  0
 21 45  1  0  0  0
 22 46  1  0  0  0
 22 47  1  0  0  0
 23 48  1  0  0  0
 24 25  3  0  0  0
 25 49  1  0  0  0
 32 50  1  0  0  0
 33 51  1  0  0  0
 52 54  2  0  0  0
 53 57  1  0  0  0
 53 58  1  0  0  0
 53 59  1  0  0  0
 54 59  1  0  0  0
 55 56  2  0  0  0
 55 58  1  0  0  0
 55 60  1  0  0  0
 56 57  1  0  0  0
 56 61  1  0  0  0
 57 62  1  0  0  0
 57 63  1  0  0  0
 58 64  1  0  0  0
 58 65  1  0  0  0
 59 66  1  0  0  0
 59 67  1  0  0  0
M  END
> <s_m_entry_id>
726

> <s_m_entry_name>
000000568.1

> <s_m_Source_Path>
/Users/zaksoul/Documents/3r_UNI/2nd_SEMESTER/BSC/FRAG_RECON/RESULTS/2

> <s_m_Source_File>
000000568.mol2

> <i_m_Source_File_Index>
1

$$$$
No_0_590
                    3D
 Schrodinger Suite 2022-4.
 66 72  0  0  1  0            999 V2000
   -4.9880    3.5010  -21.9230 C   0  0  0  0  0  0
   -5.2650    3.6800  -23.2580 C   0  0  0  0  0  0
   -3.7500    3.2320  -21.5920 C   0  0  0  0  0  0
   -2.8790    3.3200  -23.7680 C   0  0  0  0  0  0
   -2.7080    3.0880  -22.3460 C   0  0  0  0  0  0
   -4.2280    3.5990  -24.2780 C   0  0  0  0  0  0
   -3.4950    3.5840  -26.4840 C   0  0  0  0  0  0
    6.2750    2.7480  -21.3100 C   0  0  0  0  0  0
    6.1120    2.8650  -23.8590 C   0  0  0  0  0  0
   -4.4910    3.7160  -25.6120 C   0  0  0  0  0  0
    2.3370    3.4750  -23.8440 C   0  0  0  0  0  0
    1.5370    4.6000  -23.5490 C   0  0  0  0  0  0
    3.3610    5.7730  -22.9000 C   0  0  0  0  0  0
    3.7430    3.6460  -23.5470 C   0  0  0  0  0  0
    1.7660    2.3600  -24.4870 C   0  0  0  0  0  0
   -0.3470    3.2090  -24.3640 C   0  0  0  0  0  0
    0.2060    4.4270  -23.7840 C   0  0  0  0  0  0
   -1.8030    3.2350  -24.7040 C   0  0  0  0  0  0
    4.3110    1.1420  -23.2340 C   0  0  0  0  0  0
    5.2510    0.7830  -22.0930 C   0  0  2  0  0  0
    6.8630    2.2920  -22.6620 C   0  0  2  0  0  0
    5.2610    1.7980  -20.9370 C   0  0  0  0  0  0
   -2.1410    3.3840  -26.1300 C   0  0  0  0  0  0
   -1.3650    2.6600  -21.7570 C   0  0  0  0  0  0
   -0.3340    2.3010  -21.2580 C   0  0  0  0  0  0
   -0.6160    5.4890  -23.4420 F   0  0  0  0  0  0
   -3.5300    3.0010  -20.2100 F   0  0  0  0  0  0
    2.0380    5.7560  -23.0350 N   0  0  0  0  0  0
    4.2400    4.7940  -23.1190 N   0  0  0  0  0  0
    0.4550    2.2880  -24.7780 N   0  0  0  0  0  0
    4.6420    2.5810  -23.7220 N   0  0  0  0  0  0
    6.6530    0.8220  -22.5900 N   0  0  1  0  0  0
   -3.6820    3.5870  -27.8720 O   0  0  0  0  0  0
   -5.7812    3.5853  -21.1890 H   0  0  0  0  0  0
   -6.2795    3.8879  -23.5784 H   0  0  0  0  0  0
    5.8191    3.7425  -21.4250 H   0  0  0  0  0  0
    7.0683    2.7541  -20.5480 H   0  0  0  0  0  0
    6.4896    2.4046  -24.7839 H   0  0  0  0  0  0
    6.2724    3.9523  -23.9054 H   0  0  0  0  0  0
   -5.5017    3.9137  -25.9502 H   0  0  0  0  0  0
    2.3881    1.5172  -24.7659 H   0  0  0  0  0  0
    3.2713    1.1067  -22.8767 H   0  0  0  0  0  0
    4.4533    0.4326  -24.0625 H   0  0  0  0  0  0
    5.0138   -0.2211  -21.7115 H   0  0  0  0  0  0
    7.9350    2.5312  -22.7226 H   0  0  0  0  0  0
    4.2859    2.3047  -20.8885 H   0  0  0  0  0  0
    5.5625    1.2897  -20.0092 H   0  0  0  0  0  0
   -1.3796    3.3429  -26.9005 H   0  0  0  0  0  0
    0.5723    1.9849  -20.8178 H   0  0  0  0  0  0
    7.3002    0.3214  -21.8851 H   0  0  0  0  0  0
   -2.8433    3.4802  -28.3052 H   0  0  0  0  0  0
    3.2740    8.1010  -22.5700 O   0  0  0  0  0  0
    5.8860    8.3720  -21.6180 N   0  0  0  0  0  0
    5.1320    9.5090  -21.8230 N   0  0  0  0  0  0
    3.9410    7.0950  -22.4570 C   0  0  0  0  0  0
    7.6560    9.7090  -20.8450 C   0  0  0  0  0  0
    5.6170   10.7160  -21.5500 C   0  0  0  0  0  0
    5.3530    7.0560  -21.9220 C   0  0  0  0  0  0
    7.1390    8.4750  -21.1320 C   0  0  0  0  0  0
    6.9000   10.8400  -21.0510 C   0  0  0  0  0  0
    8.6632    9.7970  -20.4539 H   0  0  0  0  0  0
    5.0069   11.5961  -21.7180 H   0  0  0  0  0  0
    5.3840    6.4318  -21.0168 H   0  0  0  0  0  0
    6.0071    6.5569  -22.6521 H   0  0  0  0  0  0
    7.7338    7.5833  -20.9701 H   0  0  0  0  0  0
    7.3117   11.8163  -20.8222 H   0  0  0  0  0  0
  1  2  2  0  0  0
  1  3  1  0  0  0
  1 34  1  0  0  0
  2  6  1  0  0  0
  2 35  1  0  0  0
  3  5  2  0  0  0
  3 27  1  0  0  0
  4  5  1  0  0  0
  4  6  2  0  0  0
  4 18  1  0  0  0
  5 24  1  0  0  0
  6 10  1  0  0  0
  7 10  2  0  0  0
  7 23  1  0  0  0
  7 33  1  0  0  0
  8 21  1  0  0  0
  8 22  1  0  0  0
  8 36  1  0  0  0
  8 37  1  0  0  0
  9 21  1  0  0  0
  9 31  1  0  0  0
  9 38  1  0  0  0
  9 39  1  0  0  0
 10 40  1  0  0  0
 11 12  2  0  0  0
 11 14  1  0  0  0
 11 15  1  0  0  0
 12 17  1  0  0  0
 12 28  1  0  0  0
 13 28  2  0  0  0
 13 29  1  0  0  0
 13 55  1  0  0  0
 14 29  2  0  0  0
 14 31  1  0  0  0
 15 30  2  0  0  0
 15 41  1  0  0  0
 16 17  2  0  0  0
 16 18  1  0  0  0
 16 30  1  0  0  0
 17 26  1  0  0  0
 18 23  2  0  0  0
 19 20  1  0  0  0
 19 31  1  0  0  0
 19 42  1  0  0  0
 19 43  1  0  0  0
 20 22  1  0  0  0
 20 32  1  0  0  0
 20 44  1  0  0  0
 21 32  1  0  0  0
 21 45  1  0  0  0
 22 46  1  0  0  0
 22 47  1  0  0  0
 23 48  1  0  0  0
 24 25  3  0  0  0
 25 49  1  0  0  0
 32 50  1  0  0  0
 33 51  1  0  0  0
 52 55  2  0  0  0
 53 54  1  0  0  0
 53 58  1  0  0  0
 53 59  1  0  0  0
 54 57  2  0  0  0
 55 58  1  0  0  0
 56 59  2  0  0  0
 56 60  1  0  0  0
 56 61  1  0  0  0
 57 60  1  0  0  0
 57 62  1  0  0  0
 58 63  1  0  0  0
 58 64  1  0  0  0
 59 65  1  0  0  0
 60 66  1  0  0  0
M  END
> <s_m_entry_id>
727

> <s_m_entry_name>
000000569.1

> <s_m_Source_Path>
/Users/zaksoul/Documents/3r_UNI/2nd_SEMESTER/BSC/FRAG_RECON/RESULTS/2

> <s_m_Source_File>
000000569.mol2

> <i_m_Source_File_Index>
1

$$$$
No_0_591
                    3D
 Schrodinger Suite 2022-4.
 66 72  0  0  1  0            999 V2000
   -4.8670    3.4800  -21.7690 C   0  0  0  0  0  0
   -5.1500    3.7080  -23.0950 C   0  0  0  0  0  0
   -3.6310    3.1890  -21.4540 C   0  0  0  0  0  0
   -2.7700    3.3470  -23.6300 C   0  0  0  0  0  0
   -2.5930    3.0640  -22.2190 C   0  0  0  0  0  0
   -4.1190    3.6540  -24.1230 C   0  0  0  0  0  0
   -3.3980    3.7120  -26.3320 C   0  0  0  0  0  0
    6.3910    2.6170  -21.2430 C   0  0  0  0  0  0
    6.2170    2.8240  -23.7850 C   0  0  0  0  0  0
   -4.3880    3.8200  -25.4510 C   0  0  0  0  0  0
    2.4470    3.4630  -23.7290 C   0  0  0  0  0  0
    1.6580    4.5830  -23.3900 C   0  0  0  0  0  0
    3.4950    5.7190  -22.7110 C   0  0  0  0  0  0
    3.8560    3.6130  -23.4340 C   0  0  0  0  0  0
    1.8630    2.3760  -24.4080 C   0  0  0  0  0  0
   -0.2420    3.2370  -24.2430 C   0  0  0  0  0  0
    0.3240    4.4290  -23.6240 C   0  0  0  0  0  0
   -1.7000    3.2860  -24.5740 C   0  0  0  0  0  0
    4.4050    1.0950  -23.2110 C   0  0  0  0  0  0
    5.3470    0.6890  -22.0890 C   0  0  2  0  0  0
    6.9690    2.2040  -22.6140 C   0  0  2  0  0  0
    5.3720    1.6620  -20.8980 C   0  0  0  0  0  0
   -2.0430    3.4880  -25.9920 C   0  0  0  0  0  0
   -1.2500    2.6050  -21.6520 C   0  0  0  0  0  0
   -0.2210    2.2200  -21.1710 C   0  0  0  0  0  0
   -0.4870    5.4850  -23.2410 F   0  0  0  0  0  0
   -3.4050    2.9080  -20.0820 F   0  0  0  0  0  0
    2.1710    5.7170  -22.8380 N   0  0  0  0  0  0
    4.3640    4.7410  -22.9680 N   0  0  0  0  0  0
    0.5500    2.3250  -24.6940 N   0  0  0  0  0  0
    4.7450    2.5480  -23.6510 N   0  0  0  0  0  0
    6.7480    0.7340  -22.5920 N   0  0  1  0  0  0
   -3.5920    3.7640  -27.7180 O   0  0  0  0  0  0
   -5.6558    3.5452  -21.0284 H   0  0  0  0  0  0
   -6.1644    3.9350  -23.4023 H   0  0  0  0  0  0
    5.9427    3.6185  -21.3207 H   0  0  0  0  0  0
    7.1890    2.5898  -20.4864 H   0  0  0  0  0  0
    6.5854    2.3930  -24.7276 H   0  0  0  0  0  0
    6.3855    3.9110  -23.7941 H   0  0  0  0  0  0
   -5.3989    4.0378  -25.7762 H   0  0  0  0  0  0
    2.4773    1.5388  -24.7192 H   0  0  0  0  0  0
    3.3665    1.0546  -22.8507 H   0  0  0  0  0  0
    4.5372    0.4139  -24.0646 H   0  0  0  0  0  0
    5.1049   -0.3260  -21.7409 H   0  0  0  0  0  0
    8.0427    2.4361  -22.6715 H   0  0  0  0  0  0
    4.4014    2.1746  -20.8264 H   0  0  0  0  0  0
    5.6737    1.1181  -19.9908 H   0  0  0  0  0  0
   -1.2862    3.4689  -26.7679 H   0  0  0  0  0  0
    0.6857    1.8821  -20.7481 H   0  0  0  0  0  0
    7.3942    0.2034  -21.9084 H   0  0  0  0  0  0
   -2.7563    3.6661  -28.1591 H   0  0  0  0  0  0
    3.3940    7.7100  -21.4870 O   0  0  0  0  0  0
    5.5090    9.9500  -20.8190 N   0  3  0  0  0  0
    5.3330    7.3200  -22.6470 N   0  0  0  0  0  0
    5.2690    9.9040  -22.2950 C   0  0  0  0  0  0
    6.2630    8.6640  -20.7150 C   0  0  0  0  0  0
    6.0250    8.5550  -22.2380 C   0  0  0  0  0  0
    4.0880    7.0200  -22.2240 C   0  0  0  0  0  0
    4.6259    9.8470  -20.3440 H   0  0  0  0  0  0
    6.1371   10.7121  -20.6170 H   0  0  0  0  0  0
    5.8182    6.6947  -23.2583 H   0  0  0  0  0  0
    5.9559   10.6329  -22.7499 H   0  0  0  0  0  0
    4.2044    9.6651  -22.4349 H   0  0  0  0  0  0
    5.5888    7.9388  -20.2359 H   0  0  0  0  0  0
    7.3220    8.9280  -20.5780 H   0  0  0  0  0  0
    6.9823    8.6400  -22.7732 H   0  0  0  0  0  0
  1  2  2  0  0  0
  1  3  1  0  0  0
  1 34  1  0  0  0
  2  6  1  0  0  0
  2 35  1  0  0  0
  3  5  2  0  0  0
  3 27  1  0  0  0
  4  5  1  0  0  0
  4  6  2  0  0  0
  4 18  1  0  0  0
  5 24  1  0  0  0
  6 10  1  0  0  0
  7 10  2  0  0  0
  7 23  1  0  0  0
  7 33  1  0  0  0
  8 21  1  0  0  0
  8 22  1  0  0  0
  8 36  1  0  0  0
  8 37  1  0  0  0
  9 21  1  0  0  0
  9 31  1  0  0  0
  9 38  1  0  0  0
  9 39  1  0  0  0
 10 40  1  0  0  0
 11 12  1  0  0  0
 11 14  2  0  0  0
 11 15  1  0  0  0
 12 17  1  0  0  0
 12 28  2  0  0  0
 13 28  1  0  0  0
 13 29  2  0  0  0
 13 58  1  0  0  0
 14 29  1  0  0  0
 14 31  1  0  0  0
 15 30  2  0  0  0
 15 41  1  0  0  0
 16 17  2  0  0  0
 16 18  1  0  0  0
 16 30  1  0  0  0
 17 26  1  0  0  0
 18 23  2  0  0  0
 19 20  1  0  0  0
 19 31  1  0  0  0
 19 42  1  0  0  0
 19 43  1  0  0  0
 20 22  1  0  0  0
 20 32  1  0  0  0
 20 44  1  0  0  0
 21 32  1  0  0  0
 21 45  1  0  0  0
 22 46  1  0  0  0
 22 47  1  0  0  0
 23 48  1  0  0  0
 24 25  3  0  0  0
 25 49  1  0  0  0
 32 50  1  0  0  0
 33 51  1  0  0  0
 52 58  2  0  0  0
 53 55  1  0  0  0
 53 56  1  0  0  0
 53 59  1  0  0  0
 53 60  1  0  0  0
 54 57  1  0  0  0
 54 58  1  0  0  0
 54 61  1  0  0  0
 55 57  1  0  0  0
 55 62  1  0  0  0
 55 63  1  0  0  0
 56 57  1  0  0  0
 56 64  1  0  0  0
 56 65  1  0  0  0
 57 66  1  0  0  0
M  CHG  1  53   1
M  END
> <s_m_entry_id>
728

> <s_m_entry_name>
000000570.1

> <s_m_Source_Path>
/Users/zaksoul/Documents/3r_UNI/2nd_SEMESTER/BSC/FRAG_RECON/RESULTS/2

> <s_m_Source_File>
000000570.mol2

> <i_m_Source_File_Index>
1

$$$$
No_0_592
                    3D
 Schrodinger Suite 2022-4.
 66 72  0  0  1  0            999 V2000
   -5.0780    3.6320  -22.0860 C   0  0  0  0  0  0
   -5.3190    3.8090  -23.4280 C   0  0  0  0  0  0
   -3.8520    3.3550  -21.7220 C   0  0  0  0  0  0
   -2.9230    3.4330  -23.8750 C   0  0  0  0  0  0
   -2.7910    3.2040  -22.4490 C   0  0  0  0  0  0
   -4.2560    3.7190  -24.4210 C   0  0  0  0  0  0
   -3.4660    3.6950  -26.6060 C   0  0  0  0  0  0
    6.1590    2.8100  -21.1750 C   0  0  0  0  0  0
    6.0640    2.9220  -23.7280 C   0  0  0  0  0  0
   -4.4830    3.8350  -25.7610 C   0  0  0  0  0  0
    2.2940    3.5550  -23.8140 C   0  0  0  0  0  0
    1.4940    4.6860  -23.5420 C   0  0  0  0  0  0
    3.3080    5.8490  -22.8480 C   0  0  0  0  0  0
    3.6930    3.7180  -23.4800 C   0  0  0  0  0  0
    1.7330    2.4420  -24.4700 C   0  0  0  0  0  0
   -0.3770    3.3050  -24.4040 C   0  0  0  0  0  0
    0.1680    4.5210  -23.8120 C   0  0  0  0  0  0
   -1.8240    3.3390  -24.7820 C   0  0  0  0  0  0
    4.2370    1.2120  -23.1470 C   0  0  0  0  0  0
    5.1440    0.8500  -21.9810 C   0  0  2  0  0  0
    6.7800    2.3470  -22.5110 C   0  0  2  0  0  0
    5.1300    1.8660  -20.8270 C   0  0  0  0  0  0
   -2.1230    3.4870  -26.2170 C   0  0  0  0  0  0
   -1.4660    2.7680  -21.8230 C   0  0  0  0  0  0
   -0.4520    2.4030  -21.2970 C   0  0  0  0  0  0
   -0.6550    5.5890  -23.4940 F   0  0  0  0  0  0
   -3.6690    3.1260  -20.3340 F   0  0  0  0  0  0
    1.9890    5.8410  -23.0170 N   0  0  0  0  0  0
    4.1850    4.8640  -23.0420 N   0  0  0  0  0  0
    0.4300    2.3780  -24.7950 N   0  0  0  0  0  0
    4.5900    2.6480  -23.6300 N   0  0  0  0  0  0
    6.5590    0.8790  -22.4420 N   0  0  1  0  0  0
   -3.6160    3.6960  -27.9990 O   0  0  0  0  0  0
   -5.8899    3.7223  -21.3735 H   0  0  0  0  0  0
   -6.3233    4.0229  -23.7755 H   0  0  0  0  0  0
    5.7130    3.8070  -21.3052 H   0  0  0  0  0  0
    6.9333    2.8120  -20.3937 H   0  0  0  0  0  0
    6.4624    2.4570  -24.6418 H   0  0  0  0  0  0
    6.2326    4.0081  -23.7724 H   0  0  0  0  0  0
   -5.4831    4.0386  -26.1261 H   0  0  0  0  0  0
    2.3576    1.5954  -24.7311 H   0  0  0  0  0  0
    3.1877    1.1827  -22.8181 H   0  0  0  0  0  0
    4.3964    0.4999  -23.9701 H   0  0  0  0  0  0
    4.8908   -0.1518  -21.6037 H   0  0  0  0  0  0
    7.8547    2.5791  -22.5443 H   0  0  0  0  0  0
    4.1574    2.3795  -20.8058 H   0  0  0  0  0  0
    5.4036    1.3571  -19.8910 H   0  0  0  0  0  0
   -1.3413    3.4408  -26.9666 H   0  0  0  0  0  0
    0.4410    2.0830  -20.8330 H   0  0  0  0  0  0
    7.1835    0.3753  -21.7191 H   0  0  0  0  0  0
   -2.7668    3.5832  -28.4097 H   0  0  0  0  0  0
    4.9570    7.1360  -21.8010 O   0  0  0  0  0  0
    5.4370   10.2400  -21.5350 N   0  3  0  0  0  0
    3.1680    8.2770  -22.6680 N   0  0  0  0  0  0
    4.1610    9.8650  -20.8510 C   0  0  0  0  0  0
    4.9610   10.0420  -22.9380 C   0  0  0  0  0  0
    3.6250    9.6240  -22.2830 C   0  0  0  0  0  0
    3.8840    7.1680  -22.3920 C   0  0  0  0  0  0
    6.1329    9.5411  -21.3270 H   0  0  0  0  0  0
    5.6080   11.2221  -21.3860 H   0  0  0  0  0  0
    2.2944    8.2010  -23.1488 H   0  0  0  0  0  0
    3.7060   10.8011  -20.4950 H   0  0  0  0  0  0
    4.3221    8.8735  -20.4028 H   0  0  0  0  0  0
    5.4352    9.1206  -23.3071 H   0  0  0  0  0  0
    4.8051   11.0442  -23.3637 H   0  0  0  0  0  0
    2.8455   10.3635  -22.5188 H   0  0  0  0  0  0
  1  2  2  0  0  0
  1  3  1  0  0  0
  1 34  1  0  0  0
  2  6  1  0  0  0
  2 35  1  0  0  0
  3  5  2  0  0  0
  3 27  1  0  0  0
  4  5  1  0  0  0
  4  6  2  0  0  0
  4 18  1  0  0  0
  5 24  1  0  0  0
  6 10  1  0  0  0
  7 10  2  0  0  0
  7 23  1  0  0  0
  7 33  1  0  0  0
  8 21  1  0  0  0
  8 22  1  0  0  0
  8 36  1  0  0  0
  8 37  1  0  0  0
  9 21  1  0  0  0
  9 31  1  0  0  0
  9 38  1  0  0  0
  9 39  1  0  0  0
 10 40  1  0  0  0
 11 12  1  0  0  0
 11 14  2  0  0  0
 11 15  1  0  0  0
 12 17  1  0  0  0
 12 28  2  0  0  0
 13 28  1  0  0  0
 13 29  2  0  0  0
 13 58  1  0  0  0
 14 29  1  0  0  0
 14 31  1  0  0  0
 15 30  2  0  0  0
 15 41  1  0  0  0
 16 17  2  0  0  0
 16 18  1  0  0  0
 16 30  1  0  0  0
 17 26  1  0  0  0
 18 23  2  0  0  0
 19 20  1  0  0  0
 19 31  1  0  0  0
 19 42  1  0  0  0
 19 43  1  0  0  0
 20 22  1  0  0  0
 20 32  1  0  0  0
 20 44  1  0  0  0
 21 32  1  0  0  0
 21 45  1  0  0  0
 22 46  1  0  0  0
 22 47  1  0  0  0
 23 48  1  0  0  0
 24 25  3  0  0  0
 25 49  1  0  0  0
 32 50  1  0  0  0
 33 51  1  0  0  0
 52 58  2  0  0  0
 53 55  1  0  0  0
 53 56  1  0  0  0
 53 59  1  0  0  0
 53 60  1  0  0  0
 54 57  1  0  0  0
 54 58  1  0  0  0
 54 61  1  0  0  0
 55 57  1  0  0  0
 55 62  1  0  0  0
 55 63  1  0  0  0
 56 57  1  0  0  0
 56 64  1  0  0  0
 56 65  1  0  0  0
 57 66  1  0  0  0
M  CHG  1  53   1
M  END
> <s_m_entry_id>
729

> <s_m_entry_name>
000000571.1

> <s_m_Source_Path>
/Users/zaksoul/Documents/3r_UNI/2nd_SEMESTER/BSC/FRAG_RECON/RESULTS/2

> <s_m_Source_File>
000000571.mol2

> <i_m_Source_File_Index>
1

$$$$
No_0_593
                    3D
 Schrodinger Suite 2022-4.
 66 72  0  0  1  0            999 V2000
   -5.1810    3.6090  -21.8530 C   0  0  0  0  0  0
   -5.4520    3.8050  -23.1860 C   0  0  0  0  0  0
   -3.9420    3.3510  -21.5190 C   0  0  0  0  0  0
   -3.0590    3.4860  -23.6870 C   0  0  0  0  0  0
   -2.8930    3.2340  -22.2690 C   0  0  0  0  0  0
   -4.4090    3.7540  -24.2010 C   0  0  0  0  0  0
   -3.6630    3.7850  -26.4030 C   0  0  0  0  0  0
    6.0870    3.0010  -21.1820 C   0  0  0  0  0  0
    5.9380    3.1560  -23.7310 C   0  0  0  0  0  0
   -4.6650    3.8890  -25.5350 C   0  0  0  0  0  0
    2.1540    3.7130  -23.7290 C   0  0  0  0  0  0
    1.3370    4.8230  -23.4210 C   0  0  0  0  0  0
    3.1410    6.0110  -22.7430 C   0  0  0  0  0  0
    3.5570    3.8990  -23.4210 C   0  0  0  0  0  0
    1.6030    2.6010  -24.3930 C   0  0  0  0  0  0
   -0.5220    3.4190  -24.2700 C   0  0  0  0  0  0
    0.0100    4.6350  -23.6670 C   0  0  0  0  0  0
   -1.9770    3.4300  -24.6180 C   0  0  0  0  0  0
    4.1570    1.3990  -23.1440 C   0  0  0  0  0  0
    5.0950    1.0350  -22.0030 C   0  0  2  0  0  0
    6.6890    2.5740  -22.5390 C   0  0  2  0  0  0
    5.0840    2.0310  -20.8310 C   0  0  0  0  0  0
   -2.3080    3.5970  -26.0440 C   0  0  0  0  0  0
   -1.5470    2.8150  -21.6780 C   0  0  0  0  0  0
   -0.5150    2.4620  -21.1780 C   0  0  0  0  0  0
   -0.8280    5.6800  -23.3140 F   0  0  0  0  0  0
   -3.7260    3.1020  -20.1390 F   0  0  0  0  0  0
    1.8200    5.9780  -22.8860 N   0  0  0  0  0  0
    4.0350    5.0470  -22.9720 N   0  0  0  0  0  0
    0.2950    2.5160  -24.6930 N   0  0  0  0  0  0
    4.4710    2.8500  -23.6070 N   0  0  0  0  0  0
    6.5000    1.1010  -22.4910 N   0  0  1  0  0  0
   -3.8410    3.8060  -27.7920 O   0  0  0  0  0  0
   -5.9796    3.6712  -21.1226 H   0  0  0  0  0  0
   -6.4675    4.0037  -23.5091 H   0  0  0  0  0  0
    5.6179    3.9906  -21.2849 H   0  0  0  0  0  0
    6.8763    3.0060  -20.4159 H   0  0  0  0  0  0
    6.3275    2.7150  -24.6604 H   0  0  0  0  0  0
    6.0833    4.2460  -23.7593 H   0  0  0  0  0  0
   -5.6765    4.0776  -25.8762 H   0  0  0  0  0  0
    2.2385    1.7718  -24.6821 H   0  0  0  0  0  0
    3.1157    1.3435  -22.7939 H   0  0  0  0  0  0
    4.3144    0.7047  -23.9826 H   0  0  0  0  0  0
    4.8700    0.0218  -21.6387 H   0  0  0  0  0  0
    7.7578    2.8293  -22.5885 H   0  0  0  0  0  0
    4.1018    2.5236  -20.7805 H   0  0  0  0  0  0
    5.3877    1.5123  -19.9097 H   0  0  0  0  0  0
   -1.5411    3.5789  -26.8099 H   0  0  0  0  0  0
    0.3934    2.1519  -20.7378 H   0  0  0  0  0  0
    7.1492    0.5983  -21.7894 H   0  0  0  0  0  0
   -2.9984    3.7179  -28.2217 H   0  0  0  0  0  0
    3.1540    8.3490  -22.6890 O   0  0  0  0  0  0
    4.7770   10.4670  -21.0090 N   0  3  0  0  0  0
    4.7620    7.2890  -21.4450 N   0  0  0  0  0  0
    5.7120    9.6810  -21.8720 C   0  0  0  0  0  0
    4.4540    9.3730  -20.0430 C   0  0  0  0  0  0
    5.3950    8.5090  -20.9130 C   0  0  0  0  0  0
    3.7010    7.3330  -22.2760 C   0  0  0  0  0  0
    3.9491   10.6830  -21.5419 H   0  0  0  0  0  0
    5.3022   11.1802  -20.5278 H   0  0  0  0  0  0
    5.1463    6.4074  -21.1708 H   0  0  0  0  0  0
    6.7291   10.0230  -21.6300 H   0  0  0  0  0  0
    5.1783    9.4751  -22.8115 H   0  0  0  0  0  0
    3.4275    9.0458  -20.2651 H   0  0  0  0  0  0
    4.9999    9.5990  -19.1151 H   0  0  0  0  0  0
    6.2947    8.2421  -20.3392 H   0  0  0  0  0  0
  1  2  2  0  0  0
  1  3  1  0  0  0
  1 34  1  0  0  0
  2  6  1  0  0  0
  2 35  1  0  0  0
  3  5  2  0  0  0
  3 27  1  0  0  0
  4  5  1  0  0  0
  4  6  2  0  0  0
  4 18  1  0  0  0
  5 24  1  0  0  0
  6 10  1  0  0  0
  7 10  2  0  0  0
  7 23  1  0  0  0
  7 33  1  0  0  0
  8 21  1  0  0  0
  8 22  1  0  0  0
  8 36  1  0  0  0
  8 37  1  0  0  0
  9 21  1  0  0  0
  9 31  1  0  0  0
  9 38  1  0  0  0
  9 39  1  0  0  0
 10 40  1  0  0  0
 11 12  1  0  0  0
 11 14  2  0  0  0
 11 15  1  0  0  0
 12 17  1  0  0  0
 12 28  2  0  0  0
 13 28  1  0  0  0
 13 29  2  0  0  0
 13 58  1  0  0  0
 14 29  1  0  0  0
 14 31  1  0  0  0
 15 30  2  0  0  0
 15 41  1  0  0  0
 16 17  2  0  0  0
 16 18  1  0  0  0
 16 30  1  0  0  0
 17 26  1  0  0  0
 18 23  2  0  0  0
 19 20  1  0  0  0
 19 31  1  0  0  0
 19 42  1  0  0  0
 19 43  1  0  0  0
 20 22  1  0  0  0
 20 32  1  0  0  0
 20 44  1  0  0  0
 21 32  1  0  0  0
 21 45  1  0  0  0
 22 46  1  0  0  0
 22 47  1  0  0  0
 23 48  1  0  0  0
 24 25  3  0  0  0
 25 49  1  0  0  0
 32 50  1  0  0  0
 33 51  1  0  0  0
 52 58  2  0  0  0
 53 55  1  0  0  0
 53 56  1  0  0  0
 53 59  1  0  0  0
 53 60  1  0  0  0
 54 57  1  0  0  0
 54 58  1  0  0  0
 54 61  1  0  0  0
 55 57  1  0  0  0
 55 62  1  0  0  0
 55 63  1  0  0  0
 56 57  1  0  0  0
 56 64  1  0  0  0
 56 65  1  0  0  0
 57 66  1  0  0  0
M  CHG  1  53   1
M  END
> <s_m_entry_id>
730

> <s_m_entry_name>
000000572.1

> <s_m_Source_Path>
/Users/zaksoul/Documents/3r_UNI/2nd_SEMESTER/BSC/FRAG_RECON/RESULTS/2

> <s_m_Source_File>
000000572.mol2

> <i_m_Source_File_Index>
1

$$$$
No_0_594
                    3D
 Schrodinger Suite 2022-4.
 66 72  0  0  1  0            999 V2000
   -4.9050    3.7440  -21.6710 C   0  0  0  0  0  0
   -5.1880    3.9290  -23.0030 C   0  0  0  0  0  0
   -3.6730    3.4430  -21.3490 C   0  0  0  0  0  0
   -2.8170    3.5090  -23.5320 C   0  0  0  0  0  0
   -2.6400    3.2740  -22.1120 C   0  0  0  0  0  0
   -4.1620    3.8220  -24.0310 C   0  0  0  0  0  0
   -3.4480    3.7890  -26.2430 C   0  0  0  0  0  0
    6.3390    2.7080  -21.1470 C   0  0  0  0  0  0
    6.1590    2.8290  -23.6950 C   0  0  0  0  0  0
   -4.4330    3.9450  -25.3640 C   0  0  0  0  0  0
    2.4000    3.5330  -23.6500 C   0  0  0  0  0  0
    1.6320    4.6780  -23.3490 C   0  0  0  0  0  0
    3.4900    5.8050  -22.7150 C   0  0  0  0  0  0
    3.8130    3.6690  -23.3640 C   0  0  0  0  0  0
    1.7960    2.4320  -24.2880 C   0  0  0  0  0  0
   -0.2930    3.3340  -24.1480 C   0  0  0  0  0  0
    0.2940    4.5380  -23.5730 C   0  0  0  0  0  0
   -1.7510    3.3970  -24.4760 C   0  0  0  0  0  0
    4.3200    1.1510  -23.0550 C   0  0  0  0  0  0
    5.2600    0.7690  -21.9210 C   0  0  2  0  0  0
    6.9050    2.2370  -22.5040 C   0  0  2  0  0  0
    5.3050    1.7830  -20.7660 C   0  0  0  0  0  0
   -2.0960    3.5550  -25.9000 C   0  0  0  0  0  0
   -1.3030    2.8110  -21.5330 C   0  0  0  0  0  0
   -0.2790    2.4260  -21.0420 C   0  0  0  0  0  0
   -0.4970    5.6210  -23.2250 F   0  0  0  0  0  0
   -3.4470    3.2070  -19.9690 F   0  0  0  0  0  0
    2.1660    5.8220  -22.8390 N   0  0  0  0  0  0
    4.3420    4.8040  -22.9410 N   0  0  0  0  0  0
    0.4820    2.3940  -24.5690 N   0  0  0  0  0  0
    4.6840    2.5820  -23.5460 N   0  0  0  0  0  0
    6.6590    0.7730  -22.4300 N   0  0  1  0  0  0
   -3.6460    3.7960  -27.6300 O   0  0  0  0  0  0
   -5.6898    3.8474  -20.9304 H   0  0  0  0  0  0
   -6.1994    4.1628  -23.3151 H   0  0  0  0  0  0
    5.9070    3.7134  -21.2590 H   0  0  0  0  0  0
    7.1391    2.6939  -20.3923 H   0  0  0  0  0  0
    6.5173    2.3587  -24.6226 H   0  0  0  0  0  0
    6.3457    3.9120  -23.7434 H   0  0  0  0  0  0
   -5.4412    4.1689  -25.6934 H   0  0  0  0  0  0
    2.3954    1.5746  -24.5721 H   0  0  0  0  0  0
    3.2825    1.1419  -22.6896 H   0  0  0  0  0  0
    4.4381    0.4384  -23.8846 H   0  0  0  0  0  0
    5.0005   -0.2287  -21.5373 H   0  0  0  0  0  0
    7.9821    2.4490  -22.5737 H   0  0  0  0  0  0
    4.3437    2.3146  -20.7095 H   0  0  0  0  0  0
    5.6007    1.2673  -19.8405 H   0  0  0  0  0  0
   -1.3423    3.4948  -26.6768 H   0  0  0  0  0  0
    0.6233    2.0879  -20.6099 H   0  0  0  0  0  0
    7.2985    0.2565  -21.7295 H   0  0  0  0  0  0
   -2.8135    3.6683  -28.0695 H   0  0  0  0  0  0
    3.3520    8.0660  -22.1340 O   0  0  0  0  0  0
    5.4330   10.1380  -20.9860 N   0  3  0  0  0  0
    5.4410    7.1240  -22.0850 N   0  0  0  0  0  0
    5.8660    9.6860  -22.3440 C   0  0  0  0  0  0
    5.7220    8.8600  -20.2650 C   0  0  0  0  0  0
    6.1620    8.3340  -21.6500 C   0  0  0  0  0  0
    4.1070    7.1120  -22.2770 C   0  0  0  0  0  0
    4.4358   10.2850  -20.9960 H   0  0  0  0  0  0
    6.0733   10.8453  -20.6608 H   0  0  0  0  0  0
    5.9765    6.2933  -22.2371 H   0  0  0  0  0  0
    6.8387   10.1603  -22.5411 H   0  0  0  0  0  0
    4.9504    9.5431  -22.9367 H   0  0  0  0  0  0
    4.7505    8.3948  -20.0419 H   0  0  0  0  0  0
    6.6399    9.0260  -19.6820 H   0  0  0  0  0  0
    7.2455    8.1439  -21.6500 H   0  0  0  0  0  0
  1  2  2  0  0  0
  1  3  1  0  0  0
  1 34  1  0  0  0
  2  6  1  0  0  0
  2 35  1  0  0  0
  3  5  2  0  0  0
  3 27  1  0  0  0
  4  5  1  0  0  0
  4  6  2  0  0  0
  4 18  1  0  0  0
  5 24  1  0  0  0
  6 10  1  0  0  0
  7 10  2  0  0  0
  7 23  1  0  0  0
  7 33  1  0  0  0
  8 21  1  0  0  0
  8 22  1  0  0  0
  8 36  1  0  0  0
  8 37  1  0  0  0
  9 21  1  0  0  0
  9 31  1  0  0  0
  9 38  1  0  0  0
  9 39  1  0  0  0
 10 40  1  0  0  0
 11 12  1  0  0  0
 11 14  2  0  0  0
 11 15  1  0  0  0
 12 17  1  0  0  0
 12 28  2  0  0  0
 13 28  1  0  0  0
 13 29  2  0  0  0
 13 58  1  0  0  0
 14 29  1  0  0  0
 14 31  1  0  0  0
 15 30  2  0  0  0
 15 41  1  0  0  0
 16 17  2  0  0  0
 16 18  1  0  0  0
 16 30  1  0  0  0
 17 26  1  0  0  0
 18 23  2  0  0  0
 19 20  1  0  0  0
 19 31  1  0  0  0
 19 42  1  0  0  0
 19 43  1  0  0  0
 20 22  1  0  0  0
 20 32  1  0  0  0
 20 44  1  0  0  0
 21 32  1  0  0  0
 21 45  1  0  0  0
 22 46  1  0  0  0
 22 47  1  0  0  0
 23 48  1  0  0  0
 24 25  3  0  0  0
 25 49  1  0  0  0
 32 50  1  0  0  0
 33 51  1  0  0  0
 52 58  2  0  0  0
 53 55  1  0  0  0
 53 56  1  0  0  0
 53 59  1  0  0  0
 53 60  1  0  0  0
 54 57  1  0  0  0
 54 58  1  0  0  0
 54 61  1  0  0  0
 55 57  1  0  0  0
 55 62  1  0  0  0
 55 63  1  0  0  0
 56 57  1  0  0  0
 56 64  1  0  0  0
 56 65  1  0  0  0
 57 66  1  0  0  0
M  CHG  1  53   1
M  END
> <s_m_entry_id>
731

> <s_m_entry_name>
000000573.1

> <s_m_Source_Path>
/Users/zaksoul/Documents/3r_UNI/2nd_SEMESTER/BSC/FRAG_RECON/RESULTS/2

> <s_m_Source_File>
000000573.mol2

> <i_m_Source_File_Index>
1

$$$$
No_0_595
                    3D
 Schrodinger Suite 2022-4.
 70 76  0  0  1  0            999 V2000
   -5.2650    3.7470  -21.9040 C   0  0  0  0  0  0
   -5.5450    3.8920  -23.2420 C   0  0  0  0  0  0
   -4.0300    3.4730  -21.5690 C   0  0  0  0  0  0
   -3.1650    3.4940  -23.7490 C   0  0  0  0  0  0
   -2.9920    3.2990  -22.3230 C   0  0  0  0  0  0
   -4.5120    3.7730  -24.2630 C   0  0  0  0  0  0
   -3.7870    3.6920  -26.4690 C   0  0  0  0  0  0
    5.9900    2.8910  -21.3050 C   0  0  0  0  0  0
    5.8210    2.9420  -23.8560 C   0  0  0  0  0  0
   -4.7780    3.8570  -25.5990 C   0  0  0  0  0  0
    2.0520    3.5910  -23.8450 C   0  0  0  0  0  0
    1.2650    4.7320  -23.5780 C   0  0  0  0  0  0
    3.1040    5.9030  -22.9670 C   0  0  0  0  0  0
    3.4610    3.7560  -23.5570 C   0  0  0  0  0  0
    1.4670    2.4660  -24.4570 C   0  0  0  0  0  0
   -0.6360    3.3400  -24.3500 C   0  0  0  0  0  0
   -0.0690    4.5670  -23.8040 C   0  0  0  0  0  0
   -2.0930    3.3720  -24.6860 C   0  0  0  0  0  0
    4.0040    1.2550  -23.1790 C   0  0  0  0  0  0
    4.9430    0.9170  -22.0320 C   0  0  2  0  0  0
    6.5690    2.3930  -22.6470 C   0  0  2  0  0  0
    4.9680    1.9620  -20.9030 C   0  0  0  0  0  0
   -2.4340    3.4870  -26.1140 C   0  0  0  0  0  0
   -1.6510    2.8720  -21.7260 C   0  0  0  0  0  0
   -0.6230    2.5150  -21.2210 C   0  0  0  0  0  0
   -0.8780    5.6470  -23.4890 F   0  0  0  0  0  0
   -3.8070    3.2770  -20.1820 F   0  0  0  0  0  0
    1.7800    5.8970  -23.0970 N   0  0  0  0  0  0
    3.9710    4.9090  -23.1620 N   0  0  0  0  0  0
    0.1550    2.4000  -24.7420 N   0  0  0  0  0  0
    4.3480    2.6770  -23.7070 N   0  0  0  0  0  0
    6.3450    0.9280  -22.5340 N   0  0  1  0  0  0
   -3.9790    3.6590  -27.8560 O   0  0  0  0  0  0
   -6.0545    3.8584  -21.1696 H   0  0  0  0  0  0
   -6.5582    4.1029  -23.5644 H   0  0  0  0  0  0
    5.5449    3.8871  -21.4453 H   0  0  0  0  0  0
    6.7866    2.9092  -20.5467 H   0  0  0  0  0  0
    6.1906    2.4522  -24.7689 H   0  0  0  0  0  0
    5.9926    4.0259  -23.9317 H   0  0  0  0  0  0
   -5.7881    4.0566  -25.9380 H   0  0  0  0  0  0
    2.0801    1.6101  -24.7149 H   0  0  0  0  0  0
    2.9648    1.2399  -22.8188 H   0  0  0  0  0  0
    4.1362    0.5221  -23.9886 H   0  0  0  0  0  0
    4.6978   -0.0740  -21.6223 H   0  0  0  0  0  0
    7.6433    2.6190  -22.7166 H   0  0  0  0  0  0
    3.9984    2.4801  -20.8656 H   0  0  0  0  0  0
    5.2677    1.4746  -19.9635 H   0  0  0  0  0  0
   -1.6756    3.4178  -26.8854 H   0  0  0  0  0  0
    0.2818    2.2011  -20.7761 H   0  0  0  0  0  0
    6.9887    0.4393  -21.8176 H   0  0  0  0  0  0
   -3.1431    3.5324  -28.2893 H   0  0  0  0  0  0
    7.3260    8.9550  -22.1990 O   0  0  0  0  0  0
    3.1760    8.2440  -23.0090 O   0  0  0  0  0  0
    3.5080    9.6200  -20.5410 N   0  3  0  0  0  0
    4.7780    7.1870  -21.7550 N   0  0  0  0  0  0
    7.0150    8.0970  -21.1030 C   0  0  0  0  0  0
    5.9900    9.3160  -22.5440 C   0  0  0  0  0  0
    4.9070    9.1890  -20.2140 C   0  0  0  0  0  0
    5.5200    8.4020  -21.3850 C   0  0  0  0  0  0
    3.6990    7.2300  -22.5610 C   0  0  0  0  0  0
    3.1240   10.1330  -19.7629 H   0  0  0  0  0  0
    3.5190   10.2090  -21.3590 H   0  0  0  0  0  0
    2.9392    8.8073  -20.7199 H   0  0  0  0  0  0
    5.0952    6.3114  -21.3907 H   0  0  0  0  0  0
    7.2881    8.6322  -20.1816 H   0  0  0  0  0  0
    7.2049    7.0653  -21.4339 H   0  0  0  0  0  0
    5.7470    8.8009  -23.4851 H   0  0  0  0  0  0
    5.8401   10.3565  -22.2202 H   0  0  0  0  0  0
    4.8960    8.5569  -19.3138 H   0  0  0  0  0  0
    5.5243   10.0754  -20.0059 H   0  0  0  0  0  0
  1  2  2  0  0  0
  1  3  1  0  0  0
  1 34  1  0  0  0
  2  6  1  0  0  0
  2 35  1  0  0  0
  3  5  2  0  0  0
  3 27  1  0  0  0
  4  5  1  0  0  0
  4  6  2  0  0  0
  4 18  1  0  0  0
  5 24  1  0  0  0
  6 10  1  0  0  0
  7 10  2  0  0  0
  7 23  1  0  0  0
  7 33  1  0  0  0
  8 21  1  0  0  0
  8 22  1  0  0  0
  8 36  1  0  0  0
  8 37  1  0  0  0
  9 21  1  0  0  0
  9 31  1  0  0  0
  9 38  1  0  0  0
  9 39  1  0  0  0
 10 40  1  0  0  0
 11 12  1  0  0  0
 11 14  2  0  0  0
 11 15  1  0  0  0
 12 17  1  0  0  0
 12 28  2  0  0  0
 13 28  1  0  0  0
 13 29  2  0  0  0
 13 60  1  0  0  0
 14 29  1  0  0  0
 14 31  1  0  0  0
 15 30  2  0  0  0
 15 41  1  0  0  0
 16 17  2  0  0  0
 16 18  1  0  0  0
 16 30  1  0  0  0
 17 26  1  0  0  0
 18 23  2  0  0  0
 19 20  1  0  0  0
 19 31  1  0  0  0
 19 42  1  0  0  0
 19 43  1  0  0  0
 20 22  1  0  0  0
 20 32  1  0  0  0
 20 44  1  0  0  0
 21 32  1  0  0  0
 21 45  1  0  0  0
 22 46  1  0  0  0
 22 47  1  0  0  0
 23 48  1  0  0  0
 24 25  3  0  0  0
 25 49  1  0  0  0
 32 50  1  0  0  0
 33 51  1  0  0  0
 52 56  1  0  0  0
 52 57  1  0  0  0
 53 60  2  0  0  0
 54 58  1  0  0  0
 54 61  1  0  0  0
 54 62  1  0  0  0
 54 63  1  0  0  0
 55 59  1  0  0  0
 55 60  1  0  0  0
 55 64  1  0  0  0
 56 59  1  0  0  0
 56 65  1  0  0  0
 56 66  1  0  0  0
 57 59  1  0  0  0
 57 67  1  0  0  0
 57 68  1  0  0  0
 58 59  1  0  0  0
 58 69  1  0  0  0
 58 70  1  0  0  0
M  CHG  1  54   1
M  END
> <s_m_entry_id>
732

> <s_m_entry_name>
000000574.1

> <s_m_Source_Path>
/Users/zaksoul/Documents/3r_UNI/2nd_SEMESTER/BSC/FRAG_RECON/RESULTS/2

> <s_m_Source_File>
000000574.mol2

> <i_m_Source_File_Index>
1

$$$$
No_0_596
                    3D
 Schrodinger Suite 2022-4.
 70 76  0  0  1  0            999 V2000
   -4.8810    3.7600  -21.8420 C   0  0  0  0  0  0
   -5.1760    3.9450  -23.1720 C   0  0  0  0  0  0
   -3.6400    3.4860  -21.5300 C   0  0  0  0  0  0
   -2.7990    3.5820  -23.7170 C   0  0  0  0  0  0
   -2.6080    3.3440  -22.2990 C   0  0  0  0  0  0
   -4.1540    3.8660  -24.2070 C   0  0  0  0  0  0
   -3.4520    3.8600  -26.4230 C   0  0  0  0  0  0
    6.3870    2.9820  -21.3890 C   0  0  0  0  0  0
    6.1890    3.1100  -23.9350 C   0  0  0  0  0  0
   -4.4350    3.9900  -25.5370 C   0  0  0  0  0  0
    2.4160    3.7270  -23.8650 C   0  0  0  0  0  0
    1.6230    4.8520  -23.5540 C   0  0  0  0  0  0
    3.4580    6.0190  -22.9250 C   0  0  0  0  0  0
    3.8270    3.8940  -23.5870 C   0  0  0  0  0  0
    1.8340    2.6160  -24.5050 C   0  0  0  0  0  0
   -0.2750    3.4690  -24.3490 C   0  0  0  0  0  0
    0.2880    4.6830  -23.7710 C   0  0  0  0  0  0
   -1.7360    3.4990  -24.6680 C   0  0  0  0  0  0
    4.3940    1.3880  -23.2920 C   0  0  0  0  0  0
    5.3480    1.0220  -22.1660 C   0  0  2  0  0  0
    6.9560    2.5300  -22.7510 C   0  0  2  0  0  0
    5.3770    2.0310  -21.0060 C   0  0  0  0  0  0
   -2.0930    3.6550  -26.0890 C   0  0  0  0  0  0
   -1.2580    2.9100  -21.7300 C   0  0  0  0  0  0
   -0.2210    2.5470  -21.2470 C   0  0  0  0  0  0
   -0.5260    5.7460  -23.4140 F   0  0  0  0  0  0
   -3.4000    3.2490  -20.1510 F   0  0  0  0  0  0
    2.1330    6.0060  -23.0420 N   0  0  0  0  0  0
    4.3310    5.0390  -23.1610 N   0  0  0  0  0  0
    0.5190    2.5480  -24.7780 N   0  0  0  0  0  0
    4.7210    2.8280  -23.7790 N   0  0  0  0  0  0
    6.7440    1.0600  -22.6830 N   0  0  1  0  0  0
   -3.6580    3.8690  -27.8080 O   0  0  0  0  0  0
   -5.6641    3.8423  -21.0970 H   0  0  0  0  0  0
   -6.1946    4.1557  -23.4771 H   0  0  0  0  0  0
    5.9315    3.9778  -21.4940 H   0  0  0  0  0  0
    7.1911    2.9830  -20.6384 H   0  0  0  0  0  0
    6.5534    2.6527  -24.8667 H   0  0  0  0  0  0
    6.3515    4.1971  -23.9784 H   0  0  0  0  0  0
   -5.4500    4.1908  -25.8603 H   0  0  0  0  0  0
    2.4506    1.7734  -24.7962 H   0  0  0  0  0  0
    3.3588    1.3527  -22.9217 H   0  0  0  0  0  0
    4.5231    0.6817  -24.1254 H   0  0  0  0  0  0
    5.1148    0.0166  -21.7854 H   0  0  0  0  0  0
    8.0275    2.7673  -22.8257 H   0  0  0  0  0  0
    4.4039    2.5398  -20.9414 H   0  0  0  0  0  0
    5.6899    1.5183  -20.0845 H   0  0  0  0  0  0
   -1.3422    3.6169  -26.8699 H   0  0  0  0  0  0
    0.6912    2.2269  -20.8219 H   0  0  0  0  0  0
    7.3996    0.5552  -21.9889 H   0  0  0  0  0  0
   -2.8257    3.7621  -28.2533 H   0  0  0  0  0  0
    7.5730    9.2900  -22.6110 O   0  0  0  0  0  0
    3.3910    8.3500  -22.7030 O   0  0  0  0  0  0
    4.1230    9.4780  -20.1960 N   0  3  0  0  0  0
    5.2640    7.2930  -21.9080 N   0  0  0  0  0  0
    7.5310    8.3000  -21.5860 C   0  0  0  0  0  0
    6.1780    9.5820  -22.6530 C   0  0  0  0  0  0
    5.5820    9.1250  -20.1930 C   0  0  0  0  0  0
    5.9960    8.5160  -21.5430 C   0  0  0  0  0  0
    4.0470    7.3380  -22.4840 C   0  0  0  0  0  0
    3.8721    9.8758  -19.3044 H   0  0  0  0  0  0
    3.9410   10.1500  -20.9250 H   0  0  0  0  0  0
    3.5757    8.6476  -20.3601 H   0  0  0  0  0  0
    5.6941    6.4109  -21.7160 H   0  0  0  0  0  0
    7.9500    8.7540  -20.6759 H   0  0  0  0  0  0
    7.7089    7.3267  -22.0667 H   0  0  0  0  0  0
    5.7831    9.1511  -23.5848 H   0  0  0  0  0  0
    6.0360   10.5672  -22.1849 H   0  0  0  0  0  0
    5.7819    8.4022  -19.3883 H   0  0  0  0  0  0
    6.1770   10.0300  -20.0010 H   0  0  0  0  0  0
  1  2  2  0  0  0
  1  3  1  0  0  0
  1 34  1  0  0  0
  2  6  1  0  0  0
  2 35  1  0  0  0
  3  5  2  0  0  0
  3 27  1  0  0  0
  4  5  1  0  0  0
  4  6  2  0  0  0
  4 18  1  0  0  0
  5 24  1  0  0  0
  6 10  1  0  0  0
  7 10  2  0  0  0
  7 23  1  0  0  0
  7 33  1  0  0  0
  8 21  1  0  0  0
  8 22  1  0  0  0
  8 36  1  0  0  0
  8 37  1  0  0  0
  9 21  1  0  0  0
  9 31  1  0  0  0
  9 38  1  0  0  0
  9 39  1  0  0  0
 10 40  1  0  0  0
 11 12  1  0  0  0
 11 14  2  0  0  0
 11 15  1  0  0  0
 12 17  1  0  0  0
 12 28  2  0  0  0
 13 28  1  0  0  0
 13 29  2  0  0  0
 13 60  1  0  0  0
 14 29  1  0  0  0
 14 31  1  0  0  0
 15 30  2  0  0  0
 15 41  1  0  0  0
 16 17  2  0  0  0
 16 18  1  0  0  0
 16 30  1  0  0  0
 17 26  1  0  0  0
 18 23  2  0  0  0
 19 20  1  0  0  0
 19 31  1  0  0  0
 19 42  1  0  0  0
 19 43  1  0  0  0
 20 22  1  0  0  0
 20 32  1  0  0  0
 20 44  1  0  0  0
 21 32  1  0  0  0
 21 45  1  0  0  0
 22 46  1  0  0  0
 22 47  1  0  0  0
 23 48  1  0  0  0
 24 25  3  0  0  0
 25 49  1  0  0  0
 32 50  1  0  0  0
 33 51  1  0  0  0
 52 56  1  0  0  0
 52 57  1  0  0  0
 53 60  2  0  0  0
 54 58  1  0  0  0
 54 61  1  0  0  0
 54 62  1  0  0  0
 54 63  1  0  0  0
 55 59  1  0  0  0
 55 60  1  0  0  0
 55 64  1  0  0  0
 56 59  1  0  0  0
 56 65  1  0  0  0
 56 66  1  0  0  0
 57 59  1  0  0  0
 57 67  1  0  0  0
 57 68  1  0  0  0
 58 59  1  0  0  0
 58 69  1  0  0  0
 58 70  1  0  0  0
M  CHG  1  54   1
M  END
> <s_m_entry_id>
733

> <s_m_entry_name>
000000575.1

> <s_m_Source_Path>
/Users/zaksoul/Documents/3r_UNI/2nd_SEMESTER/BSC/FRAG_RECON/RESULTS/2

> <s_m_Source_File>
000000575.mol2

> <i_m_Source_File_Index>
1

$$$$
No_0_597
                    3D
 Schrodinger Suite 2022-4.
 70 76  0  0  1  0            999 V2000
   -5.0400    3.7140  -21.4800 C   0  0  0  0  0  0
   -5.3550    3.9030  -22.8040 C   0  0  0  0  0  0
   -3.7980    3.4210  -21.1880 C   0  0  0  0  0  0
   -2.9940    3.5040  -23.3900 C   0  0  0  0  0  0
   -2.7830    3.2630  -21.9750 C   0  0  0  0  0  0
   -4.3520    3.8090  -23.8570 C   0  0  0  0  0  0
   -3.6880    3.7930  -26.0840 C   0  0  0  0  0  0
    6.2200    2.7610  -21.2190 C   0  0  0  0  0  0
    5.9810    2.8930  -23.7620 C   0  0  0  0  0  0
   -4.6540    3.9370  -25.1820 C   0  0  0  0  0  0
    2.2190    3.5690  -23.6270 C   0  0  0  0  0  0
    1.4490    4.7060  -23.3020 C   0  0  0  0  0  0
    3.3130    5.8440  -22.7060 C   0  0  0  0  0  0
    3.6370    3.7140  -23.3730 C   0  0  0  0  0  0
    1.6090    2.4670  -24.2570 C   0  0  0  0  0  0
   -0.4830    3.3520  -24.0650 C   0  0  0  0  0  0
    0.1080    4.5570  -23.4970 C   0  0  0  0  0  0
   -1.9490    3.4050  -24.3590 C   0  0  0  0  0  0
    4.1700    1.1990  -23.0880 C   0  0  0  0  0  0
    5.1380    0.8180  -21.9790 C   0  0  2  0  0  0
    6.7580    2.3010  -22.5910 C   0  0  2  0  0  0
    5.2020    1.8260  -20.8190 C   0  0  0  0  0  0
   -2.3280    3.5670  -25.7730 C   0  0  0  0  0  0
   -1.4290    2.8080  -21.4300 C   0  0  0  0  0  0
   -0.3910    2.4290  -20.9640 C   0  0  0  0  0  0
   -0.6830    5.6320  -23.1250 F   0  0  0  0  0  0
   -3.5390    3.1800  -19.8140 F   0  0  0  0  0  0
    1.9860    5.8510  -22.7990 N   0  0  0  0  0  0
    4.1670    4.8510  -22.9560 N   0  0  0  0  0  0
    0.2890    2.4200  -24.5070 N   0  0  0  0  0  0
    4.5120    2.6340  -23.5800 N   0  0  0  0  0  0
    6.5250    0.8350  -22.5190 N   0  0  1  0  0  0
   -3.9180    3.8050  -27.4660 O   0  0  0  0  0  0
   -5.8086    3.8083  -20.7214 H   0  0  0  0  0  0
   -6.3750    4.1307  -23.0918 H   0  0  0  0  0  0
    5.7790    3.7641  -21.3159 H   0  0  0  0  0  0
    7.0376    2.7499  -20.4832 H   0  0  0  0  0  0
    6.3223    2.4306  -24.6999 H   0  0  0  0  0  0
    6.1586    3.9776  -23.8084 H   0  0  0  0  0  0
   -5.6712    4.1547  -25.4870 H   0  0  0  0  0  0
    2.2078    1.6154  -24.5589 H   0  0  0  0  0  0
    3.1412    1.1798  -22.6993 H   0  0  0  0  0  0
    4.2739    0.4908  -23.9233 H   0  0  0  0  0  0
    4.8957   -0.1836  -21.5943 H   0  0  0  0  0  0
    7.8316    2.5220  -22.6838 H   0  0  0  0  0  0
    4.2385    2.3506  -20.7383 H   0  0  0  0  0  0
    5.5231    1.3080  -19.9032 H   0  0  0  0  0  0
   -1.5915    3.5168  -26.5667 H   0  0  0  0  0  0
    0.5236    2.0951  -20.5552 H   0  0  0  0  0  0
    7.1848    0.3196  -21.8368 H   0  0  0  0  0  0
   -3.0948    3.6863  -27.9251 H   0  0  0  0  0  0
    7.2860    9.2940  -22.9180 O   0  0  0  0  0  0
    3.2070    8.1430  -22.2710 O   0  0  0  0  0  0
    4.3830    9.1090  -19.8670 N   0  3  0  0  0  0
    5.2370    7.1280  -21.9540 N   0  0  0  0  0  0
    7.4850    8.2250  -21.9960 C   0  0  0  0  0  0
    5.9010    9.5130  -22.6600 C   0  0  0  0  0  0
    5.8250    8.8340  -20.1810 C   0  0  0  0  0  0
    5.9830    8.3550  -21.6340 C   0  0  0  0  0  0
    3.9300    7.1530  -22.2750 C   0  0  0  0  0  0
    4.3000    9.4201  -18.9118 H   0  0  0  0  0  0
    4.0347    9.8246  -20.4856 H   0  0  0  0  0  0
    3.8450    8.2660  -19.9930 H   0  0  0  0  0  0
    5.7291    6.2578  -21.9280 H   0  0  0  0  0  0
    8.0599    8.6279  -21.1492 H   0  0  0  0  0  0
    7.5990    7.3030  -22.5850 H   0  0  0  0  0  0
    5.3441    9.1370  -23.5309 H   0  0  0  0  0  0
    5.8200   10.4498  -22.0891 H   0  0  0  0  0  0
    6.2079    8.0622  -19.4971 H   0  0  0  0  0  0
    6.4132    9.7513  -20.0309 H   0  0  0  0  0  0
  1  2  2  0  0  0
  1  3  1  0  0  0
  1 34  1  0  0  0
  2  6  1  0  0  0
  2 35  1  0  0  0
  3  5  2  0  0  0
  3 27  1  0  0  0
  4  5  1  0  0  0
  4  6  2  0  0  0
  4 18  1  0  0  0
  5 24  1  0  0  0
  6 10  1  0  0  0
  7 10  2  0  0  0
  7 23  1  0  0  0
  7 33  1  0  0  0
  8 21  1  0  0  0
  8 22  1  0  0  0
  8 36  1  0  0  0
  8 37  1  0  0  0
  9 21  1  0  0  0
  9 31  1  0  0  0
  9 38  1  0  0  0
  9 39  1  0  0  0
 10 40  1  0  0  0
 11 12  1  0  0  0
 11 14  2  0  0  0
 11 15  1  0  0  0
 12 17  1  0  0  0
 12 28  2  0  0  0
 13 28  1  0  0  0
 13 29  2  0  0  0
 13 60  1  0  0  0
 14 29  1  0  0  0
 14 31  1  0  0  0
 15 30  2  0  0  0
 15 41  1  0  0  0
 16 17  2  0  0  0
 16 18  1  0  0  0
 16 30  1  0  0  0
 17 26  1  0  0  0
 18 23  2  0  0  0
 19 20  1  0  0  0
 19 31  1  0  0  0
 19 42  1  0  0  0
 19 43  1  0  0  0
 20 22  1  0  0  0
 20 32  1  0  0  0
 20 44  1  0  0  0
 21 32  1  0  0  0
 21 45  1  0  0  0
 22 46  1  0  0  0
 22 47  1  0  0  0
 23 48  1  0  0  0
 24 25  3  0  0  0
 25 49  1  0  0  0
 32 50  1  0  0  0
 33 51  1  0  0  0
 52 56  1  0  0  0
 52 57  1  0  0  0
 53 60  2  0  0  0
 54 58  1  0  0  0
 54 61  1  0  0  0
 54 62  1  0  0  0
 54 63  1  0  0  0
 55 59  1  0  0  0
 55 60  1  0  0  0
 55 64  1  0  0  0
 56 59  1  0  0  0
 56 65  1  0  0  0
 56 66  1  0  0  0
 57 59  1  0  0  0
 57 67  1  0  0  0
 57 68  1  0  0  0
 58 59  1  0  0  0
 58 69  1  0  0  0
 58 70  1  0  0  0
M  CHG  1  54   1
M  END
> <s_m_entry_id>
734

> <s_m_entry_name>
000000576.1

> <s_m_Source_Path>
/Users/zaksoul/Documents/3r_UNI/2nd_SEMESTER/BSC/FRAG_RECON/RESULTS/2

> <s_m_Source_File>
000000576.mol2

> <i_m_Source_File_Index>
1

$$$$
No_0_598
                    3D
 Schrodinger Suite 2022-4.
 69 75  0  0  1  0            999 V2000
   -4.8710    3.5430  -21.5290 C   0  0  0  0  0  0
   -5.1820    3.7760  -22.8480 C   0  0  0  0  0  0
   -3.6250    3.2620  -21.2410 C   0  0  0  0  0  0
   -2.8110    3.4400  -23.4330 C   0  0  0  0  0  0
   -2.6030    3.1510  -22.0270 C   0  0  0  0  0  0
   -4.1720    3.7380  -23.8970 C   0  0  0  0  0  0
   -3.4960    3.8160  -26.1190 C   0  0  0  0  0  0
    6.4030    2.7780  -21.2360 C   0  0  0  0  0  0
    6.1760    3.0000  -23.7730 C   0  0  0  0  0  0
   -4.4690    3.9100  -25.2180 C   0  0  0  0  0  0
    2.4020    3.6040  -23.6370 C   0  0  0  0  0  0
    1.6100    4.7150  -23.2750 C   0  0  0  0  0  0
    3.4500    5.8630  -22.6260 C   0  0  0  0  0  0
    3.8150    3.7640  -23.3690 C   0  0  0  0  0  0
    1.8140    2.5160  -24.3100 C   0  0  0  0  0  0
   -0.2940    3.3570  -24.0980 C   0  0  0  0  0  0
    0.2730    4.5500  -23.4830 C   0  0  0  0  0  0
   -1.7590    3.3950  -24.3990 C   0  0  0  0  0  0
    4.3910    1.2500  -23.1740 C   0  0  0  0  0  0
    5.3600    0.8460  -22.0730 C   0  0  2  0  0  0
    6.9570    2.3780  -22.6210 C   0  0  2  0  0  0
    5.4000    1.8120  -20.8770 C   0  0  0  0  0  0
   -2.1330    3.6020  -25.8090 C   0  0  0  0  0  0
   -1.2450    2.6990  -21.4910 C   0  0  0  0  0  0
   -0.2020    2.3210  -21.0330 C   0  0  0  0  0  0
   -0.5390    5.5970  -23.0770 F   0  0  0  0  0  0
   -3.3690    2.9740  -19.8760 F   0  0  0  0  0  0
    2.1240    5.8500  -22.7270 N   0  0  0  0  0  0
    4.3230    4.8940  -22.9070 N   0  0  0  0  0  0
    0.4970    2.4550  -24.5700 N   0  0  0  0  0  0
    4.7100    2.7090  -23.6110 N   0  0  0  0  0  0
    6.7490    0.9070  -22.6040 N   0  0  1  0  0  0
   -3.7180    3.8750  -27.5010 O   0  0  0  0  0  0
   -5.6451    3.5962  -20.7720 H   0  0  0  0  0  0
   -6.2044    3.9959  -23.1332 H   0  0  0  0  0  0
    5.9449    3.7760  -21.2996 H   0  0  0  0  0  0
    7.2166    2.7538  -20.4961 H   0  0  0  0  0  0
    6.5290    2.5774  -24.7252 H   0  0  0  0  0  0
    6.3345    4.0885  -23.7791 H   0  0  0  0  0  0
   -5.4881    4.1209  -25.5212 H   0  0  0  0  0  0
    2.4289    1.6865  -24.6400 H   0  0  0  0  0  0
    3.3606    1.1985  -22.7925 H   0  0  0  0  0  0
    4.5122    0.5754  -24.0344 H   0  0  0  0  0  0
    5.1330   -0.1731  -21.7269 H   0  0  0  0  0  0
    8.0269    2.6212  -22.6997 H   0  0  0  0  0  0
    4.4265    2.3154  -20.7832 H   0  0  0  0  0  0
    5.7249    1.2661  -19.9790 H   0  0  0  0  0  0
   -1.3915    3.5940  -26.5997 H   0  0  0  0  0  0
    0.7160    1.9880  -20.6310 H   0  0  0  0  0  0
    7.4137    0.3780  -21.9371 H   0  0  0  0  0  0
   -2.8905    3.7869  -27.9593 H   0  0  0  0  0  0
    3.2830    7.9790  -21.6280 O   0  0  0  0  0  0
    7.5870    8.4720  -20.4860 N   0  3  0  0  0  0
    5.3650    7.3320  -22.3310 N   0  0  0  0  0  0
    6.1110    8.6630  -20.3430 C   0  0  0  0  0  0
    7.6100    8.3960  -21.9790 C   0  0  0  0  0  0
    5.6110    9.8550  -22.5570 C   0  0  0  0  0  0
    6.0680    8.5460  -21.8860 C   0  0  0  0  0  0
    4.0410    7.1660  -22.1430 C   0  0  0  0  0  0
    7.8338    7.5686  -20.1132 H   0  0  0  0  0  0
    8.0523    9.3185  -20.1978 H   0  0  0  0  0  0
    5.8990    6.6181  -22.7840 H   0  0  0  0  0  0
    5.9490    9.7231  -20.0980 H   0  0  0  0  0  0
    5.7050    7.7230  -19.9410 H   0  0  0  0  0  0
    7.8129    7.3473  -22.2419 H   0  0  0  0  0  0
    8.0028    9.3576  -22.3409 H   0  0  0  0  0  0
    6.1950   10.6970  -22.1570 H   0  0  0  0  0  0
    5.7669    9.7850  -23.6436 H   0  0  0  0  0  0
    4.5431   10.0200  -22.3510 H   0  0  0  0  0  0
  1  2  2  0  0  0
  1  3  1  0  0  0
  1 34  1  0  0  0
  2  6  1  0  0  0
  2 35  1  0  0  0
  3  5  2  0  0  0
  3 27  1  0  0  0
  4  5  1  0  0  0
  4  6  2  0  0  0
  4 18  1  0  0  0
  5 24  1  0  0  0
  6 10  1  0  0  0
  7 10  2  0  0  0
  7 23  1  0  0  0
  7 33  1  0  0  0
  8 21  1  0  0  0
  8 22  1  0  0  0
  8 36  1  0  0  0
  8 37  1  0  0  0
  9 21  1  0  0  0
  9 31  1  0  0  0
  9 38  1  0  0  0
  9 39  1  0  0  0
 10 40  1  0  0  0
 11 12  1  0  0  0
 11 14  2  0  0  0
 11 15  1  0  0  0
 12 17  1  0  0  0
 12 28  2  0  0  0
 13 28  1  0  0  0
 13 29  2  0  0  0
 13 59  1  0  0  0
 14 29  1  0  0  0
 14 31  1  0  0  0
 15 30  2  0  0  0
 15 41  1  0  0  0
 16 17  2  0  0  0
 16 18  1  0  0  0
 16 30  1  0  0  0
 17 26  1  0  0  0
 18 23  2  0  0  0
 19 20  1  0  0  0
 19 31  1  0  0  0
 19 42  1  0  0  0
 19 43  1  0  0  0
 20 22  1  0  0  0
 20 32  1  0  0  0
 20 44  1  0  0  0
 21 32  1  0  0  0
 21 45  1  0  0  0
 22 46  1  0  0  0
 22 47  1  0  0  0
 23 48  1  0  0  0
 24 25  3  0  0  0
 25 49  1  0  0  0
 32 50  1  0  0  0
 33 51  1  0  0  0
 52 59  2  0  0  0
 53 55  1  0  0  0
 53 56  1  0  0  0
 53 60  1  0  0  0
 53 61  1  0  0  0
 54 58  1  0  0  0
 54 59  1  0  0  0
 54 62  1  0  0  0
 55 58  1  0  0  0
 55 63  1  0  0  0
 55 64  1  0  0  0
 56 58  1  0  0  0
 56 65  1  0  0  0
 56 66  1  0  0  0
 57 58  1  0  0  0
 57 67  1  0  0  0
 57 68  1  0  0  0
 57 69  1  0  0  0
M  CHG  1  53   1
M  END
> <s_m_entry_id>
735

> <s_m_entry_name>
000000577.1

> <s_m_Source_Path>
/Users/zaksoul/Documents/3r_UNI/2nd_SEMESTER/BSC/FRAG_RECON/RESULTS/2

> <s_m_Source_File>
000000577.mol2

> <i_m_Source_File_Index>
1

$$$$
No_0_599
                    3D
 Schrodinger Suite 2022-4.
 69 75  0  0  1  0            999 V2000
   -4.9070    3.7730  -21.9560 C   0  0  0  0  0  0
   -5.1900    3.9620  -23.2880 C   0  0  0  0  0  0
   -3.6690    3.4960  -21.6340 C   0  0  0  0  0  0
   -2.8100    3.5950  -23.8140 C   0  0  0  0  0  0
   -2.6310    3.3530  -22.3950 C   0  0  0  0  0  0
   -4.1600    3.8840  -24.3140 C   0  0  0  0  0  0
   -3.4410    3.8810  -26.5250 C   0  0  0  0  0  0
    6.3560    2.9650  -21.4140 C   0  0  0  0  0  0
    6.1780    3.1010  -23.9620 C   0  0  0  0  0  0
   -4.4300    4.0110  -25.6460 C   0  0  0  0  0  0
    2.4060    3.7270  -23.9200 C   0  0  0  0  0  0
    1.6130    4.8530  -23.6120 C   0  0  0  0  0  0
    3.4470    6.0140  -22.9660 C   0  0  0  0  0  0
    3.8150    3.8900  -23.6300 C   0  0  0  0  0  0
    1.8260    2.6190  -24.5680 C   0  0  0  0  0  0
   -0.2820    3.4770  -24.4260 C   0  0  0  0  0  0
    0.2800    4.6880  -23.8410 C   0  0  0  0  0  0
   -1.7400    3.5120  -24.7570 C   0  0  0  0  0  0
    4.3730    1.3810  -23.3380 C   0  0  0  0  0  0
    5.3180    1.0100  -22.2050 C   0  0  2  0  0  0
    6.9340    2.5150  -22.7740 C   0  0  2  0  0  0
    5.3400    2.0160  -21.0420 C   0  0  0  0  0  0
   -2.0850    3.6720  -26.1800 C   0  0  0  0  0  0
   -1.2860    2.9140  -21.8170 C   0  0  0  0  0  0
   -0.2550    2.5470  -21.3260 C   0  0  0  0  0  0
   -0.5340    5.7520  -23.4870 F   0  0  0  0  0  0
   -3.4410    3.2540  -20.2540 F   0  0  0  0  0  0
    2.1230    6.0040  -23.0930 N   0  0  0  0  0  0
    4.3190    5.0320  -23.1970 N   0  0  0  0  0  0
    0.5130    2.5550  -24.8510 N   0  0  0  0  0  0
    4.7080    2.8220  -23.8180 N   0  0  0  0  0  0
    6.7180    1.0460  -22.7100 N   0  0  1  0  0  0
   -3.6360    3.8940  -27.9110 O   0  0  0  0  0  0
   -5.6950    3.8553  -21.2162 H   0  0  0  0  0  0
   -6.2056    4.1768  -23.6001 H   0  0  0  0  0  0
    5.9038    3.9622  -21.5200 H   0  0  0  0  0  0
    7.1547    2.9620  -20.6577 H   0  0  0  0  0  0
    6.5485    2.6447  -24.8918 H   0  0  0  0  0  0
    6.3436    4.1877  -24.0014 H   0  0  0  0  0  0
   -5.4418    4.2156  -25.9769 H   0  0  0  0  0  0
    2.4433    1.7758  -24.8561 H   0  0  0  0  0  0
    3.3350    1.3477  -22.9755 H   0  0  0  0  0  0
    4.5073    0.6763  -24.1719 H   0  0  0  0  0  0
    5.0787    0.0045  -21.8285 H   0  0  0  0  0  0
    8.0066    2.7501  -22.8386 H   0  0  0  0  0  0
    4.3678    2.5273  -20.9845 H   0  0  0  0  0  0
    5.6447    1.4994  -20.1199 H   0  0  0  0  0  0
   -1.3286    3.6339  -26.9555 H   0  0  0  0  0  0
    0.6532    2.2239  -20.8949 H   0  0  0  0  0  0
    7.3667    0.5375  -22.0121 H   0  0  0  0  0  0
   -2.8004    3.7872  -28.3501 H   0  0  0  0  0  0
    3.2690    8.2740  -22.3660 O   0  0  0  0  0  0
    7.1120    8.6180  -20.0890 N   0  3  0  0  0  0
    5.3690    7.3590  -22.3280 N   0  0  0  0  0  0
    5.6890    8.9440  -20.4140 C   0  0  0  0  0  0
    7.5400    8.2910  -21.4830 C   0  0  0  0  0  0
    5.9750    9.7820  -22.8210 C   0  0  0  0  0  0
    6.0630    8.5730  -21.8690 C   0  0  0  0  0  0
    4.0350    7.3300  -22.5170 C   0  0  0  0  0  0
    7.1320    7.7746  -19.5374 H   0  0  0  0  0  0
    7.5787    9.4625  -19.7972 H   0  0  0  0  0  0
    5.9166    6.5401  -22.5002 H   0  0  0  0  0  0
    5.5970   10.0396  -20.3780 H   0  0  0  0  0  0
    5.0749    8.1199  -20.0219 H   0  0  0  0  0  0
    7.6769    7.2004  -21.5260 H   0  0  0  0  0  0
    8.1333    9.1444  -21.8432 H   0  0  0  0  0  0
    6.5239   10.6308  -22.3871 H   0  0  0  0  0  0
    6.4190    9.5170  -23.7919 H   0  0  0  0  0  0
    4.9205   10.0611  -22.9631 H   0  0  0  0  0  0
  1  2  2  0  0  0
  1  3  1  0  0  0
  1 34  1  0  0  0
  2  6  1  0  0  0
  2 35  1  0  0  0
  3  5  2  0  0  0
  3 27  1  0  0  0
  4  5  1  0  0  0
  4  6  2  0  0  0
  4 18  1  0  0  0
  5 24  1  0  0  0
  6 10  1  0  0  0
  7 10  2  0  0  0
  7 23  1  0  0  0
  7 33  1  0  0  0
  8 21  1  0  0  0
  8 22  1  0  0  0
  8 36  1  0  0  0
  8 37  1  0  0  0
  9 21  1  0  0  0
  9 31  1  0  0  0
  9 38  1  0  0  0
  9 39  1  0  0  0
 10 40  1  0  0  0
 11 12  1  0  0  0
 11 14  2  0  0  0
 11 15  1  0  0  0
 12 17  1  0  0  0
 12 28  2  0  0  0
 13 28  1  0  0  0
 13 29  2  0  0  0
 13 59  1  0  0  0
 14 29  1  0  0  0
 14 31  1  0  0  0
 15 30  2  0  0  0
 15 41  1  0  0  0
 16 17  2  0  0  0
 16 18  1  0  0  0
 16 30  1  0  0  0
 17 26  1  0  0  0
 18 23  2  0  0  0
 19 20  1  0  0  0
 19 31  1  0  0  0
 19 42  1  0  0  0
 19 43  1  0  0  0
 20 22  1  0  0  0
 20 32  1  0  0  0
 20 44  1  0  0  0
 21 32  1  0  0  0
 21 45  1  0  0  0
 22 46  1  0  0  0
 22 47  1  0  0  0
 23 48  1  0  0  0
 24 25  3  0  0  0
 25 49  1  0  0  0
 32 50  1  0  0  0
 33 51  1  0  0  0
 52 59  2  0  0  0
 53 55  1  0  0  0
 53 56  1  0  0  0
 53 60  1  0  0  0
 53 61  1  0  0  0
 54 58  1  0  0  0
 54 59  1  0  0  0
 54 62  1  0  0  0
 55 58  1  0  0  0
 55 63  1  0  0  0
 55 64  1  0  0  0
 56 58  1  0  0  0
 56 65  1  0  0  0
 56 66  1  0  0  0
 57 58  1  0  0  0
 57 67  1  0  0  0
 57 68  1  0  0  0
 57 69  1  0  0  0
M  CHG  1  53   1
M  END
> <s_m_entry_id>
736

> <s_m_entry_name>
000000578.1

> <s_m_Source_Path>
/Users/zaksoul/Documents/3r_UNI/2nd_SEMESTER/BSC/FRAG_RECON/RESULTS/2

> <s_m_Source_File>
000000578.mol2

> <i_m_Source_File_Index>
1

$$$$
No_0_600
                    3D
 Schrodinger Suite 2022-4.
 70 76  0  0  1  0            999 V2000
   -4.8130    3.8930  -21.8470 C   0  0  0  0  0  0
   -5.0950    4.0790  -23.1790 C   0  0  0  0  0  0
   -3.5790    3.6010  -21.5240 C   0  0  0  0  0  0
   -2.7200    3.6760  -23.7050 C   0  0  0  0  0  0
   -2.5440    3.4390  -22.2850 C   0  0  0  0  0  0
   -4.0670    3.9810  -24.2060 C   0  0  0  0  0  0
   -3.3480    3.9570  -26.4170 C   0  0  0  0  0  0
    6.4370    2.9320  -21.3060 C   0  0  0  0  0  0
    6.2600    3.0560  -23.8540 C   0  0  0  0  0  0
   -4.3360    4.1050  -25.5380 C   0  0  0  0  0  0
    2.4970    3.7350  -23.8140 C   0  0  0  0  0  0
    1.7200    4.8740  -23.5120 C   0  0  0  0  0  0
    3.5700    6.0130  -22.8730 C   0  0  0  0  0  0
    3.9080    3.8800  -23.5250 C   0  0  0  0  0  0
    1.9010    2.6320  -24.4550 C   0  0  0  0  0  0
   -0.1940    3.5200  -24.3170 C   0  0  0  0  0  0
    0.3840    4.7260  -23.7390 C   0  0  0  0  0  0
   -1.6520    3.5730  -24.6480 C   0  0  0  0  0  0
    4.4320    1.3660  -23.2200 C   0  0  0  0  0  0
    5.3720    0.9880  -22.0860 C   0  0  2  0  0  0
    7.0080    2.4670  -22.6630 C   0  0  2  0  0  0
    5.4080    1.9990  -20.9280 C   0  0  0  0  0  0
   -1.9960    3.7310  -26.0720 C   0  0  0  0  0  0
   -1.2050    2.9850  -21.7050 C   0  0  0  0  0  0
   -0.1790    2.6060  -21.2130 C   0  0  0  0  0  0
   -0.4150    5.8030  -23.3900 F   0  0  0  0  0  0
   -3.3540    3.3630  -20.1430 F   0  0  0  0  0  0
    2.2460    6.0210  -22.9990 N   0  0  0  0  0  0
    4.4290    5.0180  -23.0990 N   0  0  0  0  0  0
    0.5880    2.5850  -24.7380 N   0  0  0  0  0  0
    4.7870    2.7990  -23.7080 N   0  0  0  0  0  0
    6.7720    1.0020  -22.5920 N   0  0  1  0  0  0
   -3.5440    3.9650  -27.8030 O   0  0  0  0  0  0
   -5.5996    3.9913  -21.1076 H   0  0  0  0  0  0
   -6.1075    4.3068  -23.4921 H   0  0  0  0  0  0
    5.9991    3.9350  -21.4170 H   0  0  0  0  0  0
    7.2352    2.9219  -20.5492 H   0  0  0  0  0  0
    6.6235    2.5905  -24.7820 H   0  0  0  0  0  0
    6.4405    4.1401  -23.8994 H   0  0  0  0  0  0
   -5.3451    4.3219  -25.8693 H   0  0  0  0  0  0
    2.5061    1.7790  -24.7400 H   0  0  0  0  0  0
    3.3938    1.3488  -22.8568 H   0  0  0  0  0  0
    4.5561    0.6549  -24.0501 H   0  0  0  0  0  0
    5.1189   -0.0123  -21.7048 H   0  0  0  0  0  0
    8.0837    2.6870  -22.7296 H   0  0  0  0  0  0
    4.4434    2.5247  -20.8725 H   0  0  0  0  0  0
    5.7056    1.4835  -20.0030 H   0  0  0  0  0  0
   -1.2400    3.6778  -26.8471 H   0  0  0  0  0  0
    0.7248    2.2731  -20.7801 H   0  0  0  0  0  0
    7.4135    0.4877  -21.8917 H   0  0  0  0  0  0
   -2.7103    3.8443  -28.2421 H   0  0  0  0  0  0
    3.4220    8.2790  -22.2840 O   0  0  0  0  0  0
    6.8620   10.8740  -22.3280 O   0  0  0  0  0  0
    7.2520    8.5600  -19.9960 N   0  3  0  0  0  0
    5.5110    7.3270  -22.2440 N   0  0  0  0  0  0
    7.6940    8.2370  -21.3870 C   0  0  0  0  0  0
    5.8290    8.8750  -20.3320 C   0  0  0  0  0  0
    6.1340    9.7190  -22.7740 C   0  0  0  0  0  0
    6.2240    8.5320  -21.7890 C   0  0  0  0  0  0
    4.1770    7.3230  -22.4310 C   0  0  0  0  0  0
    6.7740   11.5712  -22.9672 H   0  0  0  0  0  0
    7.7091    9.4082  -19.6999 H   0  0  0  0  0  0
    7.2750    7.7162  -19.4451 H   0  0  0  0  0  0
    6.0428    6.4973  -22.4139 H   0  0  0  0  0  0
    7.8239    7.1457  -21.4340 H   0  0  0  0  0  0
    8.2966    9.0888  -21.7353 H   0  0  0  0  0  0
    5.7229    9.9686  -20.2790 H   0  0  0  0  0  0
    5.2202    8.0373  -19.9611 H   0  0  0  0  0  0
    6.5127    9.4062  -23.7583 H   0  0  0  0  0  0
    5.0786    9.9891  -22.9261 H   0  0  0  0  0  0
  1  2  2  0  0  0
  1  3  1  0  0  0
  1 34  1  0  0  0
  2  6  1  0  0  0
  2 35  1  0  0  0
  3  5  2  0  0  0
  3 27  1  0  0  0
  4  5  1  0  0  0
  4  6  2  0  0  0
  4 18  1  0  0  0
  5 24  1  0  0  0
  6 10  1  0  0  0
  7 10  2  0  0  0
  7 23  1  0  0  0
  7 33  1  0  0  0
  8 21  1  0  0  0
  8 22  1  0  0  0
  8 36  1  0  0  0
  8 37  1  0  0  0
  9 21  1  0  0  0
  9 31  1  0  0  0
  9 38  1  0  0  0
  9 39  1  0  0  0
 10 40  1  0  0  0
 11 12  1  0  0  0
 11 14  2  0  0  0
 11 15  1  0  0  0
 12 17  1  0  0  0
 12 28  2  0  0  0
 13 28  1  0  0  0
 13 29  2  0  0  0
 13 60  1  0  0  0
 14 29  1  0  0  0
 14 31  1  0  0  0
 15 30  2  0  0  0
 15 41  1  0  0  0
 16 17  2  0  0  0
 16 18  1  0  0  0
 16 30  1  0  0  0
 17 26  1  0  0  0
 18 23  2  0  0  0
 19 20  1  0  0  0
 19 31  1  0  0  0
 19 42  1  0  0  0
 19 43  1  0  0  0
 20 22  1  0  0  0
 20 32  1  0  0  0
 20 44  1  0  0  0
 21 32  1  0  0  0
 21 45  1  0  0  0
 22 46  1  0  0  0
 22 47  1  0  0  0
 23 48  1  0  0  0
 24 25  3  0  0  0
 25 49  1  0  0  0
 32 50  1  0  0  0
 33 51  1  0  0  0
 52 60  2  0  0  0
 53 58  1  0  0  0
 53 61  1  0  0  0
 54 56  1  0  0  0
 54 57  1  0  0  0
 54 62  1  0  0  0
 54 63  1  0  0  0
 55 59  1  0  0  0
 55 60  1  0  0  0
 55 64  1  0  0  0
 56 59  1  0  0  0
 56 65  1  0  0  0
 56 66  1  0  0  0
 57 59  1  0  0  0
 57 67  1  0  0  0
 57 68  1  0  0  0
 58 59  1  0  0  0
 58 69  1  0  0  0
 58 70  1  0  0  0
M  CHG  1  54   1
M  END
> <s_m_entry_id>
737

> <s_m_entry_name>
000000579.1

> <s_m_Source_Path>
/Users/zaksoul/Documents/3r_UNI/2nd_SEMESTER/BSC/FRAG_RECON/RESULTS/2

> <s_m_Source_File>
000000579.mol2

> <i_m_Source_File_Index>
1

$$$$
No_0_601
                    3D
 Schrodinger Suite 2022-4.
 69 75  0  0  1  0            999 V2000
   -5.1810    3.6090  -21.8530 C   0  0  0  0  0  0
   -5.4520    3.8050  -23.1860 C   0  0  0  0  0  0
   -3.9420    3.3510  -21.5190 C   0  0  0  0  0  0
   -3.0590    3.4860  -23.6870 C   0  0  0  0  0  0
   -2.8930    3.2340  -22.2690 C   0  0  0  0  0  0
   -4.4090    3.7540  -24.2010 C   0  0  0  0  0  0
   -3.6630    3.7850  -26.4030 C   0  0  0  0  0  0
    6.0870    3.0010  -21.1820 C   0  0  0  0  0  0
    5.9380    3.1560  -23.7310 C   0  0  0  0  0  0
   -4.6650    3.8890  -25.5350 C   0  0  0  0  0  0
    2.1540    3.7130  -23.7290 C   0  0  0  0  0  0
    1.3370    4.8230  -23.4210 C   0  0  0  0  0  0
    3.1410    6.0110  -22.7430 C   0  0  0  0  0  0
    3.5570    3.8990  -23.4210 C   0  0  0  0  0  0
    1.6030    2.6010  -24.3930 C   0  0  0  0  0  0
   -0.5220    3.4190  -24.2700 C   0  0  0  0  0  0
    0.0100    4.6350  -23.6670 C   0  0  0  0  0  0
   -1.9770    3.4300  -24.6180 C   0  0  0  0  0  0
    4.1570    1.3990  -23.1440 C   0  0  0  0  0  0
    5.0950    1.0350  -22.0030 C   0  0  2  0  0  0
    6.6890    2.5740  -22.5390 C   0  0  2  0  0  0
    5.0840    2.0310  -20.8310 C   0  0  0  0  0  0
   -2.3080    3.5970  -26.0440 C   0  0  0  0  0  0
   -1.5470    2.8150  -21.6780 C   0  0  0  0  0  0
   -0.5150    2.4620  -21.1780 C   0  0  0  0  0  0
   -0.8280    5.6800  -23.3140 F   0  0  0  0  0  0
   -3.7260    3.1020  -20.1390 F   0  0  0  0  0  0
    1.8200    5.9780  -22.8860 N   0  0  0  0  0  0
    4.0350    5.0470  -22.9720 N   0  0  0  0  0  0
    0.2950    2.5160  -24.6930 N   0  0  0  0  0  0
    4.4710    2.8500  -23.6070 N   0  0  0  0  0  0
    6.5000    1.1010  -22.4910 N   0  0  1  0  0  0
   -3.8410    3.8060  -27.7920 O   0  0  0  0  0  0
   -5.9796    3.6712  -21.1226 H   0  0  0  0  0  0
   -6.4675    4.0037  -23.5091 H   0  0  0  0  0  0
    5.6179    3.9906  -21.2849 H   0  0  0  0  0  0
    6.8763    3.0060  -20.4159 H   0  0  0  0  0  0
    6.3275    2.7150  -24.6604 H   0  0  0  0  0  0
    6.0833    4.2460  -23.7593 H   0  0  0  0  0  0
   -5.6765    4.0776  -25.8762 H   0  0  0  0  0  0
    2.2385    1.7718  -24.6821 H   0  0  0  0  0  0
    3.1157    1.3435  -22.7939 H   0  0  0  0  0  0
    4.3144    0.7047  -23.9826 H   0  0  0  0  0  0
    4.8700    0.0218  -21.6387 H   0  0  0  0  0  0
    7.7578    2.8293  -22.5885 H   0  0  0  0  0  0
    4.1018    2.5236  -20.7805 H   0  0  0  0  0  0
    5.3877    1.5123  -19.9097 H   0  0  0  0  0  0
   -1.5411    3.5789  -26.8099 H   0  0  0  0  0  0
    0.3934    2.1519  -20.7378 H   0  0  0  0  0  0
    7.1492    0.5983  -21.7894 H   0  0  0  0  0  0
   -2.9984    3.7179  -28.2217 H   0  0  0  0  0  0
    3.1980    8.3550  -22.7260 O   0  0  0  0  0  0
    8.4040    9.0460  -21.8390 N   0  3  0  0  0  0
    4.7230    7.2940  -21.4020 N   0  0  0  0  0  0
    7.4490    8.0480  -22.4120 C   0  0  0  0  0  0
    7.3800   10.0710  -21.4650 C   0  0  0  0  0  0
    5.3830    8.5300  -20.9540 C   0  0  0  0  0  0
    6.3470    9.0670  -22.0320 C   0  0  0  0  0  0
    3.7010    7.3330  -22.2760 C   0  0  0  0  0  0
    8.9731    9.4141  -22.5851 H   0  0  0  0  0  0
    8.8019    8.6641  -20.9952 H   0  0  0  0  0  0
    5.0450    6.4159  -21.0480 H   0  0  0  0  0  0
    7.3820    7.2209  -21.6899 H   0  0  0  0  0  0
    7.5610    8.0920  -23.5054 H   0  0  0  0  0  0
    7.4650   10.8878  -22.1968 H   0  0  0  0  0  0
    7.2850   10.0420  -20.3695 H   0  0  0  0  0  0
    5.9422    8.3319  -20.0277 H   0  0  0  0  0  0
    4.6212    9.2918  -20.7321 H   0  0  0  0  0  0
    5.8169    9.4600  -22.9121 H   0  0  0  0  0  0
  1  2  2  0  0  0
  1  3  1  0  0  0
  1 34  1  0  0  0
  2  6  1  0  0  0
  2 35  1  0  0  0
  3  5  2  0  0  0
  3 27  1  0  0  0
  4  5  1  0  0  0
  4  6  2  0  0  0
  4 18  1  0  0  0
  5 24  1  0  0  0
  6 10  1  0  0  0
  7 10  2  0  0  0
  7 23  1  0  0  0
  7 33  1  0  0  0
  8 21  1  0  0  0
  8 22  1  0  0  0
  8 36  1  0  0  0
  8 37  1  0  0  0
  9 21  1  0  0  0
  9 31  1  0  0  0
  9 38  1  0  0  0
  9 39  1  0  0  0
 10 40  1  0  0  0
 11 12  1  0  0  0
 11 14  2  0  0  0
 11 15  1  0  0  0
 12 17  1  0  0  0
 12 28  2  0  0  0
 13 28  1  0  0  0
 13 29  2  0  0  0
 13 59  1  0  0  0
 14 29  1  0  0  0
 14 31  1  0  0  0
 15 30  2  0  0  0
 15 41  1  0  0  0
 16 17  2  0  0  0
 16 18  1  0  0  0
 16 30  1  0  0  0
 17 26  1  0  0  0
 18 23  2  0  0  0
 19 20  1  0  0  0
 19 31  1  0  0  0
 19 42  1  0  0  0
 19 43  1  0  0  0
 20 22  1  0  0  0
 20 32  1  0  0  0
 20 44  1  0  0  0
 21 32  1  0  0  0
 21 45  1  0  0  0
 22 46  1  0  0  0
 22 47  1  0  0  0
 23 48  1  0  0  0
 24 25  3  0  0  0
 25 49  1  0  0  0
 32 50  1  0  0  0
 33 51  1  0  0  0
 52 59  2  0  0  0
 53 55  1  0  0  0
 53 56  1  0  0  0
 53 60  1  0  0  0
 53 61  1  0  0  0
 54 57  1  0  0  0
 54 59  1  0  0  0
 54 62  1  0  0  0
 55 58  1  0  0  0
 55 63  1  0  0  0
 55 64  1  0  0  0
 56 58  1  0  0  0
 56 65  1  0  0  0
 56 66  1  0  0  0
 57 58  1  0  0  0
 57 67  1  0  0  0
 57 68  1  0  0  0
 58 69  1  0  0  0
M  CHG  1  53   1
M  END
> <s_m_entry_id>
738

> <s_m_entry_name>
000000580.1

> <s_m_Source_Path>
/Users/zaksoul/Documents/3r_UNI/2nd_SEMESTER/BSC/FRAG_RECON/RESULTS/2

> <s_m_Source_File>
000000580.mol2

> <i_m_Source_File_Index>
1

$$$$
No_0_602
                    3D
 Schrodinger Suite 2022-4.
 69 75  0  0  1  0            999 V2000
   -5.0700    3.7650  -22.0400 C   0  0  0  0  0  0
   -5.3150    3.9710  -23.3770 C   0  0  0  0  0  0
   -3.8400    3.4890  -21.6850 C   0  0  0  0  0  0
   -2.9180    3.6210  -23.8380 C   0  0  0  0  0  0
   -2.7810    3.3600  -22.4180 C   0  0  0  0  0  0
   -4.2540    3.9100  -24.3740 C   0  0  0  0  0  0
   -3.4700    3.9400  -26.5620 C   0  0  0  0  0  0
    6.1750    2.9960  -21.1760 C   0  0  0  0  0  0
    6.0730    3.1650  -23.7250 C   0  0  0  0  0  0
   -4.4860    4.0540  -25.7110 C   0  0  0  0  0  0
    2.2980    3.7750  -23.7870 C   0  0  0  0  0  0
    1.4910    4.8940  -23.4880 C   0  0  0  0  0  0
    3.3000    6.0540  -22.7730 C   0  0  0  0  0  0
    3.6970    3.9400  -23.4540 C   0  0  0  0  0  0
    1.7420    2.6740  -24.4660 C   0  0  0  0  0  0
   -0.3730    3.5210  -24.3760 C   0  0  0  0  0  0
    0.1660    4.7260  -23.7580 C   0  0  0  0  0  0
   -1.8200    3.5540  -24.7490 C   0  0  0  0  0  0
    4.2580    1.4300  -23.1780 C   0  0  0  0  0  0
    5.1700    1.0480  -22.0230 C   0  0  2  0  0  0
    6.7950    2.5670  -22.5230 C   0  0  2  0  0  0
    5.1530    2.0380  -20.8460 C   0  0  0  0  0  0
   -2.1240    3.7320  -26.1800 C   0  0  0  0  0  0
   -1.4510    2.9190  -21.8050 C   0  0  0  0  0  0
   -0.4330    2.5500  -21.2900 C   0  0  0  0  0  0
   -0.6630    5.7820  -23.4150 F   0  0  0  0  0  0
   -3.6520    3.2300  -20.3030 F   0  0  0  0  0  0
    1.9800    6.0400  -22.9390 N   0  0  0  0  0  0
    4.1830    5.0790  -22.9910 N   0  0  0  0  0  0
    0.4390    2.6080  -24.7900 N   0  0  0  0  0  0
    4.6000    2.8790  -23.6290 N   0  0  0  0  0  0
    6.5840    1.0960  -22.4860 N   0  0  1  0  0  0
   -3.6240    3.9710  -27.9530 O   0  0  0  0  0  0
   -5.8801    3.8353  -21.3232 H   0  0  0  0  0  0
   -6.3219    4.1858  -23.7163 H   0  0  0  0  0  0
    5.7220    3.9928  -21.2819 H   0  0  0  0  0  0
    6.9508    2.9869  -20.3962 H   0  0  0  0  0  0
    6.4715    2.7231  -24.6502 H   0  0  0  0  0  0
    6.2335    4.2530  -23.7462 H   0  0  0  0  0  0
   -5.4884    4.2587  -26.0692 H   0  0  0  0  0  0
    2.3710    1.8374  -24.7479 H   0  0  0  0  0  0
    3.2098    1.3876  -22.8471 H   0  0  0  0  0  0
    4.4194    0.7378  -24.0175 H   0  0  0  0  0  0
    4.9247    0.0363  -21.6676 H   0  0  0  0  0  0
    7.8680    2.8072  -22.5533 H   0  0  0  0  0  0
    4.1772    2.5446  -20.8107 H   0  0  0  0  0  0
    5.4327    1.5108  -19.9220 H   0  0  0  0  0  0
   -1.3448    3.7069  -26.9331 H   0  0  0  0  0  0
    0.4629    2.2250  -20.8351 H   0  0  0  0  0  0
    7.2141    0.5814  -21.7757 H   0  0  0  0  0  0
   -2.7753    3.8731  -28.3685 H   0  0  0  0  0  0
    3.2530    8.3890  -22.5620 O   0  0  0  0  0  0
    8.4980    9.3120  -22.4740 N   0  3  0  0  0  0
    5.0230    7.3190  -21.6000 N   0  0  0  0  0  0
    7.5070    8.3070  -22.9690 C   0  0  0  0  0  0
    7.5060   10.2430  -21.8510 C   0  0  0  0  0  0
    5.6920    8.5530  -21.1600 C   0  0  0  0  0  0
    6.4390    9.2270  -22.3290 C   0  0  0  0  0  0
    3.8690    7.3660  -22.2900 C   0  0  0  0  0  0
    8.9179    9.7699  -23.2678 H   0  0  0  0  0  0
    9.0477    8.8892  -21.7424 H   0  0  0  0  0  0
    5.4379    6.4361  -21.3800 H   0  0  0  0  0  0
    7.5970    7.4236  -22.3197 H   0  0  0  0  0  0
    7.4330    8.4430  -24.0580 H   0  0  0  0  0  0
    7.4310   11.1177  -22.5138 H   0  0  0  0  0  0
    7.5960   10.1219  -20.7614 H   0  0  0  0  0  0
    6.4056    8.3151  -20.3574 H   0  0  0  0  0  0
    4.9447    9.2493  -20.7518 H   0  0  0  0  0  0
    5.7527    9.6572  -23.0733 H   0  0  0  0  0  0
  1  2  2  0  0  0
  1  3  1  0  0  0
  1 34  1  0  0  0
  2  6  1  0  0  0
  2 35  1  0  0  0
  3  5  2  0  0  0
  3 27  1  0  0  0
  4  5  1  0  0  0
  4  6  2  0  0  0
  4 18  1  0  0  0
  5 24  1  0  0  0
  6 10  1  0  0  0
  7 10  2  0  0  0
  7 23  1  0  0  0
  7 33  1  0  0  0
  8 21  1  0  0  0
  8 22  1  0  0  0
  8 36  1  0  0  0
  8 37  1  0  0  0
  9 21  1  0  0  0
  9 31  1  0  0  0
  9 38  1  0  0  0
  9 39  1  0  0  0
 10 40  1  0  0  0
 11 12  1  0  0  0
 11 14  2  0  0  0
 11 15  1  0  0  0
 12 17  1  0  0  0
 12 28  2  0  0  0
 13 28  1  0  0  0
 13 29  2  0  0  0
 13 59  1  0  0  0
 14 29  1  0  0  0
 14 31  1  0  0  0
 15 30  2  0  0  0
 15 41  1  0  0  0
 16 17  2  0  0  0
 16 18  1  0  0  0
 16 30  1  0  0  0
 17 26  1  0  0  0
 18 23  2  0  0  0
 19 20  1  0  0  0
 19 31  1  0  0  0
 19 42  1  0  0  0
 19 43  1  0  0  0
 20 22  1  0  0  0
 20 32  1  0  0  0
 20 44  1  0  0  0
 21 32  1  0  0  0
 21 45  1  0  0  0
 22 46  1  0  0  0
 22 47  1  0  0  0
 23 48  1  0  0  0
 24 25  3  0  0  0
 25 49  1  0  0  0
 32 50  1  0  0  0
 33 51  1  0  0  0
 52 59  2  0  0  0
 53 55  1  0  0  0
 53 56  1  0  0  0
 53 60  1  0  0  0
 53 61  1  0  0  0
 54 57  1  0  0  0
 54 59  1  0  0  0
 54 62  1  0  0  0
 55 58  1  0  0  0
 55 63  1  0  0  0
 55 64  1  0  0  0
 56 58  1  0  0  0
 56 65  1  0  0  0
 56 66  1  0  0  0
 57 58  1  0  0  0
 57 67  1  0  0  0
 57 68  1  0  0  0
 58 69  1  0  0  0
M  CHG  1  53   1
M  END
> <s_m_entry_id>
739

> <s_m_entry_name>
000000581.1

> <s_m_Source_Path>
/Users/zaksoul/Documents/3r_UNI/2nd_SEMESTER/BSC/FRAG_RECON/RESULTS/2

> <s_m_Source_File>
000000581.mol2

> <i_m_Source_File_Index>
1

$$$$
No_0_603
                    3D
 Schrodinger Suite 2022-4.
 69 75  0  0  1  0            999 V2000
   -5.0260    3.7720  -21.8870 C   0  0  0  0  0  0
   -5.2970    3.9340  -23.2250 C   0  0  0  0  0  0
   -3.7900    3.5080  -21.5460 C   0  0  0  0  0  0
   -2.9090    3.5720  -23.7190 C   0  0  0  0  0  0
   -2.7440    3.3580  -22.2940 C   0  0  0  0  0  0
   -4.2550    3.8430  -24.2390 C   0  0  0  0  0  0
   -3.5120    3.8030  -26.4410 C   0  0  0  0  0  0
    6.2340    3.0470  -21.2090 C   0  0  0  0  0  0
    6.0840    3.1340  -23.7600 C   0  0  0  0  0  0
   -4.5120    3.9430  -25.5760 C   0  0  0  0  0  0
    2.3070    3.7360  -23.7710 C   0  0  0  0  0  0
    1.5040    4.8630  -23.4930 C   0  0  0  0  0  0
    3.3230    6.0470  -22.8500 C   0  0  0  0  0  0
    3.7120    3.9130  -23.4690 C   0  0  0  0  0  0
    1.7410    2.6120  -24.4040 C   0  0  0  0  0  0
   -0.3730    3.4590  -24.3010 C   0  0  0  0  0  0
    0.1740    4.6850  -23.7330 C   0  0  0  0  0  0
   -1.8280    3.4780  -24.6480 C   0  0  0  0  0  0
    4.2830    1.4140  -23.1240 C   0  0  0  0  0  0
    5.2180    1.0710  -21.9740 C   0  0  2  0  0  0
    6.8300    2.5760  -22.5540 C   0  0  2  0  0  0
    5.2200    2.0990  -20.8300 C   0  0  0  0  0  0
   -2.1590    3.6100  -26.0780 C   0  0  0  0  0  0
   -1.4030    2.9390  -21.6930 C   0  0  0  0  0  0
   -0.3740    2.5880  -21.1840 C   0  0  0  0  0  0
   -0.6500    5.7490  -23.4080 F   0  0  0  0  0  0
   -3.5760    3.2940  -20.1600 F   0  0  0  0  0  0
    2.0010    6.0270  -22.9910 N   0  0  0  0  0  0
    4.2040    5.0670  -23.0530 N   0  0  0  0  0  0
    0.4320    2.5350  -24.7000 N   0  0  0  0  0  0
    4.6140    2.8480  -23.6270 N   0  0  0  0  0  0
    6.6220    1.1070  -22.4650 N   0  0  1  0  0  0
   -3.6920    3.7890  -27.8300 O   0  0  0  0  0  0
   -5.8227    3.8633  -21.1576 H   0  0  0  0  0  0
   -6.3106    4.1357  -23.5522 H   0  0  0  0  0  0
    5.7769    4.0390  -21.3392 H   0  0  0  0  0  0
    7.0242    3.0631  -20.4440 H   0  0  0  0  0  0
    6.4665    2.6627  -24.6774 H   0  0  0  0  0  0
    6.2425    4.2210  -23.8185 H   0  0  0  0  0  0
   -5.5214    4.1348  -25.9215 H   0  0  0  0  0  0
    2.3672    1.7681  -24.6699 H   0  0  0  0  0  0
    3.2415    1.3807  -22.7718 H   0  0  0  0  0  0
    4.4305    0.6948  -23.9432 H   0  0  0  0  0  0
    4.9809    0.0711  -21.5815 H   0  0  0  0  0  0
    7.9019    2.8162  -22.6115 H   0  0  0  0  0  0
    4.2439    2.6047  -20.7927 H   0  0  0  0  0  0
    5.5175    1.6017  -19.8950 H   0  0  0  0  0  0
   -1.3933    3.5618  -26.8437 H   0  0  0  0  0  0
    0.5311    2.2780  -20.7370 H   0  0  0  0  0  0
    7.2664    0.6154  -21.7512 H   0  0  0  0  0  0
   -2.8508    3.6791  -28.2575 H   0  0  0  0  0  0
    3.2430    8.3810  -22.6660 O   0  0  0  0  0  0
    6.2220    9.9250  -23.4240 N   0  0  0  0  0  0
    7.9480    9.0230  -22.4460 N   0  3  0  0  0  0
    5.0930    7.3630  -21.7990 N   0  0  0  0  0  0
    6.6330    9.1800  -22.4110 C   0  0  0  0  0  0
    8.5550    9.7110  -23.5740 C   0  0  0  0  0  0
    7.3210   10.3580  -24.2730 C   0  0  0  0  0  0
    5.7250    8.6120  -21.3510 C   0  0  0  0  0  0
    3.8990    7.3750  -22.4190 C   0  0  0  0  0  0
    5.2195   10.1331  -23.5361 H   0  0  0  0  0  0
    8.4190    8.4620  -21.7219 H   0  0  0  0  0  0
    5.5640    6.4960  -21.6360 H   0  0  0  0  0  0
    9.0067    8.9696  -24.2495 H   0  0  0  0  0  0
    9.2170   10.5060  -23.2000 H   0  0  0  0  0  0
    7.4080   11.4533  -24.2210 H   0  0  0  0  0  0
    7.1990    9.9181  -25.2738 H   0  0  0  0  0  0
    6.3043    8.4219  -20.4355 H   0  0  0  0  0  0
    4.9452    9.3478  -21.1051 H   0  0  0  0  0  0
  1  2  2  0  0  0
  1  3  1  0  0  0
  1 34  1  0  0  0
  2  6  1  0  0  0
  2 35  1  0  0  0
  3  5  2  0  0  0
  3 27  1  0  0  0
  4  5  1  0  0  0
  4  6  2  0  0  0
  4 18  1  0  0  0
  5 24  1  0  0  0
  6 10  1  0  0  0
  7 10  2  0  0  0
  7 23  1  0  0  0
  7 33  1  0  0  0
  8 21  1  0  0  0
  8 22  1  0  0  0
  8 36  1  0  0  0
  8 37  1  0  0  0
  9 21  1  0  0  0
  9 31  1  0  0  0
  9 38  1  0  0  0
  9 39  1  0  0  0
 10 40  1  0  0  0
 11 12  1  0  0  0
 11 14  2  0  0  0
 11 15  1  0  0  0
 12 17  1  0  0  0
 12 28  2  0  0  0
 13 28  1  0  0  0
 13 29  2  0  0  0
 13 60  1  0  0  0
 14 29  1  0  0  0
 14 31  1  0  0  0
 15 30  2  0  0  0
 15 41  1  0  0  0
 16 17  2  0  0  0
 16 18  1  0  0  0
 16 30  1  0  0  0
 17 26  1  0  0  0
 18 23  2  0  0  0
 19 20  1  0  0  0
 19 31  1  0  0  0
 19 42  1  0  0  0
 19 43  1  0  0  0
 20 22  1  0  0  0
 20 32  1  0  0  0
 20 44  1  0  0  0
 21 32  1  0  0  0
 21 45  1  0  0  0
 22 46  1  0  0  0
 22 47  1  0  0  0
 23 48  1  0  0  0
 24 25  3  0  0  0
 25 49  1  0  0  0
 32 50  1  0  0  0
 33 51  1  0  0  0
 52 60  2  0  0  0
 53 56  1  0  0  0
 53 58  1  0  0  0
 53 61  1  0  0  0
 54 56  2  0  0  0
 54 57  1  0  0  0
 54 62  1  0  0  0
 55 59  1  0  0  0
 55 60  1  0  0  0
 55 63  1  0  0  0
 56 59  1  0  0  0
 57 58  1  0  0  0
 57 64  1  0  0  0
 57 65  1  0  0  0
 58 66  1  0  0  0
 58 67  1  0  0  0
 59 68  1  0  0  0
 59 69  1  0  0  0
M  CHG  1  54   1
M  END
> <s_m_entry_id>
740

> <s_m_entry_name>
000000582.1

> <s_m_Source_Path>
/Users/zaksoul/Documents/3r_UNI/2nd_SEMESTER/BSC/FRAG_RECON/RESULTS/2

> <s_m_Source_File>
000000582.mol2

> <i_m_Source_File_Index>
1

$$$$
No_0_604
                    3D
 Schrodinger Suite 2022-4.
 68 74  0  0  1  0            999 V2000
   -4.7650    3.6140  -21.7330 C   0  0  0  0  0  0
   -5.0780    3.8120  -23.0570 C   0  0  0  0  0  0
   -3.5210    3.3320  -21.4400 C   0  0  0  0  0  0
   -2.7100    3.4440  -23.6380 C   0  0  0  0  0  0
   -2.5010    3.1920  -22.2250 C   0  0  0  0  0  0
   -4.0700    3.7390  -24.1070 C   0  0  0  0  0  0
   -3.4000    3.7490  -26.3320 C   0  0  0  0  0  0
    6.5040    2.7800  -21.4440 C   0  0  0  0  0  0
    6.2720    2.9320  -23.9860 C   0  0  0  0  0  0
   -4.3700    3.8750  -25.4320 C   0  0  0  0  0  0
    2.5030    3.5660  -23.8580 C   0  0  0  0  0  0
    1.7190    4.6920  -23.5250 C   0  0  0  0  0  0
    3.5690    5.8450  -22.9130 C   0  0  0  0  0  0
    3.9180    3.7240  -23.5980 C   0  0  0  0  0  0
    1.9060    2.4630  -24.5000 C   0  0  0  0  0  0
   -0.1960    3.3250  -24.3060 C   0  0  0  0  0  0
    0.3810    4.5310  -23.7260 C   0  0  0  0  0  0
   -1.6610    3.3650  -24.6050 C   0  0  0  0  0  0
    4.4770    1.2120  -23.3340 C   0  0  0  0  0  0
    5.4460    0.8320  -22.2250 C   0  0  2  0  0  0
    7.0520    2.3380  -22.8190 C   0  0  2  0  0  0
    5.4950    1.8310  -21.0560 C   0  0  0  0  0  0
   -2.0370    3.5350  -26.0190 C   0  0  0  0  0  0
   -1.1450    2.7470  -21.6800 C   0  0  0  0  0  0
   -0.1040    2.3740  -21.2140 C   0  0  0  0  0  0
   -0.4230    5.5940  -23.3470 F   0  0  0  0  0  0
   -3.2630    3.0810  -20.0680 F   0  0  0  0  0  0
    2.2420    5.8380  -23.0100 N   0  0  0  0  0  0
    4.4340    4.8630  -23.1690 N   0  0  0  0  0  0
    0.5870    2.4040  -24.7550 N   0  0  0  0  0  0
    4.8040    2.6560  -23.8120 N   0  0  0  0  0  0
    6.8340    0.8690  -22.7610 N   0  0  1  0  0  0
   -3.6250    3.7720  -27.7140 O   0  0  0  0  0  0
   -5.5369    3.6933  -20.9761 H   0  0  0  0  0  0
   -6.0994    4.0317  -23.3460 H   0  0  0  0  0  0
    6.0516    3.7786  -21.5339 H   0  0  0  0  0  0
    7.3197    2.7699  -20.7061 H   0  0  0  0  0  0
    6.6201    2.4820  -24.9274 H   0  0  0  0  0  0
    6.4385    4.0187  -24.0223 H   0  0  0  0  0  0
   -5.3886    4.0839  -25.7384 H   0  0  0  0  0  0
    2.5154    1.6208  -24.8072 H   0  0  0  0  0  0
    3.4470    1.1787  -22.9493 H   0  0  0  0  0  0
    4.5911    0.5134  -24.1760 H   0  0  0  0  0  0
    5.2128   -0.1756  -21.8504 H   0  0  0  0  0  0
    8.1234    2.5713  -22.9069 H   0  0  0  0  0  0
    4.5252    2.3437  -20.9743 H   0  0  0  0  0  0
    5.8187    1.3076  -20.1443 H   0  0  0  0  0  0
   -1.2980    3.4999  -26.8112 H   0  0  0  0  0  0
    0.8127    2.0461  -20.8051 H   0  0  0  0  0  0
    7.4969    0.3547  -22.0810 H   0  0  0  0  0  0
   -2.7996    3.6661  -28.1722 H   0  0  0  0  0  0
    3.3980    8.0800  -22.2410 O   0  0  0  0  0  0
    6.6360   10.8860  -24.7060 N   0  0  0  0  0  0
    4.6020   10.7740  -23.5110 N   0  0  0  0  0  0
    7.8570   10.2000  -24.7130 N   0  0  0  0  0  0
    5.5100    7.2210  -22.3600 N   0  0  0  0  0  0
    6.1740    8.4680  -21.9580 C   0  0  0  0  0  0
    5.8550   10.3630  -23.7890 C   0  0  0  0  0  0
    7.8130    9.2650  -23.7840 C   0  0  0  0  0  0
    6.5730    9.2800  -23.1640 C   0  0  0  0  0  0
    4.1700    7.1570  -22.4680 C   0  0  0  0  0  0
    4.0566   10.3056  -22.7734 H   0  0  0  0  0  0
    4.1892   11.5576  -24.0368 H   0  0  0  0  0  0
    8.5956   10.4692  -25.3785 H   0  0  0  0  0  0
    6.0668    6.4133  -22.5539 H   0  0  0  0  0  0
    7.0690    8.2310  -21.3640 H   0  0  0  0  0  0
    5.4927    9.0583  -21.3277 H   0  0  0  0  0  0
    8.6759    8.6321  -23.6110 H   0  0  0  0  0  0
  1  2  2  0  0  0
  1  3  1  0  0  0
  1 34  1  0  0  0
  2  6  1  0  0  0
  2 35  1  0  0  0
  3  5  2  0  0  0
  3 27  1  0  0  0
  4  5  1  0  0  0
  4  6  2  0  0  0
  4 18  1  0  0  0
  5 24  1  0  0  0
  6 10  1  0  0  0
  7 10  2  0  0  0
  7 23  1  0  0  0
  7 33  1  0  0  0
  8 21  1  0  0  0
  8 22  1  0  0  0
  8 36  1  0  0  0
  8 37  1  0  0  0
  9 21  1  0  0  0
  9 31  1  0  0  0
  9 38  1  0  0  0
  9 39  1  0  0  0
 10 40  1  0  0  0
 11 12  1  0  0  0
 11 14  2  0  0  0
 11 15  1  0  0  0
 12 17  1  0  0  0
 12 28  2  0  0  0
 13 28  1  0  0  0
 13 29  2  0  0  0
 13 61  1  0  0  0
 14 29  1  0  0  0
 14 31  1  0  0  0
 15 30  2  0  0  0
 15 41  1  0  0  0
 16 17  2  0  0  0
 16 18  1  0  0  0
 16 30  1  0  0  0
 17 26  1  0  0  0
 18 23  2  0  0  0
 19 20  1  0  0  0
 19 31  1  0  0  0
 19 42  1  0  0  0
 19 43  1  0  0  0
 20 22  1  0  0  0
 20 32  1  0  0  0
 20 44  1  0  0  0
 21 32  1  0  0  0
 21 45  1  0  0  0
 22 46  1  0  0  0
 22 47  1  0  0  0
 23 48  1  0  0  0
 24 25  3  0  0  0
 25 49  1  0  0  0
 32 50  1  0  0  0
 33 51  1  0  0  0
 52 61  2  0  0  0
 53 55  1  0  0  0
 53 58  2  0  0  0
 54 58  1  0  0  0
 54 62  1  0  0  0
 54 63  1  0  0  0
 55 59  1  0  0  0
 55 64  1  0  0  0
 56 57  1  0  0  0
 56 61  1  0  0  0
 56 65  1  0  0  0
 57 60  1  0  0  0
 57 66  1  0  0  0
 57 67  1  0  0  0
 58 60  1  0  0  0
 59 60  2  0  0  0
 59 68  1  0  0  0
M  END
> <s_m_entry_id>
741

> <s_m_entry_name>
000000583.1

> <s_m_Source_Path>
/Users/zaksoul/Documents/3r_UNI/2nd_SEMESTER/BSC/FRAG_RECON/RESULTS/2

> <s_m_Source_File>
000000583.mol2

> <i_m_Source_File_Index>
1

$$$$
No_0_605
                    3D
 Schrodinger Suite 2022-4.
 68 74  0  0  1  0            999 V2000
   -5.1810    3.6090  -21.8530 C   0  0  0  0  0  0
   -5.4520    3.8050  -23.1860 C   0  0  0  0  0  0
   -3.9420    3.3510  -21.5190 C   0  0  0  0  0  0
   -3.0590    3.4860  -23.6870 C   0  0  0  0  0  0
   -2.8930    3.2340  -22.2690 C   0  0  0  0  0  0
   -4.4090    3.7540  -24.2010 C   0  0  0  0  0  0
   -3.6630    3.7850  -26.4030 C   0  0  0  0  0  0
    6.0870    3.0010  -21.1820 C   0  0  0  0  0  0
    5.9380    3.1560  -23.7310 C   0  0  0  0  0  0
   -4.6650    3.8890  -25.5350 C   0  0  0  0  0  0
    2.1540    3.7130  -23.7290 C   0  0  0  0  0  0
    1.3370    4.8230  -23.4210 C   0  0  0  0  0  0
    3.1410    6.0110  -22.7430 C   0  0  0  0  0  0
    3.5570    3.8990  -23.4210 C   0  0  0  0  0  0
    1.6030    2.6010  -24.3930 C   0  0  0  0  0  0
   -0.5220    3.4190  -24.2700 C   0  0  0  0  0  0
    0.0100    4.6350  -23.6670 C   0  0  0  0  0  0
   -1.9770    3.4300  -24.6180 C   0  0  0  0  0  0
    4.1570    1.3990  -23.1440 C   0  0  0  0  0  0
    5.0950    1.0350  -22.0030 C   0  0  2  0  0  0
    6.6890    2.5740  -22.5390 C   0  0  2  0  0  0
    5.0840    2.0310  -20.8310 C   0  0  0  0  0  0
   -2.3080    3.5970  -26.0440 C   0  0  0  0  0  0
   -1.5470    2.8150  -21.6780 C   0  0  0  0  0  0
   -0.5150    2.4620  -21.1780 C   0  0  0  0  0  0
   -0.8280    5.6800  -23.3140 F   0  0  0  0  0  0
   -3.7260    3.1020  -20.1390 F   0  0  0  0  0  0
    1.8200    5.9780  -22.8860 N   0  0  0  0  0  0
    4.0350    5.0470  -22.9720 N   0  0  0  0  0  0
    0.2950    2.5160  -24.6930 N   0  0  0  0  0  0
    4.4710    2.8500  -23.6070 N   0  0  0  0  0  0
    6.5000    1.1010  -22.4910 N   0  0  1  0  0  0
   -3.8410    3.8060  -27.7920 O   0  0  0  0  0  0
   -5.9796    3.6712  -21.1226 H   0  0  0  0  0  0
   -6.4675    4.0037  -23.5091 H   0  0  0  0  0  0
    5.6179    3.9906  -21.2849 H   0  0  0  0  0  0
    6.8763    3.0060  -20.4159 H   0  0  0  0  0  0
    6.3275    2.7150  -24.6604 H   0  0  0  0  0  0
    6.0833    4.2460  -23.7593 H   0  0  0  0  0  0
   -5.6765    4.0776  -25.8762 H   0  0  0  0  0  0
    2.2385    1.7718  -24.6821 H   0  0  0  0  0  0
    3.1157    1.3435  -22.7939 H   0  0  0  0  0  0
    4.3144    0.7047  -23.9826 H   0  0  0  0  0  0
    4.8700    0.0218  -21.6387 H   0  0  0  0  0  0
    7.7578    2.8293  -22.5885 H   0  0  0  0  0  0
    4.1018    2.5236  -20.7805 H   0  0  0  0  0  0
    5.3877    1.5123  -19.9097 H   0  0  0  0  0  0
   -1.5411    3.5789  -26.8099 H   0  0  0  0  0  0
    0.3934    2.1519  -20.7378 H   0  0  0  0  0  0
    7.1492    0.5983  -21.7894 H   0  0  0  0  0  0
   -2.9984    3.7179  -28.2217 H   0  0  0  0  0  0
    3.1560    8.3500  -22.6870 O   0  0  0  0  0  0
    7.7400   10.0760  -23.3550 N   0  0  0  0  0  0
    5.4180   10.4780  -23.5110 N   0  0  0  0  0  0
    8.5920    9.3040  -22.5560 N   0  0  0  0  0  0
    4.7610    7.3010  -21.4480 N   0  0  0  0  0  0
    5.3800    8.5440  -20.9680 C   0  0  0  0  0  0
    6.5000    9.8930  -22.9600 C   0  0  0  0  0  0
    7.8610    8.6640  -21.6650 C   0  0  0  0  0  0
    6.5210    8.9600  -21.8620 C   0  0  0  0  0  0
    3.7010    7.3330  -22.2760 C   0  0  0  0  0  0
    4.4793   10.2781  -23.1371 H   0  0  0  0  0  0
    5.5300   11.1242  -24.3052 H   0  0  0  0  0  0
    9.6077    9.3140  -22.7269 H   0  0  0  0  0  0
    5.1378    6.4235  -21.1512 H   0  0  0  0  0  0
    5.7522    8.3959  -19.9435 H   0  0  0  0  0  0
    4.6242    9.3428  -20.9430 H   0  0  0  0  0  0
    8.3373    8.0246  -20.9306 H   0  0  0  0  0  0
  1  2  2  0  0  0
  1  3  1  0  0  0
  1 34  1  0  0  0
  2  6  1  0  0  0
  2 35  1  0  0  0
  3  5  2  0  0  0
  3 27  1  0  0  0
  4  5  1  0  0  0
  4  6  2  0  0  0
  4 18  1  0  0  0
  5 24  1  0  0  0
  6 10  1  0  0  0
  7 10  2  0  0  0
  7 23  1  0  0  0
  7 33  1  0  0  0
  8 21  1  0  0  0
  8 22  1  0  0  0
  8 36  1  0  0  0
  8 37  1  0  0  0
  9 21  1  0  0  0
  9 31  1  0  0  0
  9 38  1  0  0  0
  9 39  1  0  0  0
 10 40  1  0  0  0
 11 12  1  0  0  0
 11 14  2  0  0  0
 11 15  1  0  0  0
 12 17  1  0  0  0
 12 28  2  0  0  0
 13 28  1  0  0  0
 13 29  2  0  0  0
 13 61  1  0  0  0
 14 29  1  0  0  0
 14 31  1  0  0  0
 15 30  2  0  0  0
 15 41  1  0  0  0
 16 17  2  0  0  0
 16 18  1  0  0  0
 16 30  1  0  0  0
 17 26  1  0  0  0
 18 23  2  0  0  0
 19 20  1  0  0  0
 19 31  1  0  0  0
 19 42  1  0  0  0
 19 43  1  0  0  0
 20 22  1  0  0  0
 20 32  1  0  0  0
 20 44  1  0  0  0
 21 32  1  0  0  0
 21 45  1  0  0  0
 22 46  1  0  0  0
 22 47  1  0  0  0
 23 48  1  0  0  0
 24 25  3  0  0  0
 25 49  1  0  0  0
 32 50  1  0  0  0
 33 51  1  0  0  0
 52 61  2  0  0  0
 53 55  1  0  0  0
 53 58  2  0  0  0
 54 58  1  0  0  0
 54 62  1  0  0  0
 54 63  1  0  0  0
 55 59  1  0  0  0
 55 64  1  0  0  0
 56 57  1  0  0  0
 56 61  1  0  0  0
 56 65  1  0  0  0
 57 60  1  0  0  0
 57 66  1  0  0  0
 57 67  1  0  0  0
 58 60  1  0  0  0
 59 60  2  0  0  0
 59 68  1  0  0  0
M  END
> <s_m_entry_id>
742

> <s_m_entry_name>
000000584.1

> <s_m_Source_Path>
/Users/zaksoul/Documents/3r_UNI/2nd_SEMESTER/BSC/FRAG_RECON/RESULTS/2

> <s_m_Source_File>
000000584.mol2

> <i_m_Source_File_Index>
1

$$$$
No_0_606
                    3D
 Schrodinger Suite 2022-4.
 68 74  0  0  1  0            999 V2000
   -5.0070    3.6460  -22.1510 C   0  0  0  0  0  0
   -5.2480    3.8490  -23.4890 C   0  0  0  0  0  0
   -3.7800    3.3610  -21.7930 C   0  0  0  0  0  0
   -2.8530    3.4790  -23.9440 C   0  0  0  0  0  0
   -2.7200    3.2220  -22.5230 C   0  0  0  0  0  0
   -4.1860    3.7780  -24.4840 C   0  0  0  0  0  0
   -3.3970    3.7960  -26.6700 C   0  0  0  0  0  0
    6.2300    2.7930  -21.2620 C   0  0  0  0  0  0
    6.1340    2.9550  -23.8120 C   0  0  0  0  0  0
   -4.4130    3.9200  -25.8220 C   0  0  0  0  0  0
    2.3640    3.5940  -23.8830 C   0  0  0  0  0  0
    1.5660    4.7200  -23.5890 C   0  0  0  0  0  0
    3.3810    5.8680  -22.8740 C   0  0  0  0  0  0
    3.7640    3.7490  -23.5470 C   0  0  0  0  0  0
    1.8020    2.4950  -24.5600 C   0  0  0  0  0  0
   -0.3070    3.3590  -24.4770 C   0  0  0  0  0  0
    0.2400    4.5620  -23.8610 C   0  0  0  0  0  0
   -1.7540    3.4020  -24.8530 C   0  0  0  0  0  0
    4.3050    1.2360  -23.2640 C   0  0  0  0  0  0
    5.2120    0.8500  -22.1050 C   0  0  2  0  0  0
    6.8490    2.3560  -22.6070 C   0  0  2  0  0  0
    5.2000    1.8440  -20.9320 C   0  0  0  0  0  0
   -2.0530    3.5790  -26.2850 C   0  0  0  0  0  0
   -1.3960    2.7730  -21.9070 C   0  0  0  0  0  0
   -0.3810    2.3970  -21.3880 C   0  0  0  0  0  0
   -0.5820    5.6250  -23.5230 F   0  0  0  0  0  0
   -3.5970    3.1040  -20.4100 F   0  0  0  0  0  0
    2.0620    5.8640  -23.0420 N   0  0  0  0  0  0
    4.2580    4.8860  -23.0870 N   0  0  0  0  0  0
    0.4980    2.4390  -24.8860 N   0  0  0  0  0  0
    4.6590    2.6810  -23.7180 N   0  0  0  0  0  0
    6.6270    0.8870  -22.5660 N   0  0  1  0  0  0
   -3.5480    3.8240  -28.0620 O   0  0  0  0  0  0
   -5.8182    3.7233  -21.4362 H   0  0  0  0  0  0
   -6.2523    4.0709  -23.8315 H   0  0  0  0  0  0
    5.7850    3.7929  -21.3720 H   0  0  0  0  0  0
    7.0042    2.7799  -20.4807 H   0  0  0  0  0  0
    6.5318    2.5077  -24.7349 H   0  0  0  0  0  0
    6.3035    4.0416  -23.8352 H   0  0  0  0  0  0
   -5.4133    4.1317  -26.1822 H   0  0  0  0  0  0
    2.4253    1.6529  -24.8380 H   0  0  0  0  0  0
    3.2561    1.2027  -22.9342 H   0  0  0  0  0  0
    4.4634    0.5396  -24.1006 H   0  0  0  0  0  0
    4.9576   -0.1587  -21.7476 H   0  0  0  0  0  0
    7.9241    2.5870  -22.6352 H   0  0  0  0  0  0
    4.2279    2.3578  -20.8997 H   0  0  0  0  0  0
    5.4734    1.3173  -20.0058 H   0  0  0  0  0  0
   -1.2724    3.5448  -27.0364 H   0  0  0  0  0  0
    0.5114    2.0658  -20.9308 H   0  0  0  0  0  0
    7.2511    0.3687  -21.8531 H   0  0  0  0  0  0
   -2.6993    3.7182  -28.4755 H   0  0  0  0  0  0
    3.3170    8.1940  -22.6240 O   0  0  0  0  0  0
    7.6620   10.1950  -23.8710 N   0  0  0  0  0  0
    5.3320   10.4900  -23.6180 N   0  0  0  0  0  0
    8.6620    9.4090  -23.2860 N   0  0  0  0  0  0
    5.1420    7.1360  -21.7510 N   0  0  0  0  0  0
    5.7840    8.3680  -21.2740 C   0  0  0  0  0  0
    6.5110    9.9210  -23.2990 C   0  0  0  0  0  0
    8.1110    8.6660  -22.3470 C   0  0  0  0  0  0
    6.7470    8.9080  -22.3010 C   0  0  0  0  0  0
    3.9600    7.1770  -22.3920 C   0  0  0  0  0  0
    4.4744   10.2158  -23.1177 H   0  0  0  0  0  0
    5.2880   11.1999  -24.3629 H   0  0  0  0  0  0
    9.6346    9.4830  -23.6169 H   0  0  0  0  0  0
    5.5948    6.2585  -21.5931 H   0  0  0  0  0  0
    6.3243    8.1609  -20.3385 H   0  0  0  0  0  0
    5.0129    9.1231  -21.0610 H   0  0  0  0  0  0
    8.7250    7.9970  -21.7550 H   0  0  0  0  0  0
  1  2  2  0  0  0
  1  3  1  0  0  0
  1 34  1  0  0  0
  2  6  1  0  0  0
  2 35  1  0  0  0
  3  5  2  0  0  0
  3 27  1  0  0  0
  4  5  1  0  0  0
  4  6  2  0  0  0
  4 18  1  0  0  0
  5 24  1  0  0  0
  6 10  1  0  0  0
  7 10  2  0  0  0
  7 23  1  0  0  0
  7 33  1  0  0  0
  8 21  1  0  0  0
  8 22  1  0  0  0
  8 36  1  0  0  0
  8 37  1  0  0  0
  9 21  1  0  0  0
  9 31  1  0  0  0
  9 38  1  0  0  0
  9 39  1  0  0  0
 10 40  1  0  0  0
 11 12  1  0  0  0
 11 14  2  0  0  0
 11 15  1  0  0  0
 12 17  1  0  0  0
 12 28  2  0  0  0
 13 28  1  0  0  0
 13 29  2  0  0  0
 13 61  1  0  0  0
 14 29  1  0  0  0
 14 31  1  0  0  0
 15 30  2  0  0  0
 15 41  1  0  0  0
 16 17  2  0  0  0
 16 18  1  0  0  0
 16 30  1  0  0  0
 17 26  1  0  0  0
 18 23  2  0  0  0
 19 20  1  0  0  0
 19 31  1  0  0  0
 19 42  1  0  0  0
 19 43  1  0  0  0
 20 22  1  0  0  0
 20 32  1  0  0  0
 20 44  1  0  0  0
 21 32  1  0  0  0
 21 45  1  0  0  0
 22 46  1  0  0  0
 22 47  1  0  0  0
 23 48  1  0  0  0
 24 25  3  0  0  0
 25 49  1  0  0  0
 32 50  1  0  0  0
 33 51  1  0  0  0
 52 61  2  0  0  0
 53 55  1  0  0  0
 53 58  2  0  0  0
 54 58  1  0  0  0
 54 62  1  0  0  0
 54 63  1  0  0  0
 55 59  1  0  0  0
 55 64  1  0  0  0
 56 57  1  0  0  0
 56 61  1  0  0  0
 56 65  1  0  0  0
 57 60  1  0  0  0
 57 66  1  0  0  0
 57 67  1  0  0  0
 58 60  1  0  0  0
 59 60  2  0  0  0
 59 68  1  0  0  0
M  END
> <s_m_entry_id>
743

> <s_m_entry_name>
000000585.1

> <s_m_Source_Path>
/Users/zaksoul/Documents/3r_UNI/2nd_SEMESTER/BSC/FRAG_RECON/RESULTS/2

> <s_m_Source_File>
000000585.mol2

> <i_m_Source_File_Index>
1

$$$$
No_0_607
                    3D
 Schrodinger Suite 2022-4.
 68 73  0  0  1  0            999 V2000
   -5.0140    3.7010  -21.6440 C   0  0  0  0  0  0
   -5.3150    3.9040  -22.9700 C   0  0  0  0  0  0
   -3.7680    3.4370  -21.3390 C   0  0  0  0  0  0
   -2.9350    3.5800  -23.5270 C   0  0  0  0  0  0
   -2.7370    3.3210  -22.1140 C   0  0  0  0  0  0
   -4.2950    3.8550  -24.0080 C   0  0  0  0  0  0
   -3.5990    3.8940  -26.2260 C   0  0  0  0  0  0
    6.2640    3.0550  -21.2340 C   0  0  0  0  0  0
    6.0580    3.2230  -23.7770 C   0  0  0  0  0  0
   -4.5810    3.9970  -25.3350 C   0  0  0  0  0  0
    2.2770    3.7920  -23.6860 C   0  0  0  0  0  0
    1.4710    4.9020  -23.3540 C   0  0  0  0  0  0
    3.2940    6.0810  -22.7120 C   0  0  0  0  0  0
    3.6870    3.9720  -23.4090 C   0  0  0  0  0  0
    1.7070    2.6850  -24.3430 C   0  0  0  0  0  0
   -0.4120    3.5080  -24.1670 C   0  0  0  0  0  0
    0.1380    4.7200  -23.5710 C   0  0  0  0  0  0
   -1.8740    3.5260  -24.4820 C   0  0  0  0  0  0
    4.2860    1.4680  -23.1580 C   0  0  0  0  0  0
    5.2480    1.0960  -22.0410 C   0  0  2  0  0  0
    6.8340    2.6330  -22.6060 C   0  0  2  0  0  0
    5.2670    2.0860  -20.8640 C   0  0  0  0  0  0
   -2.2370    3.7010  -25.8990 C   0  0  0  0  0  0
   -1.3800    2.8940  -21.5560 C   0  0  0  0  0  0
   -0.3380    2.5360  -21.0810 C   0  0  0  0  0  0
   -0.6890    5.7660  -23.1940 F   0  0  0  0  0  0
   -3.5220    3.1800  -19.9660 F   0  0  0  0  0  0
    1.9690    6.0530  -22.8250 N   0  0  0  0  0  0
    4.1780    5.1160  -22.9660 N   0  0  0  0  0  0
    0.3920    2.6050  -24.6140 N   0  0  0  0  0  0
    4.5940    2.9210  -23.6220 N   0  0  0  0  0  0
    6.6410    1.1600  -22.5610 N   0  0  1  0  0  0
   -3.8100    3.9240  -27.6100 O   0  0  0  0  0  0
   -5.7952    3.7612  -20.8949 H   0  0  0  0  0  0
   -6.3371    4.1078  -23.2682 H   0  0  0  0  0  0
    5.7967    4.0470  -21.3208 H   0  0  0  0  0  0
    7.0710    3.0540  -20.4865 H   0  0  0  0  0  0
    6.4244    2.7860  -24.7176 H   0  0  0  0  0  0
    6.2063    4.3126  -23.8032 H   0  0  0  0  0  0
   -5.5994    4.1906  -25.6520 H   0  0  0  0  0  0
    2.3332    1.8551  -24.6501 H   0  0  0  0  0  0
    3.2527    1.4145  -22.7846 H   0  0  0  0  0  0
    4.4212    0.7777  -24.0037 H   0  0  0  0  0  0
    5.0280    0.0817  -21.6767 H   0  0  0  0  0  0
    7.9022    2.8852  -22.6786 H   0  0  0  0  0  0
    4.2878    2.5816  -20.7893 H   0  0  0  0  0  0
    5.5899    1.5613  -19.9528 H   0  0  0  0  0  0
   -1.4883    3.6849  -26.6828 H   0  0  0  0  0  0
    0.5797    2.2211  -20.6641 H   0  0  0  0  0  0
    7.3048    0.6523  -21.8769 H   0  0  0  0  0  0
   -2.9775    3.8350  -28.0589 H   0  0  0  0  0  0
    3.3120    8.4170  -22.6480 O   0  0  0  0  0  0
    7.4170    8.5350  -22.5010 N   0  3  0  0  0  0
    4.9380    7.3770  -21.4370 N   0  0  0  0  0  0
    6.2960    9.3910  -21.9840 C   0  0  0  0  0  0
    5.4940    8.6330  -20.9120 C   0  0  0  0  0  0
    8.2880    9.2130  -23.5180 C   0  0  0  0  0  0
    3.8680    7.4000  -22.2510 C   0  0  0  0  0  0
    7.0367    7.6893  -22.8963 H   0  0  0  0  0  0
    7.9847    8.2262  -21.7274 H   0  0  0  0  0  0
    5.3583    6.5045  -21.1878 H   0  0  0  0  0  0
    5.6299    9.6630  -22.8161 H   0  0  0  0  0  0
    6.7093   10.3127  -21.5486 H   0  0  0  0  0  0
    6.1461    8.4130  -20.0539 H   0  0  0  0  0  0
    4.6758    9.2712  -20.5469 H   0  0  0  0  0  0
    9.0799    8.5221  -23.8430 H   0  0  0  0  0  0
    7.6790    9.5060  -24.3859 H   0  0  0  0  0  0
    8.7441   10.1091  -23.0719 H   0  0  0  0  0  0
  1  2  2  0  0  0
  1  3  1  0  0  0
  1 34  1  0  0  0
  2  6  1  0  0  0
  2 35  1  0  0  0
  3  5  2  0  0  0
  3 27  1  0  0  0
  4  5  1  0  0  0
  4  6  2  0  0  0
  4 18  1  0  0  0
  5 24  1  0  0  0
  6 10  1  0  0  0
  7 10  2  0  0  0
  7 23  1  0  0  0
  7 33  1  0  0  0
  8 21  1  0  0  0
  8 22  1  0  0  0
  8 36  1  0  0  0
  8 37  1  0  0  0
  9 21  1  0  0  0
  9 31  1  0  0  0
  9 38  1  0  0  0
  9 39  1  0  0  0
 10 40  1  0  0  0
 11 12  1  0  0  0
 11 14  2  0  0  0
 11 15  1  0  0  0
 12 17  1  0  0  0
 12 28  2  0  0  0
 13 28  1  0  0  0
 13 29  2  0  0  0
 13 58  1  0  0  0
 14 29  1  0  0  0
 14 31  1  0  0  0
 15 30  2  0  0  0
 15 41  1  0  0  0
 16 17  2  0  0  0
 16 18  1  0  0  0
 16 30  1  0  0  0
 17 26  1  0  0  0
 18 23  2  0  0  0
 19 20  1  0  0  0
 19 31  1  0  0  0
 19 42  1  0  0  0
 19 43  1  0  0  0
 20 22  1  0  0  0
 20 32  1  0  0  0
 20 44  1  0  0  0
 21 32  1  0  0  0
 21 45  1  0  0  0
 22 46  1  0  0  0
 22 47  1  0  0  0
 23 48  1  0  0  0
 24 25  3  0  0  0
 25 49  1  0  0  0
 32 50  1  0  0  0
 33 51  1  0  0  0
 52 58  2  0  0  0
 53 55  1  0  0  0
 53 57  1  0  0  0
 53 59  1  0  0  0
 53 60  1  0  0  0
 54 56  1  0  0  0
 54 58  1  0  0  0
 54 61  1  0  0  0
 55 56  1  0  0  0
 55 62  1  0  0  0
 55 63  1  0  0  0
 56 64  1  0  0  0
 56 65  1  0  0  0
 57 66  1  0  0  0
 57 67  1  0  0  0
 57 68  1  0  0  0
M  CHG  1  53   1
M  END
> <s_m_entry_id>
744

> <s_m_entry_name>
000000586.1

> <s_m_Source_Path>
/Users/zaksoul/Documents/3r_UNI/2nd_SEMESTER/BSC/FRAG_RECON/RESULTS/2

> <s_m_Source_File>
000000586.mol2

> <i_m_Source_File_Index>
1

$$$$
No_0_608
                    3D
 Schrodinger Suite 2022-4.
 68 73  0  0  1  0            999 V2000
   -4.9940    3.5030  -22.1060 C   0  0  0  0  0  0
   -5.2640    3.6900  -23.4410 C   0  0  0  0  0  0
   -3.7560    3.2450  -21.7690 C   0  0  0  0  0  0
   -2.8720    3.3650  -23.9390 C   0  0  0  0  0  0
   -2.7070    3.1220  -22.5180 C   0  0  0  0  0  0
   -4.2200    3.6320  -24.4550 C   0  0  0  0  0  0
   -3.4730    3.6470  -26.6560 C   0  0  0  0  0  0
    6.2730    2.8820  -21.4260 C   0  0  0  0  0  0
    6.1250    3.0220  -23.9750 C   0  0  0  0  0  0
   -4.4760    3.7580  -25.7900 C   0  0  0  0  0  0
    2.3420    3.5840  -23.9790 C   0  0  0  0  0  0
    1.5270    4.6970  -23.6780 C   0  0  0  0  0  0
    3.3320    5.8860  -23.0070 C   0  0  0  0  0  0
    3.7450    3.7700  -23.6710 C   0  0  0  0  0  0
    1.7890    2.4690  -24.6360 C   0  0  0  0  0  0
   -0.3340    3.2900  -24.5190 C   0  0  0  0  0  0
    0.1990    4.5100  -23.9240 C   0  0  0  0  0  0
   -1.7890    3.3020  -24.8680 C   0  0  0  0  0  0
    4.3420    1.2700  -23.3780 C   0  0  0  0  0  0
    5.2780    0.9130  -22.2340 C   0  0  2  0  0  0
    6.8750    2.4460  -22.7790 C   0  0  2  0  0  0
    5.2680    1.9160  -21.0680 C   0  0  0  0  0  0
   -2.1190    3.4600  -26.2950 C   0  0  0  0  0  0
   -1.3620    2.7040  -21.9240 C   0  0  0  0  0  0
   -0.3310    2.3530  -21.4220 C   0  0  0  0  0  0
   -0.6370    5.5580  -23.5780 F   0  0  0  0  0  0
   -3.5410    3.0040  -20.3880 F   0  0  0  0  0  0
    2.0110    5.8550  -23.1500 N   0  0  0  0  0  0
    4.2240    4.9200  -23.2290 N   0  0  0  0  0  0
    0.4810    2.3840  -24.9370 N   0  0  0  0  0  0
    4.6580    2.7180  -23.8500 N   0  0  0  0  0  0
    6.6830    0.9730  -22.7220 N   0  0  1  0  0  0
   -3.6510    3.6610  -28.0450 O   0  0  0  0  0  0
   -5.7929    3.5702  -21.3764 H   0  0  0  0  0  0
   -6.2792    3.8886  -23.7650 H   0  0  0  0  0  0
    5.8050    3.8715  -21.5349 H   0  0  0  0  0  0
    7.0613    2.8911  -20.6589 H   0  0  0  0  0  0
    6.5144    2.5741  -24.9011 H   0  0  0  0  0  0
    6.2724    4.1115  -24.0093 H   0  0  0  0  0  0
   -5.4870    3.9468  -26.1324 H   0  0  0  0  0  0
    2.4241    1.6373  -24.9189 H   0  0  0  0  0  0
    3.3004    1.2186  -23.0281 H   0  0  0  0  0  0
    4.4975    0.5701  -24.2122 H   0  0  0  0  0  0
    5.0511   -0.0977  -21.8638 H   0  0  0  0  0  0
    7.9443    2.6992  -22.8294 H   0  0  0  0  0  0
    4.2866    2.4107  -21.0216 H   0  0  0  0  0  0
    5.5698    1.4022  -20.1434 H   0  0  0  0  0  0
   -1.3522    3.4369  -27.0608 H   0  0  0  0  0  0
    0.5766    2.0441  -20.9792 H   0  0  0  0  0  0
    7.3312    0.4735  -22.0172 H   0  0  0  0  0  0
   -2.8081    3.5690  -28.4734 H   0  0  0  0  0  0
    3.2210    8.2090  -22.7780 O   0  0  0  0  0  0
    7.2820    8.6070  -23.2680 N   0  3  0  0  0  0
    5.0800    7.2130  -21.9150 N   0  0  0  0  0  0
    6.2100    9.3480  -22.5210 C   0  0  0  0  0  0
    5.6380    8.4700  -21.3950 C   0  0  0  0  0  0
    7.9350    9.4060  -24.3570 C   0  0  0  0  0  0
    3.8930    7.2110  -22.5470 C   0  0  0  0  0  0
    6.8939    7.7629  -23.6591 H   0  0  0  0  0  0
    7.9841    8.2920  -22.6169 H   0  0  0  0  0  0
    5.5862    6.3586  -21.7979 H   0  0  0  0  0  0
    5.4034    9.6229  -23.2166 H   0  0  0  0  0  0
    6.6321   10.2682  -22.0909 H   0  0  0  0  0  0
    6.4321    8.2450  -20.6679 H   0  0  0  0  0  0
    4.8532    9.0259  -20.8611 H   0  0  0  0  0  0
    8.7040    8.7940  -24.8510 H   0  0  0  0  0  0
    7.1783    9.7089  -25.0957 H   0  0  0  0  0  0
    8.4030   10.3029  -23.9250 H   0  0  0  0  0  0
  1  2  2  0  0  0
  1  3  1  0  0  0
  1 34  1  0  0  0
  2  6  1  0  0  0
  2 35  1  0  0  0
  3  5  2  0  0  0
  3 27  1  0  0  0
  4  5  1  0  0  0
  4  6  2  0  0  0
  4 18  1  0  0  0
  5 24  1  0  0  0
  6 10  1  0  0  0
  7 10  2  0  0  0
  7 23  1  0  0  0
  7 33  1  0  0  0
  8 21  1  0  0  0
  8 22  1  0  0  0
  8 36  1  0  0  0
  8 37  1  0  0  0
  9 21  1  0  0  0
  9 31  1  0  0  0
  9 38  1  0  0  0
  9 39  1  0  0  0
 10 40  1  0  0  0
 11 12  1  0  0  0
 11 14  2  0  0  0
 11 15  1  0  0  0
 12 17  1  0  0  0
 12 28  2  0  0  0
 13 28  1  0  0  0
 13 29  2  0  0  0
 13 58  1  0  0  0
 14 29  1  0  0  0
 14 31  1  0  0  0
 15 30  2  0  0  0
 15 41  1  0  0  0
 16 17  2  0  0  0
 16 18  1  0  0  0
 16 30  1  0  0  0
 17 26  1  0  0  0
 18 23  2  0  0  0
 19 20  1  0  0  0
 19 31  1  0  0  0
 19 42  1  0  0  0
 19 43  1  0  0  0
 20 22  1  0  0  0
 20 32  1  0  0  0
 20 44  1  0  0  0
 21 32  1  0  0  0
 21 45  1  0  0  0
 22 46  1  0  0  0
 22 47  1  0  0  0
 23 48  1  0  0  0
 24 25  3  0  0  0
 25 49  1  0  0  0
 32 50  1  0  0  0
 33 51  1  0  0  0
 52 58  2  0  0  0
 53 55  1  0  0  0
 53 57  1  0  0  0
 53 59  1  0  0  0
 53 60  1  0  0  0
 54 56  1  0  0  0
 54 58  1  0  0  0
 54 61  1  0  0  0
 55 56  1  0  0  0
 55 62  1  0  0  0
 55 63  1  0  0  0
 56 64  1  0  0  0
 56 65  1  0  0  0
 57 66  1  0  0  0
 57 67  1  0  0  0
 57 68  1  0  0  0
M  CHG  1  53   1
M  END
> <s_m_entry_id>
745

> <s_m_entry_name>
000000587.1

> <s_m_Source_Path>
/Users/zaksoul/Documents/3r_UNI/2nd_SEMESTER/BSC/FRAG_RECON/RESULTS/2

> <s_m_Source_File>
000000587.mol2

> <i_m_Source_File_Index>
1

$$$$
No_0_609
                    3D
 Schrodinger Suite 2022-4.
 68 73  0  0  1  0            999 V2000
   -5.0460    3.6820  -22.2530 C   0  0  0  0  0  0
   -5.2820    3.8750  -23.5930 C   0  0  0  0  0  0
   -3.8190    3.4060  -21.8880 C   0  0  0  0  0  0
   -2.8830    3.5160  -24.0350 C   0  0  0  0  0  0
   -2.7550    3.2690  -22.6120 C   0  0  0  0  0  0
   -4.2150    3.8030  -24.5830 C   0  0  0  0  0  0
   -3.4170    3.8110  -26.7660 C   0  0  0  0  0  0
    6.1920    2.9000  -21.3100 C   0  0  0  0  0  0
    6.1060    3.0450  -23.8620 C   0  0  0  0  0  0
   -4.4380    3.9350  -25.9230 C   0  0  0  0  0  0
    2.3330    3.6610  -23.9530 C   0  0  0  0  0  0
    1.5260    4.7850  -23.6700 C   0  0  0  0  0  0
    3.3320    5.9480  -22.9540 C   0  0  0  0  0  0
    3.7300    3.8270  -23.6130 C   0  0  0  0  0  0
    1.7790    2.5540  -24.6250 C   0  0  0  0  0  0
   -0.3340    3.4060  -24.5560 C   0  0  0  0  0  0
    0.2030    4.6170  -23.9470 C   0  0  0  0  0  0
   -1.7800    3.4390  -24.9390 C   0  0  0  0  0  0
    4.2840    1.3180  -23.3100 C   0  0  0  0  0  0
    5.1890    0.9460  -22.1450 C   0  0  2  0  0  0
    6.8190    2.4570  -22.6500 C   0  0  2  0  0  0
    5.1660    1.9470  -20.9780 C   0  0  0  0  0  0
   -2.0740    3.6040  -26.3730 C   0  0  0  0  0  0
   -1.4310    2.8310  -21.9870 C   0  0  0  0  0  0
   -0.4170    2.4650  -21.4610 C   0  0  0  0  0  0
   -0.6270    5.6770  -23.6190 F   0  0  0  0  0  0
   -3.6410    3.1600  -20.5020 F   0  0  0  0  0  0
    2.0140    5.9350  -23.1290 N   0  0  0  0  0  0
    4.2150    4.9690  -23.1570 N   0  0  0  0  0  0
    0.4780    2.4890  -24.9560 N   0  0  0  0  0  0
    4.6320    2.7620  -23.7720 N   0  0  0  0  0  0
    6.6050    0.9870  -22.6000 N   0  0  1  0  0  0
   -3.5620    3.8290  -28.1580 O   0  0  0  0  0  0
   -5.8610    3.7593  -21.5424 H   0  0  0  0  0  0
   -6.2861    4.0887  -23.9411 H   0  0  0  0  0  0
    5.7409    3.8961  -21.4291 H   0  0  0  0  0  0
    6.9632    2.8960  -20.5257 H   0  0  0  0  0  0
    6.5107    2.5928  -24.7795 H   0  0  0  0  0  0
    6.2696    4.1324  -23.8913 H   0  0  0  0  0  0
   -5.4380    4.1388  -26.2885 H   0  0  0  0  0  0
    2.4084    1.7138  -24.8950 H   0  0  0  0  0  0
    3.2338    1.2806  -22.9848 H   0  0  0  0  0  0
    4.4506    0.6171  -24.1412 H   0  0  0  0  0  0
    4.9388   -0.0617  -21.7819 H   0  0  0  0  0  0
    7.8926    2.6951  -22.6752 H   0  0  0  0  0  0
    4.1910    2.4557  -20.9538 H   0  0  0  0  0  0
    5.4386    1.4281  -20.0472 H   0  0  0  0  0  0
   -1.2900    3.5709  -27.1209 H   0  0  0  0  0  0
    0.4756    2.1421  -20.9982 H   0  0  0  0  0  0
    7.2293    0.4781  -21.8805 H   0  0  0  0  0  0
   -2.7112    3.7251  -28.5676 H   0  0  0  0  0  0
    3.1580    8.2360  -22.5180 O   0  0  0  0  0  0
    7.0650    8.9000  -23.6030 N   0  3  0  0  0  0
    5.1730    7.2860  -22.0440 N   0  0  0  0  0  0
    6.0950    9.5200  -22.6390 C   0  0  0  0  0  0
    5.7510    8.5290  -21.5140 C   0  0  0  0  0  0
    7.4990    9.8150  -24.7120 C   0  0  0  0  0  0
    3.9010    7.2630  -22.4800 C   0  0  0  0  0  0
    6.6571    8.0671  -23.9979 H   0  0  0  0  0  0
    7.8761    8.5759  -23.0999 H   0  0  0  0  0  0
    5.7281    6.4549  -22.0790 H   0  0  0  0  0  0
    5.1759    9.8010  -23.1741 H   0  0  0  0  0  0
    6.5402   10.4274  -22.2048 H   0  0  0  0  0  0
    6.6610    8.2950  -20.9420 H   0  0  0  0  0  0
    5.0381    8.9969  -20.8191 H   0  0  0  0  0  0
    8.2050    9.2860  -25.3690 H   0  0  0  0  0  0
    6.6198   10.1281  -25.2942 H   0  0  0  0  0  0
    7.9911   10.7012  -24.2849 H   0  0  0  0  0  0
  1  2  2  0  0  0
  1  3  1  0  0  0
  1 34  1  0  0  0
  2  6  1  0  0  0
  2 35  1  0  0  0
  3  5  2  0  0  0
  3 27  1  0  0  0
  4  5  1  0  0  0
  4  6  2  0  0  0
  4 18  1  0  0  0
  5 24  1  0  0  0
  6 10  1  0  0  0
  7 10  2  0  0  0
  7 23  1  0  0  0
  7 33  1  0  0  0
  8 21  1  0  0  0
  8 22  1  0  0  0
  8 36  1  0  0  0
  8 37  1  0  0  0
  9 21  1  0  0  0
  9 31  1  0  0  0
  9 38  1  0  0  0
  9 39  1  0  0  0
 10 40  1  0  0  0
 11 12  1  0  0  0
 11 14  2  0  0  0
 11 15  1  0  0  0
 12 17  1  0  0  0
 12 28  2  0  0  0
 13 28  1  0  0  0
 13 29  2  0  0  0
 13 58  1  0  0  0
 14 29  1  0  0  0
 14 31  1  0  0  0
 15 30  2  0  0  0
 15 41  1  0  0  0
 16 17  2  0  0  0
 16 18  1  0  0  0
 16 30  1  0  0  0
 17 26  1  0  0  0
 18 23  2  0  0  0
 19 20  1  0  0  0
 19 31  1  0  0  0
 19 42  1  0  0  0
 19 43  1  0  0  0
 20 22  1  0  0  0
 20 32  1  0  0  0
 20 44  1  0  0  0
 21 32  1  0  0  0
 21 45  1  0  0  0
 22 46  1  0  0  0
 22 47  1  0  0  0
 23 48  1  0  0  0
 24 25  3  0  0  0
 25 49  1  0  0  0
 32 50  1  0  0  0
 33 51  1  0  0  0
 52 58  2  0  0  0
 53 55  1  0  0  0
 53 57  1  0  0  0
 53 59  1  0  0  0
 53 60  1  0  0  0
 54 56  1  0  0  0
 54 58  1  0  0  0
 54 61  1  0  0  0
 55 56  1  0  0  0
 55 62  1  0  0  0
 55 63  1  0  0  0
 56 64  1  0  0  0
 56 65  1  0  0  0
 57 66  1  0  0  0
 57 67  1  0  0  0
 57 68  1  0  0  0
M  CHG  1  53   1
M  END
> <s_m_entry_id>
746

> <s_m_entry_name>
000000588.1

> <s_m_Source_Path>
/Users/zaksoul/Documents/3r_UNI/2nd_SEMESTER/BSC/FRAG_RECON/RESULTS/2

> <s_m_Source_File>
000000588.mol2

> <i_m_Source_File_Index>
1

$$$$
No_0_610
                    3D
 Schrodinger Suite 2022-4.
 71 76  0  0  1  0            999 V2000
   -5.1810    3.6090  -21.8530 C   0  0  0  0  0  0
   -5.4520    3.8050  -23.1860 C   0  0  0  0  0  0
   -3.9420    3.3510  -21.5190 C   0  0  0  0  0  0
   -3.0590    3.4860  -23.6870 C   0  0  0  0  0  0
   -2.8930    3.2340  -22.2690 C   0  0  0  0  0  0
   -4.4090    3.7540  -24.2010 C   0  0  0  0  0  0
   -3.6630    3.7850  -26.4030 C   0  0  0  0  0  0
    6.0870    3.0010  -21.1820 C   0  0  0  0  0  0
    5.9380    3.1560  -23.7310 C   0  0  0  0  0  0
   -4.6650    3.8890  -25.5350 C   0  0  0  0  0  0
    2.1540    3.7130  -23.7290 C   0  0  0  0  0  0
    1.3370    4.8230  -23.4210 C   0  0  0  0  0  0
    3.1410    6.0110  -22.7430 C   0  0  0  0  0  0
    3.5570    3.8990  -23.4210 C   0  0  0  0  0  0
    1.6030    2.6010  -24.3930 C   0  0  0  0  0  0
   -0.5220    3.4190  -24.2700 C   0  0  0  0  0  0
    0.0100    4.6350  -23.6670 C   0  0  0  0  0  0
   -1.9770    3.4300  -24.6180 C   0  0  0  0  0  0
    4.1570    1.3990  -23.1440 C   0  0  0  0  0  0
    5.0950    1.0350  -22.0030 C   0  0  2  0  0  0
    6.6890    2.5740  -22.5390 C   0  0  2  0  0  0
    5.0840    2.0310  -20.8310 C   0  0  0  0  0  0
   -2.3080    3.5970  -26.0440 C   0  0  0  0  0  0
   -1.5470    2.8150  -21.6780 C   0  0  0  0  0  0
   -0.5150    2.4620  -21.1780 C   0  0  0  0  0  0
   -0.8280    5.6800  -23.3140 F   0  0  0  0  0  0
   -3.7260    3.1020  -20.1390 F   0  0  0  0  0  0
    1.8200    5.9780  -22.8860 N   0  0  0  0  0  0
    4.0350    5.0470  -22.9720 N   0  0  0  0  0  0
    0.2950    2.5160  -24.6930 N   0  0  0  0  0  0
    4.4710    2.8500  -23.6070 N   0  0  0  0  0  0
    6.5000    1.1010  -22.4910 N   0  0  1  0  0  0
   -3.8410    3.8060  -27.7920 O   0  0  0  0  0  0
   -5.9796    3.6712  -21.1226 H   0  0  0  0  0  0
   -6.4675    4.0037  -23.5091 H   0  0  0  0  0  0
    5.6179    3.9906  -21.2849 H   0  0  0  0  0  0
    6.8763    3.0060  -20.4159 H   0  0  0  0  0  0
    6.3275    2.7150  -24.6604 H   0  0  0  0  0  0
    6.0833    4.2460  -23.7593 H   0  0  0  0  0  0
   -5.6765    4.0776  -25.8762 H   0  0  0  0  0  0
    2.2385    1.7718  -24.6821 H   0  0  0  0  0  0
    3.1157    1.3435  -22.7939 H   0  0  0  0  0  0
    4.3144    0.7047  -23.9826 H   0  0  0  0  0  0
    4.8700    0.0218  -21.6387 H   0  0  0  0  0  0
    7.7578    2.8293  -22.5885 H   0  0  0  0  0  0
    4.1018    2.5236  -20.7805 H   0  0  0  0  0  0
    5.3877    1.5123  -19.9097 H   0  0  0  0  0  0
   -1.5411    3.5789  -26.8099 H   0  0  0  0  0  0
    0.3934    2.1519  -20.7378 H   0  0  0  0  0  0
    7.1492    0.5983  -21.7894 H   0  0  0  0  0  0
   -2.9984    3.7179  -28.2217 H   0  0  0  0  0  0
    3.1430    8.3400  -22.6970 O   0  0  0  0  0  0
    7.3310    8.7350  -22.1610 N   0  3  0  0  0  0
    4.7380    7.3370  -21.4200 N   0  0  0  0  0  0
    6.0900    9.4480  -21.6930 C   0  0  0  0  0  0
    8.1810    8.1910  -21.0440 C   0  0  0  0  0  0
    8.1300    9.6040  -23.0910 C   0  0  0  0  0  0
    5.1690    8.5970  -20.7990 C   0  0  0  0  0  0
    3.7010    7.3330  -22.2760 C   0  0  0  0  0  0
    7.0220    7.9419  -22.7010 H   0  0  0  0  0  0
    5.2137    6.4835  -21.2071 H   0  0  0  0  0  0
    5.5231    9.8039  -22.5659 H   0  0  0  0  0  0
    6.3761   10.3632  -21.1539 H   0  0  0  0  0  0
    9.0640    7.6880  -21.4650 H   0  0  0  0  0  0
    8.5059    9.0177  -20.3952 H   0  0  0  0  0  0
    7.5950    7.4710  -20.4540 H   0  0  0  0  0  0
    9.0297    9.0622  -23.4179 H   0  0  0  0  0  0
    7.5188    9.8621  -23.9684 H   0  0  0  0  0  0
    8.4279   10.5248  -22.5681 H   0  0  0  0  0  0
    5.6810    8.3800  -19.8499 H   0  0  0  0  0  0
    4.2841    9.1879  -20.5200 H   0  0  0  0  0  0
  1  2  2  0  0  0
  1  3  1  0  0  0
  1 34  1  0  0  0
  2  6  1  0  0  0
  2 35  1  0  0  0
  3  5  2  0  0  0
  3 27  1  0  0  0
  4  5  1  0  0  0
  4  6  2  0  0  0
  4 18  1  0  0  0
  5 24  1  0  0  0
  6 10  1  0  0  0
  7 10  2  0  0  0
  7 23  1  0  0  0
  7 33  1  0  0  0
  8 21  1  0  0  0
  8 22  1  0  0  0
  8 36  1  0  0  0
  8 37  1  0  0  0
  9 21  1  0  0  0
  9 31  1  0  0  0
  9 38  1  0  0  0
  9 39  1  0  0  0
 10 40  1  0  0  0
 11 12  1  0  0  0
 11 14  2  0  0  0
 11 15  1  0  0  0
 12 17  1  0  0  0
 12 28  2  0  0  0
 13 28  1  0  0  0
 13 29  2  0  0  0
 13 59  1  0  0  0
 14 29  1  0  0  0
 14 31  1  0  0  0
 15 30  2  0  0  0
 15 41  1  0  0  0
 16 17  2  0  0  0
 16 18  1  0  0  0
 16 30  1  0  0  0
 17 26  1  0  0  0
 18 23  2  0  0  0
 19 20  1  0  0  0
 19 31  1  0  0  0
 19 42  1  0  0  0
 19 43  1  0  0  0
 20 22  1  0  0  0
 20 32  1  0  0  0
 20 44  1  0  0  0
 21 32  1  0  0  0
 21 45  1  0  0  0
 22 46  1  0  0  0
 22 47  1  0  0  0
 23 48  1  0  0  0
 24 25  3  0  0  0
 25 49  1  0  0  0
 32 50  1  0  0  0
 33 51  1  0  0  0
 52 59  2  0  0  0
 53 55  1  0  0  0
 53 56  1  0  0  0
 53 57  1  0  0  0
 53 60  1  0  0  0
 54 58  1  0  0  0
 54 59  1  0  0  0
 54 61  1  0  0  0
 55 58  1  0  0  0
 55 62  1  0  0  0
 55 63  1  0  0  0
 56 64  1  0  0  0
 56 65  1  0  0  0
 56 66  1  0  0  0
 57 67  1  0  0  0
 57 68  1  0  0  0
 57 69  1  0  0  0
 58 70  1  0  0  0
 58 71  1  0  0  0
M  CHG  1  53   1
M  END
> <s_m_entry_id>
747

> <s_m_entry_name>
000000589.1

> <s_m_Source_Path>
/Users/zaksoul/Documents/3r_UNI/2nd_SEMESTER/BSC/FRAG_RECON/RESULTS/2

> <s_m_Source_File>
000000589.mol2

> <i_m_Source_File_Index>
1

$$$$
No_0_611
                    3D
 Schrodinger Suite 2022-4.
 71 76  0  0  1  0            999 V2000
   -5.0470    3.4560  -21.9680 C   0  0  0  0  0  0
   -5.3120    3.6360  -23.3050 C   0  0  0  0  0  0
   -3.8140    3.1770  -21.6270 C   0  0  0  0  0  0
   -2.9260    3.2580  -23.7960 C   0  0  0  0  0  0
   -2.7670    3.0250  -22.3730 C   0  0  0  0  0  0
   -4.2680    3.5470  -24.3170 C   0  0  0  0  0  0
   -3.5170    3.5270  -26.5170 C   0  0  0  0  0  0
    6.2040    2.6160  -21.2640 C   0  0  0  0  0  0
    6.0620    2.7340  -23.8150 C   0  0  0  0  0  0
   -4.5190    3.6660  -25.6530 C   0  0  0  0  0  0
    2.2920    3.3720  -23.8300 C   0  0  0  0  0  0
    1.4990    4.5040  -23.5410 C   0  0  0  0  0  0
    3.3270    5.6630  -22.8780 C   0  0  0  0  0  0
    3.6970    3.5330  -23.5220 C   0  0  0  0  0  0
    1.7170    2.2620  -24.4780 C   0  0  0  0  0  0
   -0.3890    3.1270  -24.3710 C   0  0  0  0  0  0
    0.1680    4.3410  -23.7870 C   0  0  0  0  0  0
   -1.8430    3.1640  -24.7230 C   0  0  0  0  0  0
    4.2430    1.0240  -23.2040 C   0  0  0  0  0  0
    5.1710    0.6590  -22.0550 C   0  0  2  0  0  0
    6.7990    2.1550  -22.6120 C   0  0  2  0  0  0
    5.1800    1.6730  -20.8990 C   0  0  0  0  0  0
   -2.1680    3.3160  -26.1520 C   0  0  0  0  0  0
   -1.4320    2.5860  -21.7730 C   0  0  0  0  0  0
   -0.4090    2.2190  -21.2650 C   0  0  0  0  0  0
   -0.6480    5.4100  -23.4520 F   0  0  0  0  0  0
   -3.6070    2.9450  -20.2430 F   0  0  0  0  0  0
    2.0050    5.6560  -23.0230 N   0  0  0  0  0  0
    4.1990    4.6770  -23.0900 N   0  0  0  0  0  0
    0.4090    2.2000  -24.7790 N   0  0  0  0  0  0
    4.5900    2.4610  -23.6890 N   0  0  0  0  0  0
    6.5780    0.6870  -22.5410 N   0  0  1  0  0  0
   -3.6930    3.5300  -27.9060 O   0  0  0  0  0  0
   -5.8452    3.5464  -21.2401 H   0  0  0  0  0  0
   -6.3221    3.8529  -23.6333 H   0  0  0  0  0  0
    5.7570    3.6140  -21.3831 H   0  0  0  0  0  0
    6.9923    2.6160  -20.4969 H   0  0  0  0  0  0
    6.4435    2.2698  -24.7364 H   0  0  0  0  0  0
    6.2316    3.8199  -23.8594 H   0  0  0  0  0  0
   -5.5254    3.8717  -25.9992 H   0  0  0  0  0  0
    2.3353    1.4148  -24.7520 H   0  0  0  0  0  0
    3.2003    0.9967  -22.8547 H   0  0  0  0  0  0
    4.3864    0.3131  -24.0311 H   0  0  0  0  0  0
    4.9237   -0.3434  -21.6754 H   0  0  0  0  0  0
    7.8734    2.3850  -22.6645 H   0  0  0  0  0  0
    4.2086    2.1875  -20.8586 H   0  0  0  0  0  0
    5.4698    1.1620  -19.9690 H   0  0  0  0  0  0
   -1.4002    3.2698  -26.9158 H   0  0  0  0  0  0
    0.4920    1.8960  -20.8190 H   0  0  0  0  0  0
    7.2154    0.1812  -21.8309 H   0  0  0  0  0  0
   -2.8517    3.4172  -28.3326 H   0  0  0  0  0  0
    3.2530    7.9820  -22.6770 O   0  0  0  0  0  0
    7.4520    8.5430  -22.8720 N   0  3  0  0  0  0
    5.0880    6.9820  -21.7750 N   0  0  0  0  0  0
    6.2910    9.1680  -22.1430 C   0  0  0  0  0  0
    8.5090    7.9750  -21.9640 C   0  0  0  0  0  0
    8.0380    9.5030  -23.8690 C   0  0  0  0  0  0
    5.5790    8.2230  -21.1590 C   0  0  0  0  0  0
    3.9140    6.9800  -22.4300 C   0  0  0  0  0  0
    7.0791    7.7702  -23.4009 H   0  0  0  0  0  0
    5.6250    6.1410  -21.7090 H   0  0  0  0  0  0
    5.5631    9.5480  -22.8749 H   0  0  0  0  0  0
    6.6380   10.0619  -21.6040 H   0  0  0  0  0  0
    9.3181    7.5400  -22.5691 H   0  0  0  0  0  0
    8.9168    8.7756  -21.3293 H   0  0  0  0  0  0
    8.0661    7.1942  -21.3282 H   0  0  0  0  0  0
    8.8819    9.0250  -24.3880 H   0  0  0  0  0  0
    7.2692    9.7839  -24.6038 H   0  0  0  0  0  0
    8.3921   10.4041  -23.3469 H   0  0  0  0  0  0
    6.2618    7.9741  -20.3333 H   0  0  0  0  0  0
    4.7388    8.7532  -20.6869 H   0  0  0  0  0  0
  1  2  2  0  0  0
  1  3  1  0  0  0
  1 34  1  0  0  0
  2  6  1  0  0  0
  2 35  1  0  0  0
  3  5  2  0  0  0
  3 27  1  0  0  0
  4  5  1  0  0  0
  4  6  2  0  0  0
  4 18  1  0  0  0
  5 24  1  0  0  0
  6 10  1  0  0  0
  7 10  2  0  0  0
  7 23  1  0  0  0
  7 33  1  0  0  0
  8 21  1  0  0  0
  8 22  1  0  0  0
  8 36  1  0  0  0
  8 37  1  0  0  0
  9 21  1  0  0  0
  9 31  1  0  0  0
  9 38  1  0  0  0
  9 39  1  0  0  0
 10 40  1  0  0  0
 11 12  1  0  0  0
 11 14  2  0  0  0
 11 15  1  0  0  0
 12 17  1  0  0  0
 12 28  2  0  0  0
 13 28  1  0  0  0
 13 29  2  0  0  0
 13 59  1  0  0  0
 14 29  1  0  0  0
 14 31  1  0  0  0
 15 30  2  0  0  0
 15 41  1  0  0  0
 16 17  2  0  0  0
 16 18  1  0  0  0
 16 30  1  0  0  0
 17 26  1  0  0  0
 18 23  2  0  0  0
 19 20  1  0  0  0
 19 31  1  0  0  0
 19 42  1  0  0  0
 19 43  1  0  0  0
 20 22  1  0  0  0
 20 32  1  0  0  0
 20 44  1  0  0  0
 21 32  1  0  0  0
 21 45  1  0  0  0
 22 46  1  0  0  0
 22 47  1  0  0  0
 23 48  1  0  0  0
 24 25  3  0  0  0
 25 49  1  0  0  0
 32 50  1  0  0  0
 33 51  1  0  0  0
 52 59  2  0  0  0
 53 55  1  0  0  0
 53 56  1  0  0  0
 53 57  1  0  0  0
 53 60  1  0  0  0
 54 58  1  0  0  0
 54 59  1  0  0  0
 54 61  1  0  0  0
 55 58  1  0  0  0
 55 62  1  0  0  0
 55 63  1  0  0  0
 56 64  1  0  0  0
 56 65  1  0  0  0
 56 66  1  0  0  0
 57 67  1  0  0  0
 57 68  1  0  0  0
 57 69  1  0  0  0
 58 70  1  0  0  0
 58 71  1  0  0  0
M  CHG  1  53   1
M  END
> <s_m_entry_id>
748

> <s_m_entry_name>
000000590.1

> <s_m_Source_Path>
/Users/zaksoul/Documents/3r_UNI/2nd_SEMESTER/BSC/FRAG_RECON/RESULTS/2

> <s_m_Source_File>
000000590.mol2

> <i_m_Source_File_Index>
1

$$$$
No_0_612
                    3D
 Schrodinger Suite 2022-4.
 71 76  0  0  1  0            999 V2000
   -4.9760    3.7510  -21.7620 C   0  0  0  0  0  0
   -5.2750    3.9270  -23.0930 C   0  0  0  0  0  0
   -3.7340    3.4770  -21.4510 C   0  0  0  0  0  0
   -2.9000    3.5530  -23.6420 C   0  0  0  0  0  0
   -2.7060    3.3260  -22.2230 C   0  0  0  0  0  0
   -4.2560    3.8370  -24.1300 C   0  0  0  0  0  0
   -3.5610    3.8120  -26.3480 C   0  0  0  0  0  0
    6.2920    2.9450  -21.3390 C   0  0  0  0  0  0
    6.0860    3.0540  -23.8860 C   0  0  0  0  0  0
   -4.5410    3.9510  -25.4600 C   0  0  0  0  0  0
    2.3140    3.6820  -23.8080 C   0  0  0  0  0  0
    1.5250    4.8120  -23.5030 C   0  0  0  0  0  0
    3.3660    5.9790  -22.8900 C   0  0  0  0  0  0
    3.7270    3.8480  -23.5360 C   0  0  0  0  0  0
    1.7270    2.5680  -24.4380 C   0  0  0  0  0  0
   -0.3790    3.4280  -24.2810 C   0  0  0  0  0  0
    0.1890    4.6450  -23.7150 C   0  0  0  0  0  0
   -1.8410    3.4600  -24.5960 C   0  0  0  0  0  0
    4.2880    1.3420  -23.2240 C   0  0  0  0  0  0
    5.2450    0.9820  -22.0980 C   0  0  2  0  0  0
    6.8540    2.4810  -22.7000 C   0  0  2  0  0  0
    5.2800    2.0000  -20.9460 C   0  0  0  0  0  0
   -2.2020    3.6060  -26.0170 C   0  0  0  0  0  0
   -1.3540    2.8920  -21.6550 C   0  0  0  0  0  0
   -0.3180    2.5300  -21.1730 C   0  0  0  0  0  0
   -0.6210    5.7130  -23.3630 F   0  0  0  0  0  0
   -3.4910    3.2490  -20.0720 F   0  0  0  0  0  0
    2.0410    5.9680  -23.0020 N   0  0  0  0  0  0
    4.2360    4.9940  -23.1200 N   0  0  0  0  0  0
    0.4110    2.5020  -24.7060 N   0  0  0  0  0  0
    4.6170    2.7780  -23.7230 N   0  0  0  0  0  0
    6.6390    1.0130  -22.6200 N   0  0  1  0  0  0
   -3.7720    3.8110  -27.7330 O   0  0  0  0  0  0
   -5.7562    3.8414  -21.0149 H   0  0  0  0  0  0
   -6.2940    4.1388  -23.3962 H   0  0  0  0  0  0
    5.8388    3.9412  -21.4500 H   0  0  0  0  0  0
    7.0990    2.9490  -20.5916 H   0  0  0  0  0  0
    6.4454    2.5887  -24.8157 H   0  0  0  0  0  0
    6.2504    4.1404  -23.9385 H   0  0  0  0  0  0
   -5.5565    4.1527  -25.7811 H   0  0  0  0  0  0
    2.3404    1.7216  -24.7251 H   0  0  0  0  0  0
    3.2540    1.3127  -22.8498 H   0  0  0  0  0  0
    4.4122    0.6294  -24.0527 H   0  0  0  0  0  0
    5.0097   -0.0197  -21.7092 H   0  0  0  0  0  0
    7.9258    2.7151  -22.7797 H   0  0  0  0  0  0
    4.3087    2.5124  -20.8825 H   0  0  0  0  0  0
    5.5948    1.4935  -20.0217 H   0  0  0  0  0  0
   -1.4540    3.5598  -26.8002 H   0  0  0  0  0  0
    0.5947    2.2111  -20.7482 H   0  0  0  0  0  0
    7.2953    0.5117  -21.9241 H   0  0  0  0  0  0
   -2.9412    3.6992  -28.1800 H   0  0  0  0  0  0
    3.2090    8.2670  -22.4820 O   0  0  0  0  0  0
    7.2370    9.1380  -23.4800 N   0  3  0  0  0  0
    5.2440    7.3380  -22.0610 N   0  0  0  0  0  0
    6.2220    9.6240  -22.4800 C   0  0  0  0  0  0
    8.4900    8.5830  -22.8570 C   0  0  0  0  0  0
    7.5480   10.2060  -24.4910 C   0  0  0  0  0  0
    5.7840    8.5630  -21.4550 C   0  0  0  0  0  0
    3.9600    7.2990  -22.4610 C   0  0  0  0  0  0
    6.8050    8.3801  -23.9850 H   0  0  0  0  0  0
    5.8283    6.5346  -22.1761 H   0  0  0  0  0  0
    5.3373   10.0029  -23.0128 H   0  0  0  0  0  0
    6.6230   10.4999  -21.9490 H   0  0  0  0  0  0
    9.1778    8.2511  -23.6487 H   0  0  0  0  0  0
    8.9769    9.3638  -22.2542 H   0  0  0  0  0  0
    8.2329    7.7286  -22.2137 H   0  0  0  0  0  0
    8.2901    9.8270  -25.2091 H   0  0  0  0  0  0
    6.6282   10.4830  -25.0269 H   0  0  0  0  0  0
    7.9528   11.0905  -23.9773 H   0  0  0  0  0  0
    6.6365    8.3052  -20.8094 H   0  0  0  0  0  0
    5.0332    8.9969  -20.7782 H   0  0  0  0  0  0
  1  2  2  0  0  0
  1  3  1  0  0  0
  1 34  1  0  0  0
  2  6  1  0  0  0
  2 35  1  0  0  0
  3  5  2  0  0  0
  3 27  1  0  0  0
  4  5  1  0  0  0
  4  6  2  0  0  0
  4 18  1  0  0  0
  5 24  1  0  0  0
  6 10  1  0  0  0
  7 10  2  0  0  0
  7 23  1  0  0  0
  7 33  1  0  0  0
  8 21  1  0  0  0
  8 22  1  0  0  0
  8 36  1  0  0  0
  8 37  1  0  0  0
  9 21  1  0  0  0
  9 31  1  0  0  0
  9 38  1  0  0  0
  9 39  1  0  0  0
 10 40  1  0  0  0
 11 12  1  0  0  0
 11 14  2  0  0  0
 11 15  1  0  0  0
 12 17  1  0  0  0
 12 28  2  0  0  0
 13 28  1  0  0  0
 13 29  2  0  0  0
 13 59  1  0  0  0
 14 29  1  0  0  0
 14 31  1  0  0  0
 15 30  2  0  0  0
 15 41  1  0  0  0
 16 17  2  0  0  0
 16 18  1  0  0  0
 16 30  1  0  0  0
 17 26  1  0  0  0
 18 23  2  0  0  0
 19 20  1  0  0  0
 19 31  1  0  0  0
 19 42  1  0  0  0
 19 43  1  0  0  0
 20 22  1  0  0  0
 20 32  1  0  0  0
 20 44  1  0  0  0
 21 32  1  0  0  0
 21 45  1  0  0  0
 22 46  1  0  0  0
 22 47  1  0  0  0
 23 48  1  0  0  0
 24 25  3  0  0  0
 25 49  1  0  0  0
 32 50  1  0  0  0
 33 51  1  0  0  0
 52 59  2  0  0  0
 53 55  1  0  0  0
 53 56  1  0  0  0
 53 57  1  0  0  0
 53 60  1  0  0  0
 54 58  1  0  0  0
 54 59  1  0  0  0
 54 61  1  0  0  0
 55 58  1  0  0  0
 55 62  1  0  0  0
 55 63  1  0  0  0
 56 64  1  0  0  0
 56 65  1  0  0  0
 56 66  1  0  0  0
 57 67  1  0  0  0
 57 68  1  0  0  0
 57 69  1  0  0  0
 58 70  1  0  0  0
 58 71  1  0  0  0
M  CHG  1  53   1
M  END
> <s_m_entry_id>
749

> <s_m_entry_name>
000000591.1

> <s_m_Source_Path>
/Users/zaksoul/Documents/3r_UNI/2nd_SEMESTER/BSC/FRAG_RECON/RESULTS/2

> <s_m_Source_File>
000000591.mol2

> <i_m_Source_File_Index>
1

$$$$
No_0_613
                    3D
 Schrodinger Suite 2022-4.
 65 70  0  0  1  0            999 V2000
   -5.1920    3.7390  -21.8420 C   0  0  0  0  0  0
   -5.4560    3.9230  -23.1780 C   0  0  0  0  0  0
   -3.9550    3.4850  -21.4980 C   0  0  0  0  0  0
   -3.0600    3.6020  -23.6630 C   0  0  0  0  0  0
   -2.9020    3.3620  -22.2420 C   0  0  0  0  0  0
   -4.4070    3.8640  -24.1870 C   0  0  0  0  0  0
   -3.6490    3.8770  -26.3840 C   0  0  0  0  0  0
    6.0720    3.1460  -21.1040 C   0  0  0  0  0  0
    5.9370    3.2790  -23.6540 C   0  0  0  0  0  0
   -4.6560    3.9870  -25.5230 C   0  0  0  0  0  0
    2.1540    3.8330  -23.6780 C   0  0  0  0  0  0
    1.3340    4.9440  -23.3840 C   0  0  0  0  0  0
    3.1330    6.1390  -22.7060 C   0  0  0  0  0  0
    3.5540    4.0230  -23.3640 C   0  0  0  0  0  0
    1.6060    2.7150  -24.3360 C   0  0  0  0  0  0
   -0.5200    3.5320  -24.2310 C   0  0  0  0  0  0
    0.0080    4.7530  -23.6360 C   0  0  0  0  0  0
   -1.9720    3.5390  -24.5870 C   0  0  0  0  0  0
    4.1550    1.5250  -23.0620 C   0  0  0  0  0  0
    5.0860    1.1720  -21.9130 C   0  0  2  0  0  0
    6.6830    2.7080  -22.4530 C   0  0  2  0  0  0
    5.0690    2.1770  -20.7490 C   0  0  0  0  0  0
   -2.2960    3.6940  -26.0160 C   0  0  0  0  0  0
   -1.5590    2.9490  -21.6400 C   0  0  0  0  0  0
   -0.5300    2.6010  -21.1320 C   0  0  0  0  0  0
   -0.8320    5.8010  -23.2960 F   0  0  0  0  0  0
   -3.7460    3.2470  -20.1150 F   0  0  0  0  0  0
    1.8120    6.1040  -22.8560 N   0  0  0  0  0  0
    4.0280    5.1740  -22.9220 N   0  0  0  0  0  0
    0.3000    2.6260  -24.6420 N   0  0  0  0  0  0
    4.4700    2.9730  -23.5360 N   0  0  0  0  0  0
    6.4940    1.2350  -22.3940 N   0  0  1  0  0  0
   -3.8200    3.8870  -27.7740 O   0  0  0  0  0  0
   -5.9947    3.8052  -21.1165 H   0  0  0  0  0  0
   -6.4698    4.1187  -23.5082 H   0  0  0  0  0  0
    5.6034    4.1346  -21.2181 H   0  0  0  0  0  0
    6.8568    3.1571  -20.3333 H   0  0  0  0  0  0
    6.3317    2.8308  -24.5777 H   0  0  0  0  0  0
    6.0823    4.3688  -23.6903 H   0  0  0  0  0  0
   -5.6656    4.1727  -25.8712 H   0  0  0  0  0  0
    2.2442    1.8841  -24.6140 H   0  0  0  0  0  0
    3.1116    1.4715  -22.7179 H   0  0  0  0  0  0
    4.3165    0.8235  -23.8937 H   0  0  0  0  0  0
    4.8599    0.1616  -21.5415 H   0  0  0  0  0  0
    7.7519    2.9634  -22.4994 H   0  0  0  0  0  0
    4.0862    2.6694  -20.7086 H   0  0  0  0  0  0
    5.3668    1.6663  -19.8214 H   0  0  0  0  0  0
   -1.5252    3.6699  -26.7778 H   0  0  0  0  0  0
    0.3762    2.2953  -20.6844 H   0  0  0  0  0  0
    7.1400    0.7387  -21.6849 H   0  0  0  0  0  0
   -2.9750    3.7960  -28.1985 H   0  0  0  0  0  0
    3.1450    8.4790  -22.6700 O   0  0  0  0  0  0
    6.0300    9.8370  -22.9880 N   0  0  0  0  0  0
    7.7130    8.9140  -21.6260 N   0  3  0  0  0  0
    4.7440    7.4440  -21.4110 N   0  0  0  0  0  0
    5.3610    8.6950  -20.9470 C   0  0  0  0  0  0
    6.4310    9.1700  -21.9030 C   0  0  0  0  0  0
    3.6890    7.4660  -22.2470 C   0  0  0  0  0  0
    5.0262   10.0031  -23.1481 H   0  0  0  0  0  0
    6.7249   10.1850  -23.6639 H   0  0  0  0  0  0
    7.9621    8.3938  -20.7726 H   0  0  0  0  0  0
    8.4516    9.2378  -22.2667 H   0  0  0  0  0  0
    5.1171    6.5699  -21.1000 H   0  0  0  0  0  0
    5.8022    8.5379  -19.9517 H   0  0  0  0  0  0
    4.5868    9.4702  -20.8490 H   0  0  0  0  0  0
  1  2  2  0  0  0
  1  3  1  0  0  0
  1 34  1  0  0  0
  2  6  1  0  0  0
  2 35  1  0  0  0
  3  5  2  0  0  0
  3 27  1  0  0  0
  4  5  1  0  0  0
  4  6  2  0  0  0
  4 18  1  0  0  0
  5 24  1  0  0  0
  6 10  1  0  0  0
  7 10  2  0  0  0
  7 23  1  0  0  0
  7 33  1  0  0  0
  8 21  1  0  0  0
  8 22  1  0  0  0
  8 36  1  0  0  0
  8 37  1  0  0  0
  9 21  1  0  0  0
  9 31  1  0  0  0
  9 38  1  0  0  0
  9 39  1  0  0  0
 10 40  1  0  0  0
 11 12  1  0  0  0
 11 14  2  0  0  0
 11 15  1  0  0  0
 12 17  1  0  0  0
 12 28  2  0  0  0
 13 28  1  0  0  0
 13 29  2  0  0  0
 13 58  1  0  0  0
 14 29  1  0  0  0
 14 31  1  0  0  0
 15 30  2  0  0  0
 15 41  1  0  0  0
 16 17  2  0  0  0
 16 18  1  0  0  0
 16 30  1  0  0  0
 17 26  1  0  0  0
 18 23  2  0  0  0
 19 20  1  0  0  0
 19 31  1  0  0  0
 19 42  1  0  0  0
 19 43  1  0  0  0
 20 22  1  0  0  0
 20 32  1  0  0  0
 20 44  1  0  0  0
 21 32  1  0  0  0
 21 45  1  0  0  0
 22 46  1  0  0  0
 22 47  1  0  0  0
 23 48  1  0  0  0
 24 25  3  0  0  0
 25 49  1  0  0  0
 32 50  1  0  0  0
 33 51  1  0  0  0
 52 58  2  0  0  0
 53 57  1  0  0  0
 53 59  1  0  0  0
 53 60  1  0  0  0
 54 57  2  0  0  0
 54 61  1  0  0  0
 54 62  1  0  0  0
 55 56  1  0  0  0
 55 58  1  0  0  0
 55 63  1  0  0  0
 56 57  1  0  0  0
 56 64  1  0  0  0
 56 65  1  0  0  0
M  CHG  1  54   1
M  END
> <s_m_entry_id>
750

> <s_m_entry_name>
000000592.1

> <s_m_Source_Path>
/Users/zaksoul/Documents/3r_UNI/2nd_SEMESTER/BSC/FRAG_RECON/RESULTS/2

> <s_m_Source_File>
000000592.mol2

> <i_m_Source_File_Index>
1

$$$$
No_0_614
                    3D
 Schrodinger Suite 2022-4.
 65 70  0  0  1  0            999 V2000
   -4.9240    3.7230  -21.9080 C   0  0  0  0  0  0
   -5.1890    3.9380  -23.2400 C   0  0  0  0  0  0
   -3.6930    3.4310  -21.5750 C   0  0  0  0  0  0
   -2.8050    3.5620  -23.7420 C   0  0  0  0  0  0
   -2.6470    3.2940  -22.3250 C   0  0  0  0  0  0
   -4.1460    3.8690  -24.2540 C   0  0  0  0  0  0
   -3.3980    3.8990  -26.4550 C   0  0  0  0  0  0
    6.3230    2.8220  -21.2340 C   0  0  0  0  0  0
    6.1810    3.0020  -23.7810 C   0  0  0  0  0  0
   -4.3980    4.0210  -25.5870 C   0  0  0  0  0  0
    2.4130    3.6560  -23.7780 C   0  0  0  0  0  0
    1.6240    4.7830  -23.4610 C   0  0  0  0  0  0
    3.4570    5.9190  -22.7710 C   0  0  0  0  0  0
    3.8190    3.8030  -23.4670 C   0  0  0  0  0  0
    1.8330    2.5640  -24.4520 C   0  0  0  0  0  0
   -0.2700    3.4350  -24.3230 C   0  0  0  0  0  0
    0.2930    4.6320  -23.7090 C   0  0  0  0  0  0
   -1.7230    3.4860  -24.6720 C   0  0  0  0  0  0
    4.3550    1.2860  -23.2110 C   0  0  0  0  0  0
    5.2820    0.8890  -22.0720 C   0  0  2  0  0  0
    6.9160    2.3910  -22.5940 C   0  0  2  0  0  0
    5.2960    1.8740  -20.8920 C   0  0  0  0  0  0
   -2.0490    3.6740  -26.0960 C   0  0  0  0  0  0
   -1.3130    2.8350  -21.7370 C   0  0  0  0  0  0
   -0.2910    2.4520  -21.2390 C   0  0  0  0  0  0
   -0.5180    5.6950  -23.3480 F   0  0  0  0  0  0
   -3.4850    3.1640  -20.1970 F   0  0  0  0  0  0
    2.1350    5.9210  -22.9150 N   0  0  0  0  0  0
    4.3260    4.9340  -23.0070 N   0  0  0  0  0  0
    0.5240    2.5150  -24.7530 N   0  0  0  0  0  0
    4.7070    2.7330  -23.6610 N   0  0  0  0  0  0
    6.6890    0.9230  -22.5590 N   0  0  1  0  0  0
   -3.5750    3.9370  -27.8430 O   0  0  0  0  0  0
   -5.7215    3.7992  -21.1777 H   0  0  0  0  0  0
   -6.1991    4.1649  -23.5613 H   0  0  0  0  0  0
    5.8799    3.8243  -21.3289 H   0  0  0  0  0  0
    7.1122    2.7998  -20.4680 H   0  0  0  0  0  0
    6.5596    2.5588  -24.7139 H   0  0  0  0  0  0
    6.3546    4.0880  -23.8002 H   0  0  0  0  0  0
   -5.4040    4.2387  -25.9270 H   0  0  0  0  0  0
    2.4479    1.7214  -24.7469 H   0  0  0  0  0  0
    3.3124    1.2537  -22.8618 H   0  0  0  0  0  0
    4.4953    0.5945  -24.0549 H   0  0  0  0  0  0
    5.0307   -0.1213  -21.7167 H   0  0  0  0  0  0
    7.9911    2.6191  -22.6404 H   0  0  0  0  0  0
    4.3270    2.3918  -20.8375 H   0  0  0  0  0  0
    5.5846    1.3401  -19.9746 H   0  0  0  0  0  0
   -1.2823    3.6429  -26.8617 H   0  0  0  0  0  0
    0.6090    2.1140  -20.8020 H   0  0  0  0  0  0
    7.3241    0.3980  -21.8608 H   0  0  0  0  0  0
   -2.7346    3.8312  -28.2731 H   0  0  0  0  0  0
    3.4070    8.2430  -22.5050 O   0  0  0  0  0  0
    6.1400    9.7600  -23.2110 N   0  0  0  0  0  0
    8.0740    8.7970  -22.2810 N   0  3  0  0  0  0
    5.2430    7.1730  -21.6710 N   0  0  0  0  0  0
    5.8990    8.4040  -21.2060 C   0  0  0  0  0  0
    6.7560    9.0150  -22.2900 C   0  0  0  0  0  0
    4.0500    7.2220  -22.2920 C   0  0  0  0  0  0
    5.1196    9.8929  -23.1670 H   0  0  0  0  0  0
    6.6845   10.2014  -23.9657 H   0  0  0  0  0  0
    8.4941    8.2129  -21.5439 H   0  0  0  0  0  0
    8.6703    9.2132  -23.0104 H   0  0  0  0  0  0
    5.6932    6.2926  -21.5219 H   0  0  0  0  0  0
    6.5234    8.1768  -20.3294 H   0  0  0  0  0  0
    5.1340    9.1290  -20.8910 H   0  0  0  0  0  0
  1  2  2  0  0  0
  1  3  1  0  0  0
  1 34  1  0  0  0
  2  6  1  0  0  0
  2 35  1  0  0  0
  3  5  2  0  0  0
  3 27  1  0  0  0
  4  5  1  0  0  0
  4  6  2  0  0  0
  4 18  1  0  0  0
  5 24  1  0  0  0
  6 10  1  0  0  0
  7 10  2  0  0  0
  7 23  1  0  0  0
  7 33  1  0  0  0
  8 21  1  0  0  0
  8 22  1  0  0  0
  8 36  1  0  0  0
  8 37  1  0  0  0
  9 21  1  0  0  0
  9 31  1  0  0  0
  9 38  1  0  0  0
  9 39  1  0  0  0
 10 40  1  0  0  0
 11 12  1  0  0  0
 11 14  2  0  0  0
 11 15  1  0  0  0
 12 17  1  0  0  0
 12 28  2  0  0  0
 13 28  1  0  0  0
 13 29  2  0  0  0
 13 58  1  0  0  0
 14 29  1  0  0  0
 14 31  1  0  0  0
 15 30  2  0  0  0
 15 41  1  0  0  0
 16 17  2  0  0  0
 16 18  1  0  0  0
 16 30  1  0  0  0
 17 26  1  0  0  0
 18 23  2  0  0  0
 19 20  1  0  0  0
 19 31  1  0  0  0
 19 42  1  0  0  0
 19 43  1  0  0  0
 20 22  1  0  0  0
 20 32  1  0  0  0
 20 44  1  0  0  0
 21 32  1  0  0  0
 21 45  1  0  0  0
 22 46  1  0  0  0
 22 47  1  0  0  0
 23 48  1  0  0  0
 24 25  3  0  0  0
 25 49  1  0  0  0
 32 50  1  0  0  0
 33 51  1  0  0  0
 52 58  2  0  0  0
 53 57  1  0  0  0
 53 59  1  0  0  0
 53 60  1  0  0  0
 54 57  2  0  0  0
 54 61  1  0  0  0
 54 62  1  0  0  0
 55 56  1  0  0  0
 55 58  1  0  0  0
 55 63  1  0  0  0
 56 57  1  0  0  0
 56 64  1  0  0  0
 56 65  1  0  0  0
M  CHG  1  54   1
M  END
> <s_m_entry_id>
751

> <s_m_entry_name>
000000593.1

> <s_m_Source_Path>
/Users/zaksoul/Documents/3r_UNI/2nd_SEMESTER/BSC/FRAG_RECON/RESULTS/2

> <s_m_Source_File>
000000593.mol2

> <i_m_Source_File_Index>
1

$$$$
No_0_615
                    3D
 Schrodinger Suite 2022-4.
 65 70  0  0  1  0            999 V2000
   -5.0330    3.3240  -22.0100 C   0  0  0  0  0  0
   -5.2860    3.5400  -23.3440 C   0  0  0  0  0  0
   -3.8010    3.0490  -21.6640 C   0  0  0  0  0  0
   -2.8910    3.2010  -23.8200 C   0  0  0  0  0  0
   -2.7450    2.9290  -22.4030 C   0  0  0  0  0  0
   -4.2310    3.4910  -24.3470 C   0  0  0  0  0  0
   -3.4590    3.5410  -26.5380 C   0  0  0  0  0  0
    6.2190    2.5840  -21.2130 C   0  0  0  0  0  0
    6.1020    2.7730  -23.7610 C   0  0  0  0  0  0
   -4.4700    3.6450  -25.6820 C   0  0  0  0  0  0
    2.3250    3.3710  -23.7970 C   0  0  0  0  0  0
    1.5160    4.4860  -23.4850 C   0  0  0  0  0  0
    3.3250    5.6450  -22.7700 C   0  0  0  0  0  0
    3.7250    3.5380  -23.4700 C   0  0  0  0  0  0
    1.7690    2.2740  -24.4820 C   0  0  0  0  0  0
   -0.3480    3.1130  -24.3730 C   0  0  0  0  0  0
    0.1900    4.3160  -23.7490 C   0  0  0  0  0  0
   -1.7980    3.1450  -24.7380 C   0  0  0  0  0  0
    4.2950    1.0270  -23.2180 C   0  0  0  0  0  0
    5.2150    0.6390  -22.0700 C   0  0  2  0  0  0
    6.8330    2.1670  -22.5680 C   0  0  2  0  0  0
    5.2010    1.6200  -20.8860 C   0  0  0  0  0  0
   -2.1100    3.3340  -26.1660 C   0  0  0  0  0  0
   -1.4110    2.4880  -21.8020 C   0  0  0  0  0  0
   -0.3890    2.1170  -21.2940 C   0  0  0  0  0  0
   -0.6400    5.3660  -23.3920 F   0  0  0  0  0  0
   -3.6050    2.7790  -20.2850 F   0  0  0  0  0  0
    2.0050    5.6290  -22.9290 N   0  0  0  0  0  0
    4.2100    4.6740  -23.0010 N   0  0  0  0  0  0
    0.4640    2.2070  -24.7990 N   0  0  0  0  0  0
    4.6310    2.4810  -23.6590 N   0  0  0  0  0  0
    6.6260    0.6960  -22.5410 N   0  0  1  0  0  0
   -3.6200    3.5820  -27.9290 O   0  0  0  0  0  0
   -5.8397    3.3852  -21.2886 H   0  0  0  0  0  0
   -6.2955    3.7537  -23.6761 H   0  0  0  0  0  0
    5.7619    3.5799  -21.3089 H   0  0  0  0  0  0
    6.9993    2.5699  -20.4378 H   0  0  0  0  0  0
    6.4975    2.3392  -24.6912 H   0  0  0  0  0  0
    6.2595    3.8616  -23.7731 H   0  0  0  0  0  0
   -5.4753    3.8497  -26.0321 H   0  0  0  0  0  0
    2.3989    1.4415  -24.7739 H   0  0  0  0  0  0
    3.2491    0.9785  -22.8808 H   0  0  0  0  0  0
    4.4546    0.3413  -24.0632 H   0  0  0  0  0  0
    4.9748   -0.3764  -21.7218 H   0  0  0  0  0  0
    7.9050    2.4113  -22.6013 H   0  0  0  0  0  0
    4.2241    2.1236  -20.8416 H   0  0  0  0  0  0
    5.4875    1.0863  -19.9678 H   0  0  0  0  0  0
   -1.3346    3.3169  -26.9233 H   0  0  0  0  0  0
    0.5110    1.7910  -20.8480 H   0  0  0  0  0  0
    7.2620    0.1776  -21.8387 H   0  0  0  0  0  0
   -2.7733    3.4899  -28.3499 H   0  0  0  0  0  0
    3.1490    7.9280  -22.2900 O   0  0  0  0  0  0
    5.5990    9.7300  -23.2970 N   0  0  0  0  0  0
    7.7310    8.8740  -22.7910 N   0  3  0  0  0  0
    5.1750    6.9640  -21.8710 N   0  0  0  0  0  0
    5.8080    8.2080  -21.4120 C   0  0  0  0  0  0
    6.4190    8.9750  -22.5630 C   0  0  0  0  0  0
    3.8930    6.9550  -22.2790 C   0  0  0  0  0  0
    4.5944    9.7690  -23.0729 H   0  0  0  0  0  0
    5.9718   10.2748  -24.0877 H   0  0  0  0  0  0
    8.3139    8.2741  -22.1901 H   0  0  0  0  0  0
    8.1598    9.3958  -23.5687 H   0  0  0  0  0  0
    5.7088    6.1184  -21.8790 H   0  0  0  0  0  0
    6.5897    7.9711  -20.6753 H   0  0  0  0  0  0
    5.0580    8.8370  -20.9100 H   0  0  0  0  0  0
  1  2  2  0  0  0
  1  3  1  0  0  0
  1 34  1  0  0  0
  2  6  1  0  0  0
  2 35  1  0  0  0
  3  5  2  0  0  0
  3 27  1  0  0  0
  4  5  1  0  0  0
  4  6  2  0  0  0
  4 18  1  0  0  0
  5 24  1  0  0  0
  6 10  1  0  0  0
  7 10  2  0  0  0
  7 23  1  0  0  0
  7 33  1  0  0  0
  8 21  1  0  0  0
  8 22  1  0  0  0
  8 36  1  0  0  0
  8 37  1  0  0  0
  9 21  1  0  0  0
  9 31  1  0  0  0
  9 38  1  0  0  0
  9 39  1  0  0  0
 10 40  1  0  0  0
 11 12  1  0  0  0
 11 14  2  0  0  0
 11 15  1  0  0  0
 12 17  1  0  0  0
 12 28  2  0  0  0
 13 28  1  0  0  0
 13 29  2  0  0  0
 13 58  1  0  0  0
 14 29  1  0  0  0
 14 31  1  0  0  0
 15 30  2  0  0  0
 15 41  1  0  0  0
 16 17  2  0  0  0
 16 18  1  0  0  0
 16 30  1  0  0  0
 17 26  1  0  0  0
 18 23  2  0  0  0
 19 20  1  0  0  0
 19 31  1  0  0  0
 19 42  1  0  0  0
 19 43  1  0  0  0
 20 22  1  0  0  0
 20 32  1  0  0  0
 20 44  1  0  0  0
 21 32  1  0  0  0
 21 45  1  0  0  0
 22 46  1  0  0  0
 22 47  1  0  0  0
 23 48  1  0  0  0
 24 25  3  0  0  0
 25 49  1  0  0  0
 32 50  1  0  0  0
 33 51  1  0  0  0
 52 58  2  0  0  0
 53 57  1  0  0  0
 53 59  1  0  0  0
 53 60  1  0  0  0
 54 57  2  0  0  0
 54 61  1  0  0  0
 54 62  1  0  0  0
 55 56  1  0  0  0
 55 58  1  0  0  0
 55 63  1  0  0  0
 56 57  1  0  0  0
 56 64  1  0  0  0
 56 65  1  0  0  0
M  CHG  1  54   1
M  END
> <s_m_entry_id>
752

> <s_m_entry_name>
000000594.1

> <s_m_Source_Path>
/Users/zaksoul/Documents/3r_UNI/2nd_SEMESTER/BSC/FRAG_RECON/RESULTS/2

> <s_m_Source_File>
000000594.mol2

> <i_m_Source_File_Index>
1

$$$$
No_0_616
                    3D
 Schrodinger Suite 2022-4.
 72 78  0  0  1  0            999 V2000
   -5.1810    3.6090  -21.8530 C   0  0  0  0  0  0
   -5.4520    3.8050  -23.1860 C   0  0  0  0  0  0
   -3.9420    3.3510  -21.5190 C   0  0  0  0  0  0
   -3.0590    3.4860  -23.6870 C   0  0  0  0  0  0
   -2.8930    3.2340  -22.2690 C   0  0  0  0  0  0
   -4.4090    3.7540  -24.2010 C   0  0  0  0  0  0
   -3.6630    3.7850  -26.4030 C   0  0  0  0  0  0
    6.0870    3.0010  -21.1820 C   0  0  0  0  0  0
    5.9380    3.1560  -23.7310 C   0  0  0  0  0  0
   -4.6650    3.8890  -25.5350 C   0  0  0  0  0  0
    2.1540    3.7130  -23.7290 C   0  0  0  0  0  0
    1.3370    4.8230  -23.4210 C   0  0  0  0  0  0
    3.1410    6.0110  -22.7430 C   0  0  0  0  0  0
    3.5570    3.8990  -23.4210 C   0  0  0  0  0  0
    1.6030    2.6010  -24.3930 C   0  0  0  0  0  0
   -0.5220    3.4190  -24.2700 C   0  0  0  0  0  0
    0.0100    4.6350  -23.6670 C   0  0  0  0  0  0
   -1.9770    3.4300  -24.6180 C   0  0  0  0  0  0
    4.1570    1.3990  -23.1440 C   0  0  0  0  0  0
    5.0950    1.0350  -22.0030 C   0  0  2  0  0  0
    6.6890    2.5740  -22.5390 C   0  0  2  0  0  0
    5.0840    2.0310  -20.8310 C   0  0  0  0  0  0
   -2.3080    3.5970  -26.0440 C   0  0  0  0  0  0
   -1.5470    2.8150  -21.6780 C   0  0  0  0  0  0
   -0.5150    2.4620  -21.1780 C   0  0  0  0  0  0
   -0.8280    5.6800  -23.3140 F   0  0  0  0  0  0
   -3.7260    3.1020  -20.1390 F   0  0  0  0  0  0
    1.8200    5.9780  -22.8860 N   0  0  0  0  0  0
    4.0350    5.0470  -22.9720 N   0  0  0  0  0  0
    0.2950    2.5160  -24.6930 N   0  0  0  0  0  0
    4.4710    2.8500  -23.6070 N   0  0  0  0  0  0
    6.5000    1.1010  -22.4910 N   0  0  1  0  0  0
   -3.8410    3.8060  -27.7920 O   0  0  0  0  0  0
   -5.9796    3.6712  -21.1226 H   0  0  0  0  0  0
   -6.4675    4.0037  -23.5091 H   0  0  0  0  0  0
    5.6179    3.9906  -21.2849 H   0  0  0  0  0  0
    6.8763    3.0060  -20.4159 H   0  0  0  0  0  0
    6.3275    2.7150  -24.6604 H   0  0  0  0  0  0
    6.0833    4.2460  -23.7593 H   0  0  0  0  0  0
   -5.6765    4.0776  -25.8762 H   0  0  0  0  0  0
    2.2385    1.7718  -24.6821 H   0  0  0  0  0  0
    3.1157    1.3435  -22.7939 H   0  0  0  0  0  0
    4.3144    0.7047  -23.9826 H   0  0  0  0  0  0
    4.8700    0.0218  -21.6387 H   0  0  0  0  0  0
    7.7578    2.8293  -22.5885 H   0  0  0  0  0  0
    4.1018    2.5236  -20.7805 H   0  0  0  0  0  0
    5.3877    1.5123  -19.9097 H   0  0  0  0  0  0
   -1.5411    3.5789  -26.8099 H   0  0  0  0  0  0
    0.3934    2.1519  -20.7378 H   0  0  0  0  0  0
    7.1492    0.5983  -21.7894 H   0  0  0  0  0  0
   -2.9984    3.7179  -28.2217 H   0  0  0  0  0  0
    8.3030   10.7620  -23.2170 O   0  0  0  0  0  0
    3.1540    8.3500  -22.6880 O   0  0  0  0  0  0
    6.3430    9.0490  -22.0510 N   0  0  0  0  0  0
    4.7590    7.3080  -21.4480 N   0  0  0  0  0  0
    5.3750    8.5660  -21.0050 C   0  0  0  0  0  0
    5.9530   10.3820  -22.6320 C   0  0  0  0  0  0
    7.7740    9.0130  -21.5810 C   0  0  0  0  0  0
    8.7000    9.4670  -22.7260 C   0  0  0  0  0  0
    6.9580   10.7680  -23.7350 C   0  0  0  0  0  0
    3.7010    7.3330  -22.2760 C   0  0  0  0  0  0
    5.1278    6.4334  -21.1332 H   0  0  0  0  0  0
    4.5928    9.3242  -20.8520 H   0  0  0  0  0  0
    5.9117    8.3981  -20.0596 H   0  0  0  0  0  0
    5.9670   11.1451  -21.8399 H   0  0  0  0  0  0
    4.9438   10.3120  -23.0641 H   0  0  0  0  0  0
    8.0360    7.9871  -21.2830 H   0  0  0  0  0  0
    7.8940    9.6892  -20.7217 H   0  0  0  0  0  0
    9.7366    9.5160  -22.3612 H   0  0  0  0  0  0
    8.6560    8.7350  -23.5459 H   0  0  0  0  0  0
    6.8820   10.0528  -24.5673 H   0  0  0  0  0  0
    6.7161   11.7716  -24.1148 H   0  0  0  0  0  0
  1  2  2  0  0  0
  1  3  1  0  0  0
  1 34  1  0  0  0
  2  6  1  0  0  0
  2 35  1  0  0  0
  3  5  2  0  0  0
  3 27  1  0  0  0
  4  5  1  0  0  0
  4  6  2  0  0  0
  4 18  1  0  0  0
  5 24  1  0  0  0
  6 10  1  0  0  0
  7 10  2  0  0  0
  7 23  1  0  0  0
  7 33  1  0  0  0
  8 21  1  0  0  0
  8 22  1  0  0  0
  8 36  1  0  0  0
  8 37  1  0  0  0
  9 21  1  0  0  0
  9 31  1  0  0  0
  9 38  1  0  0  0
  9 39  1  0  0  0
 10 40  1  0  0  0
 11 12  1  0  0  0
 11 14  2  0  0  0
 11 15  1  0  0  0
 12 17  1  0  0  0
 12 28  2  0  0  0
 13 28  1  0  0  0
 13 29  2  0  0  0
 13 61  1  0  0  0
 14 29  1  0  0  0
 14 31  1  0  0  0
 15 30  2  0  0  0
 15 41  1  0  0  0
 16 17  2  0  0  0
 16 18  1  0  0  0
 16 30  1  0  0  0
 17 26  1  0  0  0
 18 23  2  0  0  0
 19 20  1  0  0  0
 19 31  1  0  0  0
 19 42  1  0  0  0
 19 43  1  0  0  0
 20 22  1  0  0  0
 20 32  1  0  0  0
 20 44  1  0  0  0
 21 32  1  0  0  0
 21 45  1  0  0  0
 22 46  1  0  0  0
 22 47  1  0  0  0
 23 48  1  0  0  0
 24 25  3  0  0  0
 25 49  1  0  0  0
 32 50  1  0  0  0
 33 51  1  0  0  0
 52 59  1  0  0  0
 52 60  1  0  0  0
 53 61  2  0  0  0
 54 56  1  0  0  0
 54 57  1  0  0  0
 54 58  1  0  0  0
 55 56  1  0  0  0
 55 61  1  0  0  0
 55 62  1  0  0  0
 56 63  1  0  0  0
 56 64  1  0  0  0
 57 60  1  0  0  0
 57 65  1  0  0  0
 57 66  1  0  0  0
 58 59  1  0  0  0
 58 67  1  0  0  0
 58 68  1  0  0  0
 59 69  1  0  0  0
 59 70  1  0  0  0
 60 71  1  0  0  0
 60 72  1  0  0  0
M  END
> <s_m_entry_id>
753

> <s_m_entry_name>
000000595.1

> <s_m_Source_Path>
/Users/zaksoul/Documents/3r_UNI/2nd_SEMESTER/BSC/FRAG_RECON/RESULTS/2

> <s_m_Source_File>
000000595.mol2

> <i_m_Source_File_Index>
1

$$$$
No_0_617
                    3D
 Schrodinger Suite 2022-4.
 67 72  0  0  1  0            999 V2000
   -5.1080    3.6600  -21.8720 C   0  0  0  0  0  0
   -5.3780    3.8580  -23.2060 C   0  0  0  0  0  0
   -3.8700    3.4030  -21.5360 C   0  0  0  0  0  0
   -2.9840    3.5420  -23.7030 C   0  0  0  0  0  0
   -2.8200    3.2880  -22.2840 C   0  0  0  0  0  0
   -4.3320    3.8100  -24.2190 C   0  0  0  0  0  0
   -3.5820    3.8440  -26.4190 C   0  0  0  0  0  0
    6.1590    3.0610  -21.1820 C   0  0  0  0  0  0
    6.0140    3.2200  -23.7310 C   0  0  0  0  0  0
   -4.5860    3.9460  -25.5530 C   0  0  0  0  0  0
    2.2300    3.7740  -23.7350 C   0  0  0  0  0  0
    1.4120    4.8820  -23.4270 C   0  0  0  0  0  0
    3.2130    6.0700  -22.7440 C   0  0  0  0  0  0
    3.6310    3.9600  -23.4240 C   0  0  0  0  0  0
    1.6800    2.6620  -24.4020 C   0  0  0  0  0  0
   -0.4450    3.4780  -24.2810 C   0  0  0  0  0  0
    0.0850    4.6930  -23.6750 C   0  0  0  0  0  0
   -1.8990    3.4880  -24.6320 C   0  0  0  0  0  0
    4.2340    1.4600  -23.1500 C   0  0  0  0  0  0
    5.1700    1.0950  -22.0070 C   0  0  2  0  0  0
    6.7640    2.6370  -22.5380 C   0  0  2  0  0  0
    5.1560    2.0890  -20.8340 C   0  0  0  0  0  0
   -2.2280    3.6580  -26.0580 C   0  0  0  0  0  0
   -1.4750    2.8690  -21.6920 C   0  0  0  0  0  0
   -0.4430    2.5160  -21.1910 C   0  0  0  0  0  0
   -0.7540    5.7380  -23.3220 F   0  0  0  0  0  0
   -3.6560    3.1520  -20.1560 F   0  0  0  0  0  0
    1.8920    6.0370  -22.8890 N   0  0  0  0  0  0
    4.1080    5.1080  -22.9720 N   0  0  0  0  0  0
    0.3730    2.5760  -24.7040 N   0  0  0  0  0  0
    4.5470    2.9120  -23.6100 N   0  0  0  0  0  0
    6.5750    1.1630  -22.4930 N   0  0  1  0  0  0
   -3.7590    3.8680  -27.8080 O   0  0  0  0  0  0
   -5.9081    3.7202  -21.1432 H   0  0  0  0  0  0
   -6.3931    4.0568  -23.5303 H   0  0  0  0  0  0
    5.6887    4.0500  -21.2849 H   0  0  0  0  0  0
    6.9473    3.0650  -20.4149 H   0  0  0  0  0  0
    6.4054    2.7801  -24.6601 H   0  0  0  0  0  0
    6.1583    4.3102  -23.7572 H   0  0  0  0  0  0
   -5.5972    4.1346  -25.8951 H   0  0  0  0  0  0
    2.3172    1.8341  -24.6910 H   0  0  0  0  0  0
    3.1921    1.4025  -22.8020 H   0  0  0  0  0  0
    4.3925    0.7664  -23.9889 H   0  0  0  0  0  0
    4.9450    0.0810  -21.6448 H   0  0  0  0  0  0
    7.8329    2.8924  -22.5864 H   0  0  0  0  0  0
    4.1737    2.5816  -20.7845 H   0  0  0  0  0  0
    5.4577    1.5693  -19.9127 H   0  0  0  0  0  0
   -1.4601    3.6409  -26.8229 H   0  0  0  0  0  0
    0.4650    2.2060  -20.7500 H   0  0  0  0  0  0
    7.2239    0.6595  -21.7917 H   0  0  0  0  0  0
   -2.9155    3.7810  -28.2362 H   0  0  0  0  0  0
    3.2270    8.4120  -22.6830 O   0  0  0  0  0  0
    6.3660    9.1800  -21.9680 N   0  0  0  0  0  0
    4.8250    7.3640  -21.4390 N   0  0  0  0  0  0
    5.4160    8.6140  -20.9450 C   0  0  0  0  0  0
    5.8850   10.4780  -22.5520 C   0  0  0  0  0  0
    7.7750    9.2790  -21.4580 C   0  0  0  0  0  0
    3.7710    7.3920  -22.2730 C   0  0  0  0  0  0
    5.2109    6.4872  -21.1521 H   0  0  0  0  0  0
    4.6169    9.3430  -20.7450 H   0  0  0  0  0  0
    5.9603    8.4179  -20.0094 H   0  0  0  0  0  0
    6.6154   10.8422  -23.2894 H   0  0  0  0  0  0
    4.9141   10.3220  -23.0450 H   0  0  0  0  0  0
    5.7720   11.2222  -21.7498 H   0  0  0  0  0  0
    8.4217    9.6968  -22.2436 H   0  0  0  0  0  0
    7.8020    9.9353  -20.5756 H   0  0  0  0  0  0
    8.1370    8.2779  -21.1810 H   0  0  0  0  0  0
  1  2  2  0  0  0
  1  3  1  0  0  0
  1 34  1  0  0  0
  2  6  1  0  0  0
  2 35  1  0  0  0
  3  5  2  0  0  0
  3 27  1  0  0  0
  4  5  1  0  0  0
  4  6  2  0  0  0
  4 18  1  0  0  0
  5 24  1  0  0  0
  6 10  1  0  0  0
  7 10  2  0  0  0
  7 23  1  0  0  0
  7 33  1  0  0  0
  8 21  1  0  0  0
  8 22  1  0  0  0
  8 36  1  0  0  0
  8 37  1  0  0  0
  9 21  1  0  0  0
  9 31  1  0  0  0
  9 38  1  0  0  0
  9 39  1  0  0  0
 10 40  1  0  0  0
 11 12  1  0  0  0
 11 14  2  0  0  0
 11 15  1  0  0  0
 12 17  1  0  0  0
 12 28  2  0  0  0
 13 28  1  0  0  0
 13 29  2  0  0  0
 13 58  1  0  0  0
 14 29  1  0  0  0
 14 31  1  0  0  0
 15 30  2  0  0  0
 15 41  1  0  0  0
 16 17  2  0  0  0
 16 18  1  0  0  0
 16 30  1  0  0  0
 17 26  1  0  0  0
 18 23  2  0  0  0
 19 20  1  0  0  0
 19 31  1  0  0  0
 19 42  1  0  0  0
 19 43  1  0  0  0
 20 22  1  0  0  0
 20 32  1  0  0  0
 20 44  1  0  0  0
 21 32  1  0  0  0
 21 45  1  0  0  0
 22 46  1  0  0  0
 22 47  1  0  0  0
 23 48  1  0  0  0
 24 25  3  0  0  0
 25 49  1  0  0  0
 32 50  1  0  0  0
 33 51  1  0  0  0
 52 58  2  0  0  0
 53 55  1  0  0  0
 53 56  1  0  0  0
 53 57  1  0  0  0
 54 55  1  0  0  0
 54 58  1  0  0  0
 54 59  1  0  0  0
 55 60  1  0  0  0
 55 61  1  0  0  0
 56 62  1  0  0  0
 56 63  1  0  0  0
 56 64  1  0  0  0
 57 65  1  0  0  0
 57 66  1  0  0  0
 57 67  1  0  0  0
M  END
> <s_m_entry_id>
754

> <s_m_entry_name>
000000596.1

> <s_m_Source_Path>
/Users/zaksoul/Documents/3r_UNI/2nd_SEMESTER/BSC/FRAG_RECON/RESULTS/2

> <s_m_Source_File>
000000596.mol2

> <i_m_Source_File_Index>
1

$$$$
No_0_618
                    3D
 Schrodinger Suite 2022-4.
 67 72  0  0  1  0            999 V2000
   -5.0240    3.6240  -22.1450 C   0  0  0  0  0  0
   -5.2780    3.8010  -23.4840 C   0  0  0  0  0  0
   -3.7940    3.3480  -21.7940 C   0  0  0  0  0  0
   -2.8870    3.4290  -23.9550 C   0  0  0  0  0  0
   -2.7400    3.1990  -22.5310 C   0  0  0  0  0  0
   -4.2260    3.7130  -24.4880 C   0  0  0  0  0  0
   -3.4570    3.6920  -26.6810 C   0  0  0  0  0  0
    6.2230    2.8160  -21.3470 C   0  0  0  0  0  0
    6.1020    2.9290  -23.8990 C   0  0  0  0  0  0
   -4.4660    3.8300  -25.8260 C   0  0  0  0  0  0
    2.3300    3.5580  -23.9460 C   0  0  0  0  0  0
    1.5310    4.6870  -23.6660 C   0  0  0  0  0  0
    3.3510    5.8520  -22.9900 C   0  0  0  0  0  0
    3.7320    3.7220  -23.6270 C   0  0  0  0  0  0
    1.7640    2.4440  -24.5970 C   0  0  0  0  0  0
   -0.3460    3.3040  -24.5100 C   0  0  0  0  0  0
    0.2030    4.5200  -23.9230 C   0  0  0  0  0  0
   -1.7970    3.3370  -24.8730 C   0  0  0  0  0  0
    4.2830    1.2160  -23.3010 C   0  0  0  0  0  0
    5.2020    0.8550  -22.1440 C   0  0  2  0  0  0
    6.8300    2.3540  -22.6900 C   0  0  2  0  0  0
    5.1980    1.8710  -20.9890 C   0  0  0  0  0  0
   -2.1100    3.4850  -26.3050 C   0  0  0  0  0  0
   -1.4090    2.7640  -21.9190 C   0  0  0  0  0  0
   -0.3890    2.4010  -21.4020 C   0  0  0  0  0  0
   -0.6180    5.5870  -23.5960 F   0  0  0  0  0  0
   -3.5970    3.1190  -20.4070 F   0  0  0  0  0  0
    2.0300    5.8420  -23.1460 N   0  0  0  0  0  0
    4.2280    4.8680  -23.1930 N   0  0  0  0  0  0
    0.4580    2.3790  -24.9090 N   0  0  0  0  0  0
    4.6290    2.6530  -23.7860 N   0  0  0  0  0  0
    6.6120    0.8860  -22.6190 N   0  0  1  0  0  0
   -3.6220    3.6930  -28.0720 O   0  0  0  0  0  0
   -5.8289    3.7133  -21.4244 H   0  0  0  0  0  0
   -6.2861    4.0137  -23.8210 H   0  0  0  0  0  0
    5.7738    3.8123  -21.4722 H   0  0  0  0  0  0
    7.0043    2.8190  -20.5727 H   0  0  0  0  0  0
    6.4926    2.4647  -24.8165 H   0  0  0  0  0  0
    6.2684    4.0154  -23.9444 H   0  0  0  0  0  0
   -5.4704    4.0317  -26.1802 H   0  0  0  0  0  0
    2.3863    1.5979  -24.8650 H   0  0  0  0  0  0
    3.2373    1.1857  -22.9612 H   0  0  0  0  0  0
    4.4344    0.5042  -24.1259 H   0  0  0  0  0  0
    4.9539   -0.1473  -21.7648 H   0  0  0  0  0  0
    7.9040    2.5880  -22.7334 H   0  0  0  0  0  0
    4.2248    2.3828  -20.9577 H   0  0  0  0  0  0
    5.4827    1.3622  -20.0562 H   0  0  0  0  0  0
   -1.3362    3.4398  -27.0628 H   0  0  0  0  0  0
    0.5091    2.0810  -20.9480 H   0  0  0  0  0  0
    7.2446    0.3838  -21.9020 H   0  0  0  0  0  0
   -2.7770    3.5812  -28.4915 H   0  0  0  0  0  0
    3.2840    8.1850  -22.7840 O   0  0  0  0  0  0
    6.4670    9.0650  -22.5730 N   0  0  0  0  0  0
    5.1150    7.1490  -21.9030 N   0  0  0  0  0  0
    5.7340    8.3970  -21.4400 C   0  0  0  0  0  0
    5.8420   10.3690  -22.9810 C   0  0  0  0  0  0
    7.9400    9.2050  -22.3090 C   0  0  0  0  0  0
    3.9300    7.1720  -22.5390 C   0  0  0  0  0  0
    5.5787    6.2776  -21.7431 H   0  0  0  0  0  0
    4.9551    9.0739  -21.0591 H   0  0  0  0  0  0
    6.4400    8.1760  -20.6260 H   0  0  0  0  0  0
    6.4178   10.8088  -23.8087 H   0  0  0  0  0  0
    4.8069   10.1922  -23.3087 H   0  0  0  0  0  0
    5.8430   11.0604  -22.1255 H   0  0  0  0  0  0
    8.4222    9.6972  -23.1664 H   0  0  0  0  0  0
    8.0950    9.8109  -21.4041 H   0  0  0  0  0  0
    8.3822    8.2086  -22.1619 H   0  0  0  0  0  0
  1  2  2  0  0  0
  1  3  1  0  0  0
  1 34  1  0  0  0
  2  6  1  0  0  0
  2 35  1  0  0  0
  3  5  2  0  0  0
  3 27  1  0  0  0
  4  5  1  0  0  0
  4  6  2  0  0  0
  4 18  1  0  0  0
  5 24  1  0  0  0
  6 10  1  0  0  0
  7 10  2  0  0  0
  7 23  1  0  0  0
  7 33  1  0  0  0
  8 21  1  0  0  0
  8 22  1  0  0  0
  8 36  1  0  0  0
  8 37  1  0  0  0
  9 21  1  0  0  0
  9 31  1  0  0  0
  9 38  1  0  0  0
  9 39  1  0  0  0
 10 40  1  0  0  0
 11 12  1  0  0  0
 11 14  2  0  0  0
 11 15  1  0  0  0
 12 17  1  0  0  0
 12 28  2  0  0  0
 13 28  1  0  0  0
 13 29  2  0  0  0
 13 58  1  0  0  0
 14 29  1  0  0  0
 14 31  1  0  0  0
 15 30  2  0  0  0
 15 41  1  0  0  0
 16 17  2  0  0  0
 16 18  1  0  0  0
 16 30  1  0  0  0
 17 26  1  0  0  0
 18 23  2  0  0  0
 19 20  1  0  0  0
 19 31  1  0  0  0
 19 42  1  0  0  0
 19 43  1  0  0  0
 20 22  1  0  0  0
 20 32  1  0  0  0
 20 44  1  0  0  0
 21 32  1  0  0  0
 21 45  1  0  0  0
 22 46  1  0  0  0
 22 47  1  0  0  0
 23 48  1  0  0  0
 24 25  3  0  0  0
 25 49  1  0  0  0
 32 50  1  0  0  0
 33 51  1  0  0  0
 52 58  2  0  0  0
 53 55  1  0  0  0
 53 56  1  0  0  0
 53 57  1  0  0  0
 54 55  1  0  0  0
 54 58  1  0  0  0
 54 59  1  0  0  0
 55 60  1  0  0  0
 55 61  1  0  0  0
 56 62  1  0  0  0
 56 63  1  0  0  0
 56 64  1  0  0  0
 57 65  1  0  0  0
 57 66  1  0  0  0
 57 67  1  0  0  0
M  END
> <s_m_entry_id>
755

> <s_m_entry_name>
000000597.1

> <s_m_Source_Path>
/Users/zaksoul/Documents/3r_UNI/2nd_SEMESTER/BSC/FRAG_RECON/RESULTS/2

> <s_m_Source_File>
000000597.mol2

> <i_m_Source_File_Index>
1

$$$$
No_0_619
                    3D
 Schrodinger Suite 2022-4.
 67 72  0  0  1  0            999 V2000
   -4.9870    3.7590  -21.9340 C   0  0  0  0  0  0
   -5.2630    3.9260  -23.2700 C   0  0  0  0  0  0
   -3.7540    3.4730  -21.6010 C   0  0  0  0  0  0
   -2.8840    3.5230  -23.7790 C   0  0  0  0  0  0
   -2.7150    3.3050  -22.3550 C   0  0  0  0  0  0
   -4.2290    3.8170  -24.2910 C   0  0  0  0  0  0
   -3.4990    3.7660  -26.4970 C   0  0  0  0  0  0
    6.2630    2.8350  -21.3240 C   0  0  0  0  0  0
    6.0990    2.9250  -23.8740 C   0  0  0  0  0  0
   -4.4920    3.9230  -25.6260 C   0  0  0  0  0  0
    2.3330    3.5940  -23.8620 C   0  0  0  0  0  0
    1.5520    4.7350  -23.5790 C   0  0  0  0  0  0
    3.3950    5.8870  -22.9460 C   0  0  0  0  0  0
    3.7430    3.7470  -23.5690 C   0  0  0  0  0  0
    1.7440    2.4810  -24.4920 C   0  0  0  0  0  0
   -0.3550    3.3650  -24.3760 C   0  0  0  0  0  0
    0.2180    4.5810  -23.8110 C   0  0  0  0  0  0
   -1.8110    3.4100  -24.7150 C   0  0  0  0  0  0
    4.2720    1.2380  -23.2280 C   0  0  0  0  0  0
    5.2070    0.8780  -22.0840 C   0  0  2  0  0  0
    6.8420    2.3540  -22.6720 C   0  0  2  0  0  0
    5.2350    1.9040  -20.9390 C   0  0  0  0  0  0
   -2.1480    3.5480  -26.1420 C   0  0  0  0  0  0
   -1.3770    2.8620  -21.7620 C   0  0  0  0  0  0
   -0.3530    2.4920  -21.2600 C   0  0  0  0  0  0
   -0.5860    5.6600  -23.4810 F   0  0  0  0  0  0
   -3.5350    3.2550  -20.2160 F   0  0  0  0  0  0
    2.0720    5.8900  -23.0790 N   0  0  0  0  0  0
    4.2580    4.8910  -23.1550 N   0  0  0  0  0  0
    0.4320    2.4270  -24.7810 N   0  0  0  0  0  0
    4.6250    2.6660  -23.7330 N   0  0  0  0  0  0
    6.6090    0.8890  -22.5830 N   0  0  1  0  0  0
   -3.6880    3.7550  -27.8850 O   0  0  0  0  0  0
   -5.7780    3.8634  -21.2002 H   0  0  0  0  0  0
   -6.2745    4.1468  -23.5911 H   0  0  0  0  0  0
    5.8221    3.8347  -21.4511 H   0  0  0  0  0  0
    7.0578    2.8370  -20.5635 H   0  0  0  0  0  0
    6.4673    2.4478  -24.7941 H   0  0  0  0  0  0
    6.2756    4.0091  -23.9336 H   0  0  0  0  0  0
   -5.4999    4.1328  -25.9653 H   0  0  0  0  0  0
    2.3532    1.6260  -24.7620 H   0  0  0  0  0  0
    3.2320    1.2229  -22.8699 H   0  0  0  0  0  0
    4.4011    0.5166  -24.0483 H   0  0  0  0  0  0
    4.9548   -0.1178  -21.6905 H   0  0  0  0  0  0
    7.9176    2.5750  -22.7366 H   0  0  0  0  0  0
    4.2686    2.4276  -20.8956 H   0  0  0  0  0  0
    5.5298    1.4012  -20.0061 H   0  0  0  0  0  0
   -1.3883    3.4868  -26.9128 H   0  0  0  0  0  0
    0.5495    2.1672  -20.8183 H   0  0  0  0  0  0
    7.2484    0.3854  -21.8731 H   0  0  0  0  0  0
   -2.8515    3.6303  -28.3176 H   0  0  0  0  0  0
    3.2730    8.1930  -22.5530 O   0  0  0  0  0  0
    6.3930    9.2370  -22.9060 N   0  0  0  0  0  0
    5.2850    7.2060  -22.1320 N   0  0  0  0  0  0
    5.9310    8.4540  -21.7060 C   0  0  0  0  0  0
    5.6440   10.5270  -23.0820 C   0  0  0  0  0  0
    7.8810    9.4420  -22.9270 C   0  0  0  0  0  0
    3.9970    7.2040  -22.5190 C   0  0  0  0  0  0
    5.8081    6.3538  -22.1340 H   0  0  0  0  0  0
    5.2160    9.0580  -21.1280 H   0  0  0  0  0  0
    6.7947    8.2201  -21.0662 H   0  0  0  0  0  0
    6.0229   11.0529  -23.9708 H   0  0  0  0  0  0
    4.5726   10.3141  -23.2119 H   0  0  0  0  0  0
    5.7870   11.1589  -22.1931 H   0  0  0  0  0  0
    8.1601   10.0171  -23.8222 H   0  0  0  0  0  0
    8.1888    9.9937  -22.0265 H   0  0  0  0  0  0
    8.3860    8.4650  -22.9470 H   0  0  0  0  0  0
  1  2  2  0  0  0
  1  3  1  0  0  0
  1 34  1  0  0  0
  2  6  1  0  0  0
  2 35  1  0  0  0
  3  5  2  0  0  0
  3 27  1  0  0  0
  4  5  1  0  0  0
  4  6  2  0  0  0
  4 18  1  0  0  0
  5 24  1  0  0  0
  6 10  1  0  0  0
  7 10  2  0  0  0
  7 23  1  0  0  0
  7 33  1  0  0  0
  8 21  1  0  0  0
  8 22  1  0  0  0
  8 36  1  0  0  0
  8 37  1  0  0  0
  9 21  1  0  0  0
  9 31  1  0  0  0
  9 38  1  0  0  0
  9 39  1  0  0  0
 10 40  1  0  0  0
 11 12  1  0  0  0
 11 14  2  0  0  0
 11 15  1  0  0  0
 12 17  1  0  0  0
 12 28  2  0  0  0
 13 28  1  0  0  0
 13 29  2  0  0  0
 13 58  1  0  0  0
 14 29  1  0  0  0
 14 31  1  0  0  0
 15 30  2  0  0  0
 15 41  1  0  0  0
 16 17  2  0  0  0
 16 18  1  0  0  0
 16 30  1  0  0  0
 17 26  1  0  0  0
 18 23  2  0  0  0
 19 20  1  0  0  0
 19 31  1  0  0  0
 19 42  1  0  0  0
 19 43  1  0  0  0
 20 22  1  0  0  0
 20 32  1  0  0  0
 20 44  1  0  0  0
 21 32  1  0  0  0
 21 45  1  0  0  0
 22 46  1  0  0  0
 22 47  1  0  0  0
 23 48  1  0  0  0
 24 25  3  0  0  0
 25 49  1  0  0  0
 32 50  1  0  0  0
 33 51  1  0  0  0
 52 58  2  0  0  0
 53 55  1  0  0  0
 53 56  1  0  0  0
 53 57  1  0  0  0
 54 55  1  0  0  0
 54 58  1  0  0  0
 54 59  1  0  0  0
 55 60  1  0  0  0
 55 61  1  0  0  0
 56 62  1  0  0  0
 56 63  1  0  0  0
 56 64  1  0  0  0
 57 65  1  0  0  0
 57 66  1  0  0  0
 57 67  1  0  0  0
M  END
> <s_m_entry_id>
756

> <s_m_entry_name>
000000598.1

> <s_m_Source_Path>
/Users/zaksoul/Documents/3r_UNI/2nd_SEMESTER/BSC/FRAG_RECON/RESULTS/2

> <s_m_Source_File>
000000598.mol2

> <i_m_Source_File_Index>
1

$$$$
No_0_620
                    3D
 Schrodinger Suite 2022-4.
 70 76  0  0  1  0            999 V2000
   -5.0250    3.6220  -21.7650 C   0  0  0  0  0  0
   -5.3110    3.7920  -23.0990 C   0  0  0  0  0  0
   -3.7870    3.3460  -21.4410 C   0  0  0  0  0  0
   -2.9320    3.4120  -23.6240 C   0  0  0  0  0  0
   -2.7510    3.1900  -22.2020 C   0  0  0  0  0  0
   -4.2820    3.6970  -24.1260 C   0  0  0  0  0  0
   -3.5660    3.6610  -26.3370 C   0  0  0  0  0  0
    6.2360    2.7960  -21.2300 C   0  0  0  0  0  0
    6.0550    2.8950  -23.7780 C   0  0  0  0  0  0
   -4.5540    3.8060  -25.4590 C   0  0  0  0  0  0
    2.2840    3.5310  -23.7400 C   0  0  0  0  0  0
    1.4950    4.6640  -23.4470 C   0  0  0  0  0  0
    3.3320    5.8290  -22.8210 C   0  0  0  0  0  0
    3.6940    3.6950  -23.4550 C   0  0  0  0  0  0
    1.7010    2.4150  -24.3700 C   0  0  0  0  0  0
   -0.4050    3.2790  -24.2380 C   0  0  0  0  0  0
    0.1600    4.4980  -23.6710 C   0  0  0  0  0  0
   -1.8640    3.3130  -24.5670 C   0  0  0  0  0  0
    4.2470    1.1890  -23.1270 C   0  0  0  0  0  0
    5.1930    0.8330  -21.9900 C   0  0  2  0  0  0
    6.8110    2.3260  -22.5830 C   0  0  2  0  0  0
    5.2190    1.8550  -20.8420 C   0  0  0  0  0  0
   -2.2110    3.4540  -25.9920 C   0  0  0  0  0  0
   -1.4060    2.7570  -21.6190 C   0  0  0  0  0  0
   -0.3750    2.3940  -21.1250 C   0  0  0  0  0  0
   -0.6510    5.5680  -23.3310 F   0  0  0  0  0  0
   -3.5570    3.1240  -20.0580 F   0  0  0  0  0  0
    2.0080    5.8210  -22.9450 N   0  0  0  0  0  0
    4.2020    4.8420  -23.0390 N   0  0  0  0  0  0
    0.3880    2.3500  -24.6510 N   0  0  0  0  0  0
    4.5850    2.6230  -23.6280 N   0  0  0  0  0  0
    6.5920    0.8580  -22.4990 N   0  0  1  0  0  0
   -3.7640    3.6540  -27.7230 O   0  0  0  0  0  0
   -5.8118    3.7163  -21.0254 H   0  0  0  0  0  0
   -6.3266    4.0050  -23.4124 H   0  0  0  0  0  0
    5.7861    3.7927  -21.3490 H   0  0  0  0  0  0
    7.0357    2.8021  -20.4747 H   0  0  0  0  0  0
    6.4222    2.4248  -24.7022 H   0  0  0  0  0  0
    6.2225    3.9807  -23.8345 H   0  0  0  0  0  0
   -5.5663    4.0077  -25.7901 H   0  0  0  0  0  0
    2.3151    1.5661  -24.6480 H   0  0  0  0  0  0
    3.2094    1.1638  -22.7626 H   0  0  0  0  0  0
    4.3782    0.4726  -23.9514 H   0  0  0  0  0  0
    4.9529   -0.1669  -21.5995 H   0  0  0  0  0  0
    7.8841    2.5572  -22.6537 H   0  0  0  0  0  0
    4.2482    2.3697  -20.7905 H   0  0  0  0  0  0
    5.5237    1.3515  -19.9127 H   0  0  0  0  0  0
   -1.4554    3.4028  -26.7676 H   0  0  0  0  0  0
    0.5329    2.0750  -20.6901 H   0  0  0  0  0  0
    7.2408    0.3588  -21.7946 H   0  0  0  0  0  0
   -2.9294    3.5393  -28.1621 H   0  0  0  0  0  0
    3.1430    8.0760  -22.2010 O   0  0  0  0  0  0
    9.7810    8.9960  -23.5480 N   0  0  0  0  0  0
    5.2630    7.2190  -22.2570 N   0  0  0  0  0  0
    8.8240   10.1730  -25.3600 N   0  0  0  0  0  0
    7.2910    8.6470  -22.4380 C   0  0  0  0  0  0
    8.6860    9.4960  -24.1790 C   0  0  0  0  0  0
    5.9170    8.4600  -21.8080 C   0  0  0  0  0  0
    7.4240    9.3180  -23.6170 C   0  0  0  0  0  0
    8.4350    8.1360  -21.8100 C   0  0  0  0  0  0
    9.6540    8.3150  -22.3670 C   0  0  0  0  0  0
    3.9240    7.1500  -22.3920 C   0  0  0  0  0  0
    5.8281    6.4199  -22.4620 H   0  0  0  0  0  0
    7.9927   10.5501  -25.8372 H   0  0  0  0  0  0
    9.7589   10.3040  -25.7720 H   0  0  0  0  0  0
    6.0160    8.4460  -20.7126 H   0  0  0  0  0  0
    5.2799    9.3211  -22.0580 H   0  0  0  0  0  0
    6.5473    9.7139  -24.1168 H   0  0  0  0  0  0
    8.3450    7.5957  -20.8745 H   0  0  0  0  0  0
   10.5335    7.9152  -21.8753 H   0  0  0  0  0  0
  1  2  2  0  0  0
  1  3  1  0  0  0
  1 34  1  0  0  0
  2  6  1  0  0  0
  2 35  1  0  0  0
  3  5  2  0  0  0
  3 27  1  0  0  0
  4  5  1  0  0  0
  4  6  2  0  0  0
  4 18  1  0  0  0
  5 24  1  0  0  0
  6 10  1  0  0  0
  7 10  2  0  0  0
  7 23  1  0  0  0
  7 33  1  0  0  0
  8 21  1  0  0  0
  8 22  1  0  0  0
  8 36  1  0  0  0
  8 37  1  0  0  0
  9 21  1  0  0  0
  9 31  1  0  0  0
  9 38  1  0  0  0
  9 39  1  0  0  0
 10 40  1  0  0  0
 11 12  1  0  0  0
 11 14  2  0  0  0
 11 15  1  0  0  0
 12 17  1  0  0  0
 12 28  2  0  0  0
 13 28  1  0  0  0
 13 29  2  0  0  0
 13 62  1  0  0  0
 14 29  1  0  0  0
 14 31  1  0  0  0
 15 30  2  0  0  0
 15 41  1  0  0  0
 16 17  2  0  0  0
 16 18  1  0  0  0
 16 30  1  0  0  0
 17 26  1  0  0  0
 18 23  2  0  0  0
 19 20  1  0  0  0
 19 31  1  0  0  0
 19 42  1  0  0  0
 19 43  1  0  0  0
 20 22  1  0  0  0
 20 32  1  0  0  0
 20 44  1  0  0  0
 21 32  1  0  0  0
 21 45  1  0  0  0
 22 46  1  0  0  0
 22 47  1  0  0  0
 23 48  1  0  0  0
 24 25  3  0  0  0
 25 49  1  0  0  0
 32 50  1  0  0  0
 33 51  1  0  0  0
 52 62  2  0  0  0
 53 57  2  0  0  0
 53 61  1  0  0  0
 54 58  1  0  0  0
 54 62  1  0  0  0
 54 63  1  0  0  0
 55 57  1  0  0  0
 55 64  1  0  0  0
 55 65  1  0  0  0
 56 58  1  0  0  0
 56 59  2  0  0  0
 56 60  1  0  0  0
 57 59  1  0  0  0
 58 66  1  0  0  0
 58 67  1  0  0  0
 59 68  1  0  0  0
 60 61  2  0  0  0
 60 69  1  0  0  0
 61 70  1  0  0  0
M  END
> <s_m_entry_id>
757

> <s_m_entry_name>
000000599.1

> <s_m_Source_Path>
/Users/zaksoul/Documents/3r_UNI/2nd_SEMESTER/BSC/FRAG_RECON/RESULTS/2

> <s_m_Source_File>
000000599.mol2

> <i_m_Source_File_Index>
1

$$$$
No_0_621
                    3D
 Schrodinger Suite 2022-4.
 70 76  0  0  1  0            999 V2000
   -5.2060    3.7010  -21.7400 C   0  0  0  0  0  0
   -5.4850    3.8560  -23.0770 C   0  0  0  0  0  0
   -3.9710    3.4230  -21.4070 C   0  0  0  0  0  0
   -3.1060    3.4580  -23.5860 C   0  0  0  0  0  0
   -2.9330    3.2520  -22.1610 C   0  0  0  0  0  0
   -4.4520    3.7430  -24.0980 C   0  0  0  0  0  0
   -3.7260    3.6750  -26.3050 C   0  0  0  0  0  0
    6.0480    2.8240  -21.1400 C   0  0  0  0  0  0
    5.8790    2.8920  -23.6910 C   0  0  0  0  0  0
   -4.7170    3.8360  -25.4340 C   0  0  0  0  0  0
    2.1120    3.5480  -23.6780 C   0  0  0  0  0  0
    1.3260    4.6880  -23.4040 C   0  0  0  0  0  0
    3.1670    5.8520  -22.7830 C   0  0  0  0  0  0
    3.5210    3.7080  -23.3890 C   0  0  0  0  0  0
    1.5250    2.4270  -24.2980 C   0  0  0  0  0  0
   -0.5760    3.3040  -24.1860 C   0  0  0  0  0  0
   -0.0080    4.5260  -23.6320 C   0  0  0  0  0  0
   -2.0330    3.3410  -24.5230 C   0  0  0  0  0  0
    4.0600    1.2040  -23.0270 C   0  0  0  0  0  0
    4.9980    0.8560  -21.8810 C   0  0  2  0  0  0
    6.6260    2.3340  -22.4850 C   0  0  2  0  0  0
    5.0240    1.8930  -20.7460 C   0  0  0  0  0  0
   -2.3730    3.4660  -25.9510 C   0  0  0  0  0  0
   -1.5930    2.8190  -21.5660 C   0  0  0  0  0  0
   -0.5660    2.4570  -21.0630 C   0  0  0  0  0  0
   -0.8150    5.6050  -23.3100 F   0  0  0  0  0  0
   -3.7500    3.2170  -20.0210 F   0  0  0  0  0  0
    1.8430    5.8480  -22.9140 N   0  0  0  0  0  0
    4.0320    4.8580  -22.9850 N   0  0  0  0  0  0
    0.2130    2.3660  -24.5840 N   0  0  0  0  0  0
    4.4070    2.6290  -23.5440 N   0  0  0  0  0  0
    6.3990    0.8680  -22.3830 N   0  0  1  0  0  0
   -3.9160    3.6530  -27.6930 O   0  0  0  0  0  0
   -5.9967    3.8094  -21.0065 H   0  0  0  0  0  0
   -6.4975    4.0707  -23.3991 H   0  0  0  0  0  0
    5.6038    3.8213  -21.2743 H   0  0  0  0  0  0
    6.8442    2.8351  -20.3811 H   0  0  0  0  0  0
    6.2484    2.4086  -24.6074 H   0  0  0  0  0  0
    6.0526    3.9760  -23.7596 H   0  0  0  0  0  0
   -5.7263    4.0397  -25.7731 H   0  0  0  0  0  0
    2.1371    1.5721  -24.5619 H   0  0  0  0  0  0
    3.0208    1.1879  -22.6668 H   0  0  0  0  0  0
    4.1912    0.4764  -23.8414 H   0  0  0  0  0  0
    4.7496   -0.1374  -21.4792 H   0  0  0  0  0  0
    7.7006    2.5590  -22.5526 H   0  0  0  0  0  0
    4.0553    2.4127  -20.7056 H   0  0  0  0  0  0
    5.3216    1.3997  -19.8089 H   0  0  0  0  0  0
   -1.6144    3.4008  -26.7226 H   0  0  0  0  0  0
    0.3379    2.1390  -20.6191 H   0  0  0  0  0  0
    7.0418    0.3738  -21.6696 H   0  0  0  0  0  0
   -3.0796    3.5273  -28.1256 H   0  0  0  0  0  0
    3.2380    8.1890  -22.8140 O   0  0  0  0  0  0
    9.6690    8.0140  -20.5040 N   0  0  0  0  0  0
    4.8320    7.1470  -21.5470 N   0  0  0  0  0  0
   10.0480    8.7020  -22.7330 N   0  0  0  0  0  0
    6.9560    8.2520  -20.8750 C   0  0  0  0  0  0
    9.1860    8.4150  -21.7100 C   0  0  0  0  0  0
    5.4520    8.3930  -21.0660 C   0  0  0  0  0  0
    7.8110    8.5350  -21.8980 C   0  0  0  0  0  0
    7.4790    7.8350  -19.6430 C   0  0  0  0  0  0
    8.8160    7.7220  -19.4740 C   0  0  0  0  0  0
    3.7640    7.1750  -22.3680 C   0  0  0  0  0  0
    5.2150    6.2710  -21.2540 H   0  0  0  0  0  0
    9.6800    9.0050  -23.6460 H   0  0  0  0  0  0
   11.0643    8.6150  -22.5900 H   0  0  0  0  0  0
    4.9882    8.6889  -20.1134 H   0  0  0  0  0  0
    5.2490    9.2030  -21.7820 H   0  0  0  0  0  0
    7.4210    8.8530  -22.8581 H   0  0  0  0  0  0
    6.8107    7.6029  -18.8217 H   0  0  0  0  0  0
    9.2110    7.3980  -18.5180 H   0  0  0  0  0  0
  1  2  2  0  0  0
  1  3  1  0  0  0
  1 34  1  0  0  0
  2  6  1  0  0  0
  2 35  1  0  0  0
  3  5  2  0  0  0
  3 27  1  0  0  0
  4  5  1  0  0  0
  4  6  2  0  0  0
  4 18  1  0  0  0
  5 24  1  0  0  0
  6 10  1  0  0  0
  7 10  2  0  0  0
  7 23  1  0  0  0
  7 33  1  0  0  0
  8 21  1  0  0  0
  8 22  1  0  0  0
  8 36  1  0  0  0
  8 37  1  0  0  0
  9 21  1  0  0  0
  9 31  1  0  0  0
  9 38  1  0  0  0
  9 39  1  0  0  0
 10 40  1  0  0  0
 11 12  1  0  0  0
 11 14  2  0  0  0
 11 15  1  0  0  0
 12 17  1  0  0  0
 12 28  2  0  0  0
 13 28  1  0  0  0
 13 29  2  0  0  0
 13 62  1  0  0  0
 14 29  1  0  0  0
 14 31  1  0  0  0
 15 30  2  0  0  0
 15 41  1  0  0  0
 16 17  2  0  0  0
 16 18  1  0  0  0
 16 30  1  0  0  0
 17 26  1  0  0  0
 18 23  2  0  0  0
 19 20  1  0  0  0
 19 31  1  0  0  0
 19 42  1  0  0  0
 19 43  1  0  0  0
 20 22  1  0  0  0
 20 32  1  0  0  0
 20 44  1  0  0  0
 21 32  1  0  0  0
 21 45  1  0  0  0
 22 46  1  0  0  0
 22 47  1  0  0  0
 23 48  1  0  0  0
 24 25  3  0  0  0
 25 49  1  0  0  0
 32 50  1  0  0  0
 33 51  1  0  0  0
 52 62  2  0  0  0
 53 57  2  0  0  0
 53 61  1  0  0  0
 54 58  1  0  0  0
 54 62  1  0  0  0
 54 63  1  0  0  0
 55 57  1  0  0  0
 55 64  1  0  0  0
 55 65  1  0  0  0
 56 58  1  0  0  0
 56 59  2  0  0  0
 56 60  1  0  0  0
 57 59  1  0  0  0
 58 66  1  0  0  0
 58 67  1  0  0  0
 59 68  1  0  0  0
 60 61  2  0  0  0
 60 69  1  0  0  0
 61 70  1  0  0  0
M  END
> <s_m_entry_id>
758

> <s_m_entry_name>
000000600.1

> <s_m_Source_Path>
/Users/zaksoul/Documents/3r_UNI/2nd_SEMESTER/BSC/FRAG_RECON/RESULTS/2

> <s_m_Source_File>
000000600.mol2

> <i_m_Source_File_Index>
1

$$$$
No_0_622
                    3D
 Schrodinger Suite 2022-4.
 70 76  0  0  1  0            999 V2000
   -5.1330    3.4920  -21.9320 C   0  0  0  0  0  0
   -5.4070    3.6720  -23.2670 C   0  0  0  0  0  0
   -3.8950    3.2270  -21.5990 C   0  0  0  0  0  0
   -3.0200    3.3240  -23.7730 C   0  0  0  0  0  0
   -2.8500    3.0900  -22.3510 C   0  0  0  0  0  0
   -4.3680    3.5980  -24.2850 C   0  0  0  0  0  0
   -3.6310    3.5920  -26.4890 C   0  0  0  0  0  0
    6.1310    2.7870  -21.2960 C   0  0  0  0  0  0
    5.9740    2.9090  -23.8450 C   0  0  0  0  0  0
   -4.6290    3.7170  -25.6190 C   0  0  0  0  0  0
    2.1960    3.5020  -23.8370 C   0  0  0  0  0  0
    1.3910    4.6230  -23.5410 C   0  0  0  0  0  0
    3.2080    5.8030  -22.8860 C   0  0  0  0  0  0
    3.6010    3.6790  -23.5370 C   0  0  0  0  0  0
    1.6310    2.3860  -24.4840 C   0  0  0  0  0  0
   -0.4850    3.2250  -24.3630 C   0  0  0  0  0  0
    0.0610    4.4440  -23.7790 C   0  0  0  0  0  0
   -1.9410    3.2460  -24.7060 C   0  0  0  0  0  0
    4.1790    1.1760  -23.2280 C   0  0  0  0  0  0
    5.1180    0.8190  -22.0860 C   0  0  2  0  0  0
    6.7250    2.3360  -22.6480 C   0  0  2  0  0  0
    5.1210    1.8310  -20.9270 C   0  0  0  0  0  0
   -2.2760    3.3970  -26.1330 C   0  0  0  0  0  0
   -1.5060    2.6660  -21.7600 C   0  0  0  0  0  0
   -0.4760    2.3100  -21.2590 C   0  0  0  0  0  0
   -0.7660    5.5020  -23.4370 F   0  0  0  0  0  0
   -3.6760    2.9940  -20.2160 F   0  0  0  0  0  0
    1.8860    5.7800  -23.0230 N   0  0  0  0  0  0
    4.0910    4.8270  -23.1050 N   0  0  0  0  0  0
    0.3210    2.3090  -24.7780 N   0  0  0  0  0  0
    4.5050    2.6180  -23.7120 N   0  0  0  0  0  0
    6.5210    0.8650  -22.5800 N   0  0  1  0  0  0
   -3.8140    3.5970  -27.8780 O   0  0  0  0  0  0
   -5.9280    3.5703  -21.1992 H   0  0  0  0  0  0
   -6.4219    3.8768  -23.5882 H   0  0  0  0  0  0
    5.6714    3.7799  -21.4101 H   0  0  0  0  0  0
    6.9238    2.7941  -20.5335 H   0  0  0  0  0  0
    6.3556    2.4517  -24.7698 H   0  0  0  0  0  0
    6.1294    3.9971  -23.8884 H   0  0  0  0  0  0
   -5.6396    3.9117  -25.9592 H   0  0  0  0  0  0
    2.2581    1.5472  -24.7639 H   0  0  0  0  0  0
    3.1384    1.1356  -22.8737 H   0  0  0  0  0  0
    4.3264    0.4693  -24.0579 H   0  0  0  0  0  0
    4.8849   -0.1869  -21.7067 H   0  0  0  0  0  0
    7.7960    2.5803  -22.7055 H   0  0  0  0  0  0
    4.1438    2.3338  -20.8796 H   0  0  0  0  0  0
    5.4229    1.3212  -20.0002 H   0  0  0  0  0  0
   -1.5129    3.3619  -26.9021 H   0  0  0  0  0  0
    0.4316    1.9971  -20.8192 H   0  0  0  0  0  0
    7.1687    0.3658  -21.8745 H   0  0  0  0  0  0
   -2.9738    3.4951  -28.3095 H   0  0  0  0  0  0
    3.1180    8.1290  -22.6720 O   0  0  0  0  0  0
    9.8580    8.2810  -21.5460 N   0  0  0  0  0  0
    4.9800    7.1100  -21.8220 N   0  0  0  0  0  0
    9.7800    9.2090  -23.7180 N   0  0  0  0  0  0
    7.1130    8.3220  -21.4120 C   0  0  0  0  0  0
    9.1390    8.7530  -22.5990 C   0  0  0  0  0  0
    5.5930    8.3530  -21.3230 C   0  0  0  0  0  0
    7.7470    8.7730  -22.5310 C   0  0  0  0  0  0
    7.8770    7.8350  -20.3430 C   0  0  0  0  0  0
    9.2270    7.8200  -20.4220 C   0  0  0  0  0  0
    3.7820    7.1260  -22.4380 C   0  0  0  0  0  0
    5.4673    6.2455  -21.6989 H   0  0  0  0  0  0
    9.2332    9.5658  -24.5146 H   0  0  0  0  0  0
   10.8089    9.1950  -23.7640 H   0  0  0  0  0  0
    5.2909    8.5150  -20.2778 H   0  0  0  0  0  0
    5.2100    9.2070  -21.9010 H   0  0  0  0  0  0
    7.1693    9.1468  -23.3686 H   0  0  0  0  0  0
    7.3858    7.4689  -19.4487 H   0  0  0  0  0  0
    9.8095    7.4407  -19.5902 H   0  0  0  0  0  0
  1  2  2  0  0  0
  1  3  1  0  0  0
  1 34  1  0  0  0
  2  6  1  0  0  0
  2 35  1  0  0  0
  3  5  2  0  0  0
  3 27  1  0  0  0
  4  5  1  0  0  0
  4  6  2  0  0  0
  4 18  1  0  0  0
  5 24  1  0  0  0
  6 10  1  0  0  0
  7 10  2  0  0  0
  7 23  1  0  0  0
  7 33  1  0  0  0
  8 21  1  0  0  0
  8 22  1  0  0  0
  8 36  1  0  0  0
  8 37  1  0  0  0
  9 21  1  0  0  0
  9 31  1  0  0  0
  9 38  1  0  0  0
  9 39  1  0  0  0
 10 40  1  0  0  0
 11 12  1  0  0  0
 11 14  2  0  0  0
 11 15  1  0  0  0
 12 17  1  0  0  0
 12 28  2  0  0  0
 13 28  1  0  0  0
 13 29  2  0  0  0
 13 62  1  0  0  0
 14 29  1  0  0  0
 14 31  1  0  0  0
 15 30  2  0  0  0
 15 41  1  0  0  0
 16 17  2  0  0  0
 16 18  1  0  0  0
 16 30  1  0  0  0
 17 26  1  0  0  0
 18 23  2  0  0  0
 19 20  1  0  0  0
 19 31  1  0  0  0
 19 42  1  0  0  0
 19 43  1  0  0  0
 20 22  1  0  0  0
 20 32  1  0  0  0
 20 44  1  0  0  0
 21 32  1  0  0  0
 21 45  1  0  0  0
 22 46  1  0  0  0
 22 47  1  0  0  0
 23 48  1  0  0  0
 24 25  3  0  0  0
 25 49  1  0  0  0
 32 50  1  0  0  0
 33 51  1  0  0  0
 52 62  2  0  0  0
 53 57  2  0  0  0
 53 61  1  0  0  0
 54 58  1  0  0  0
 54 62  1  0  0  0
 54 63  1  0  0  0
 55 57  1  0  0  0
 55 64  1  0  0  0
 55 65  1  0  0  0
 56 58  1  0  0  0
 56 59  2  0  0  0
 56 60  1  0  0  0
 57 59  1  0  0  0
 58 66  1  0  0  0
 58 67  1  0  0  0
 59 68  1  0  0  0
 60 61  2  0  0  0
 60 69  1  0  0  0
 61 70  1  0  0  0
M  END
> <s_m_entry_id>
759

> <s_m_entry_name>
000000601.1

> <s_m_Source_Path>
/Users/zaksoul/Documents/3r_UNI/2nd_SEMESTER/BSC/FRAG_RECON/RESULTS/2

> <s_m_Source_File>
000000601.mol2

> <i_m_Source_File_Index>
1

$$$$
No_0_623
                    3D
 Schrodinger Suite 2022-4.
 70 76  0  0  1  0            999 V2000
   -4.9980    3.6230  -21.6420 C   0  0  0  0  0  0
   -5.2910    3.8210  -22.9710 C   0  0  0  0  0  0
   -3.7580    3.3470  -21.3300 C   0  0  0  0  0  0
   -2.9130    3.4640  -23.5150 C   0  0  0  0  0  0
   -2.7250    3.2120  -22.0990 C   0  0  0  0  0  0
   -4.2670    3.7520  -24.0050 C   0  0  0  0  0  0
   -3.5610    3.7680  -26.2190 C   0  0  0  0  0  0
    6.2690    2.8410  -21.1750 C   0  0  0  0  0  0
    6.0760    2.9940  -23.7200 C   0  0  0  0  0  0
   -4.5450    3.8890  -25.3340 C   0  0  0  0  0  0
    2.3020    3.6100  -23.6510 C   0  0  0  0  0  0
    1.5080    4.7320  -23.3310 C   0  0  0  0  0  0
    3.3430    5.8930  -22.6880 C   0  0  0  0  0  0
    3.7130    3.7740  -23.3690 C   0  0  0  0  0  0
    1.7210    2.5050  -24.3030 C   0  0  0  0  0  0
   -0.3880    3.3560  -24.1430 C   0  0  0  0  0  0
    0.1740    4.5650  -23.5520 C   0  0  0  0  0  0
   -1.8480    3.3900  -24.4650 C   0  0  0  0  0  0
    4.2790    1.2650  -23.0980 C   0  0  0  0  0  0
    5.2320    0.8890  -21.9730 C   0  0  2  0  0  0
    6.8400    2.4020  -22.5410 C   0  0  2  0  0  0
    5.2580    1.8860  -20.8030 C   0  0  0  0  0  0
   -2.2020    3.5600  -25.8840 C   0  0  0  0  0  0
   -1.3750    2.7720  -21.5320 C   0  0  0  0  0  0
   -0.3400    2.4040  -21.0500 C   0  0  0  0  0  0
   -0.6410    5.6240  -23.1860 F   0  0  0  0  0  0
   -3.5210    3.0960  -19.9540 F   0  0  0  0  0  0
    2.0180    5.8810  -22.8060 N   0  0  0  0  0  0
    4.2160    4.9150  -22.9310 N   0  0  0  0  0  0
    0.4070    2.4400  -24.5790 N   0  0  0  0  0  0
    4.6070    2.7110  -23.5700 N   0  0  0  0  0  0
    6.6280    0.9320  -22.4870 N   0  0  1  0  0  0
   -3.7640    3.7900  -27.6050 O   0  0  0  0  0  0
   -5.7830    3.6983  -20.8982 H   0  0  0  0  0  0
   -6.3088    4.0358  -23.2761 H   0  0  0  0  0  0
    5.8136    3.8377  -21.2709 H   0  0  0  0  0  0
    7.0721    2.8339  -20.4234 H   0  0  0  0  0  0
    6.4413    2.5450  -24.6554 H   0  0  0  0  0  0
    6.2376    4.0816  -23.7533 H   0  0  0  0  0  0
   -5.5595    4.0927  -25.6571 H   0  0  0  0  0  0
    2.3384    1.6657  -24.6022 H   0  0  0  0  0  0
    3.2436    1.2267  -22.7286 H   0  0  0  0  0  0
    4.4102    0.5666  -23.9377 H   0  0  0  0  0  0
    4.9969   -0.1198  -21.6028 H   0  0  0  0  0  0
    7.9117    2.6401  -22.6106 H   0  0  0  0  0  0
    4.2848    2.3943  -20.7364 H   0  0  0  0  0  0
    5.5699    1.3641  -19.8863 H   0  0  0  0  0  0
   -1.4505    3.5289  -26.6646 H   0  0  0  0  0  0
    0.5715    2.0808  -20.6258 H   0  0  0  0  0  0
    7.2820    0.4201  -21.7966 H   0  0  0  0  0  0
   -2.9306    3.6880  -28.0494 H   0  0  0  0  0  0
    3.1870    8.1820  -22.2360 O   0  0  0  0  0  0
   10.0020    8.6740  -22.4220 N   0  0  0  0  0  0
    5.2270    7.2170  -21.8640 N   0  0  0  0  0  0
    9.4520    9.7770  -24.4380 N   0  0  0  0  0  0
    7.3400    8.5250  -21.7580 C   0  0  0  0  0  0
    9.0680    9.1860  -23.2650 C   0  0  0  0  0  0
    5.8680    8.4490  -21.3750 C   0  0  0  0  0  0
    7.7180    9.1100  -22.9290 C   0  0  0  0  0  0
    8.3220    7.9990  -20.9090 C   0  0  0  0  0  0
    9.6290    8.0780  -21.2480 C   0  0  0  0  0  0
    3.9310    7.2070  -22.2330 C   0  0  0  0  0  0
    5.7687    6.3784  -21.9210 H   0  0  0  0  0  0
    8.7428   10.1651  -25.0762 H   0  0  0  0  0  0
   10.4511    9.8340  -24.6820 H   0  0  0  0  0  0
    5.7710    8.5010  -20.2805 H   0  0  0  0  0  0
    5.3381    9.3228  -21.7819 H   0  0  0  0  0  0
    6.9692    9.5169  -23.5989 H   0  0  0  0  0  0
    8.0361    7.5262  -19.9764 H   0  0  0  0  0  0
   10.3819    7.6671  -20.5851 H   0  0  0  0  0  0
  1  2  2  0  0  0
  1  3  1  0  0  0
  1 34  1  0  0  0
  2  6  1  0  0  0
  2 35  1  0  0  0
  3  5  2  0  0  0
  3 27  1  0  0  0
  4  5  1  0  0  0
  4  6  2  0  0  0
  4 18  1  0  0  0
  5 24  1  0  0  0
  6 10  1  0  0  0
  7 10  2  0  0  0
  7 23  1  0  0  0
  7 33  1  0  0  0
  8 21  1  0  0  0
  8 22  1  0  0  0
  8 36  1  0  0  0
  8 37  1  0  0  0
  9 21  1  0  0  0
  9 31  1  0  0  0
  9 38  1  0  0  0
  9 39  1  0  0  0
 10 40  1  0  0  0
 11 12  1  0  0  0
 11 14  2  0  0  0
 11 15  1  0  0  0
 12 17  1  0  0  0
 12 28  2  0  0  0
 13 28  1  0  0  0
 13 29  2  0  0  0
 13 62  1  0  0  0
 14 29  1  0  0  0
 14 31  1  0  0  0
 15 30  2  0  0  0
 15 41  1  0  0  0
 16 17  2  0  0  0
 16 18  1  0  0  0
 16 30  1  0  0  0
 17 26  1  0  0  0
 18 23  2  0  0  0
 19 20  1  0  0  0
 19 31  1  0  0  0
 19 42  1  0  0  0
 19 43  1  0  0  0
 20 22  1  0  0  0
 20 32  1  0  0  0
 20 44  1  0  0  0
 21 32  1  0  0  0
 21 45  1  0  0  0
 22 46  1  0  0  0
 22 47  1  0  0  0
 23 48  1  0  0  0
 24 25  3  0  0  0
 25 49  1  0  0  0
 32 50  1  0  0  0
 33 51  1  0  0  0
 52 62  2  0  0  0
 53 57  2  0  0  0
 53 61  1  0  0  0
 54 58  1  0  0  0
 54 62  1  0  0  0
 54 63  1  0  0  0
 55 57  1  0  0  0
 55 64  1  0  0  0
 55 65  1  0  0  0
 56 58  1  0  0  0
 56 59  2  0  0  0
 56 60  1  0  0  0
 57 59  1  0  0  0
 58 66  1  0  0  0
 58 67  1  0  0  0
 59 68  1  0  0  0
 60 61  2  0  0  0
 60 69  1  0  0  0
 61 70  1  0  0  0
M  END
> <s_m_entry_id>
760

> <s_m_entry_name>
000000602.1

> <s_m_Source_Path>
/Users/zaksoul/Documents/3r_UNI/2nd_SEMESTER/BSC/FRAG_RECON/RESULTS/2

> <s_m_Source_File>
000000602.mol2

> <i_m_Source_File_Index>
1

$$$$
No_0_624
                    3D
 Schrodinger Suite 2022-4.
 73 79  0  0  1  0            999 V2000
   -4.9650    3.8270  -22.0760 C   0  0  0  0  0  0
   -5.2160    4.0210  -23.4140 C   0  0  0  0  0  0
   -3.7360    3.5410  -21.7260 C   0  0  0  0  0  0
   -2.8260    3.6400  -23.8860 C   0  0  0  0  0  0
   -2.6820    3.3940  -22.4640 C   0  0  0  0  0  0
   -4.1630    3.9380  -24.4170 C   0  0  0  0  0  0
   -3.3920    3.9360  -26.6090 C   0  0  0  0  0  0
    6.2770    2.9480  -21.2740 C   0  0  0  0  0  0
    6.1600    3.0900  -23.8250 C   0  0  0  0  0  0
   -4.4010    4.0700  -25.7540 C   0  0  0  0  0  0
    2.3920    3.7400  -23.8700 C   0  0  0  0  0  0
    1.5990    4.8700  -23.5780 C   0  0  0  0  0  0
    3.4240    6.0180  -22.8870 C   0  0  0  0  0  0
    3.7940    3.8930  -23.5470 C   0  0  0  0  0  0
    1.8200    2.6370  -24.5330 C   0  0  0  0  0  0
   -0.2850    3.5070  -24.4390 C   0  0  0  0  0  0
    0.2700    4.7140  -23.8380 C   0  0  0  0  0  0
   -1.7350    3.5520  -24.8030 C   0  0  0  0  0  0
    4.3300    1.3800  -23.2470 C   0  0  0  0  0  0
    5.2460    1.0010  -22.0930 C   0  0  2  0  0  0
    6.8840    2.4980  -22.6210 C   0  0  2  0  0  0
    5.2470    2.0050  -20.9280 C   0  0  0  0  0  0
   -2.0460    3.7180  -26.2340 C   0  0  0  0  0  0
   -1.3540    2.9450  -21.8550 C   0  0  0  0  0  0
   -0.3370    2.5710  -21.3410 C   0  0  0  0  0  0
   -0.5460    5.7820  -23.5010 F   0  0  0  0  0  0
   -3.5420    3.2960  -20.3420 F   0  0  0  0  0  0
    2.1030    6.0170  -23.0450 N   0  0  0  0  0  0
    4.2950    5.0310  -23.1000 N   0  0  0  0  0  0
    0.5140    2.5820  -24.8470 N   0  0  0  0  0  0
    4.6850    2.8210  -23.7160 N   0  0  0  0  0  0
    6.6570    1.0300  -22.5660 N   0  0  1  0  0  0
   -3.5540    3.9530  -28.0000 O   0  0  0  0  0  0
   -5.7701    3.9133  -21.3553 H   0  0  0  0  0  0
   -6.2227    4.2428  -23.7492 H   0  0  0  0  0  0
    5.8331    3.9478  -21.3890 H   0  0  0  0  0  0
    7.0573    2.9389  -20.4987 H   0  0  0  0  0  0
    6.5487    2.6326  -24.7468 H   0  0  0  0  0  0
    6.3326    4.1759  -23.8583 H   0  0  0  0  0  0
   -5.4037    4.2818  -26.1073 H   0  0  0  0  0  0
    2.4380    1.7902  -24.8089 H   0  0  0  0  0  0
    3.2836    1.3528  -22.9090 H   0  0  0  0  0  0
    4.4793    0.6767  -24.0795 H   0  0  0  0  0  0
    4.9915   -0.0037  -21.7244 H   0  0  0  0  0  0
    7.9593    2.7262  -22.6604 H   0  0  0  0  0  0
    4.2765    2.5215  -20.8917 H   0  0  0  0  0  0
    5.5264    1.4845  -20.0001 H   0  0  0  0  0  0
   -1.2721    3.6758  -26.9919 H   0  0  0  0  0  0
    0.5586    2.2411  -20.8892 H   0  0  0  0  0  0
    7.2856    0.5158  -21.8540 H   0  0  0  0  0  0
   -2.7090    3.8412  -28.4195 H   0  0  0  0  0  0
    6.3470    6.4110  -22.5700 O   0  0  0  0  0  0
    3.2480    8.2660  -22.2300 O   0  0  0  0  0  0
    5.2990   10.7740  -22.3500 N   0  3  0  0  0  0
    5.6490    9.8200  -21.2380 C   0  0  0  0  0  0
    6.5050   11.2830  -23.0900 C   0  0  0  0  0  0
    4.4260   11.8990  -21.8730 C   0  0  0  0  0  0
    5.4620    7.4180  -22.2440 C   0  0  0  0  0  0
    7.4900    8.0750  -21.7910 C   0  0  0  0  0  0
    6.1460    8.4770  -21.7470 C   0  0  0  0  0  0
    7.5260    6.8400  -22.2890 C   0  0  0  0  0  0
    4.0100    7.3300  -22.4220 C   0  0  0  0  0  0
    4.7530   10.2500  -23.0159 H   0  0  0  0  0  0
    4.7679    9.6650  -20.5979 H   0  0  0  0  0  0
    6.4181   10.2741  -20.5959 H   0  0  0  0  0  0
    6.1840   11.9710  -23.8860 H   0  0  0  0  0  0
    7.1680   11.8140  -22.3910 H   0  0  0  0  0  0
    7.0466   10.4356  -23.5357 H   0  0  0  0  0  0
    4.1959   12.5682  -22.7152 H   0  0  0  0  0  0
    3.4903   11.4901  -21.4641 H   0  0  0  0  0  0
    4.9511   12.4641  -21.0888 H   0  0  0  0  0  0
    8.2721    8.7501  -21.4469 H   0  0  0  0  0  0
    8.4799    6.3290  -22.4110 H   0  0  0  0  0  0
  1  2  2  0  0  0
  1  3  1  0  0  0
  1 34  1  0  0  0
  2  6  1  0  0  0
  2 35  1  0  0  0
  3  5  2  0  0  0
  3 27  1  0  0  0
  4  5  1  0  0  0
  4  6  2  0  0  0
  4 18  1  0  0  0
  5 24  1  0  0  0
  6 10  1  0  0  0
  7 10  2  0  0  0
  7 23  1  0  0  0
  7 33  1  0  0  0
  8 21  1  0  0  0
  8 22  1  0  0  0
  8 36  1  0  0  0
  8 37  1  0  0  0
  9 21  1  0  0  0
  9 31  1  0  0  0
  9 38  1  0  0  0
  9 39  1  0  0  0
 10 40  1  0  0  0
 11 12  1  0  0  0
 11 14  2  0  0  0
 11 15  1  0  0  0
 12 17  1  0  0  0
 12 28  2  0  0  0
 13 28  1  0  0  0
 13 29  2  0  0  0
 13 62  1  0  0  0
 14 29  1  0  0  0
 14 31  1  0  0  0
 15 30  2  0  0  0
 15 41  1  0  0  0
 16 17  2  0  0  0
 16 18  1  0  0  0
 16 30  1  0  0  0
 17 26  1  0  0  0
 18 23  2  0  0  0
 19 20  1  0  0  0
 19 31  1  0  0  0
 19 42  1  0  0  0
 19 43  1  0  0  0
 20 22  1  0  0  0
 20 32  1  0  0  0
 20 44  1  0  0  0
 21 32  1  0  0  0
 21 45  1  0  0  0
 22 46  1  0  0  0
 22 47  1  0  0  0
 23 48  1  0  0  0
 24 25  3  0  0  0
 25 49  1  0  0  0
 32 50  1  0  0  0
 33 51  1  0  0  0
 52 58  1  0  0  0
 52 61  1  0  0  0
 53 62  2  0  0  0
 54 55  1  0  0  0
 54 56  1  0  0  0
 54 57  1  0  0  0
 54 63  1  0  0  0
 55 60  1  0  0  0
 55 64  1  0  0  0
 55 65  1  0  0  0
 56 66  1  0  0  0
 56 67  1  0  0  0
 56 68  1  0  0  0
 57 69  1  0  0  0
 57 70  1  0  0  0
 57 71  1  0  0  0
 58 60  2  0  0  0
 58 62  1  0  0  0
 59 60  1  0  0  0
 59 61  2  0  0  0
 59 72  1  0  0  0
 61 73  1  0  0  0
M  CHG  1  54   1
M  END
> <s_m_entry_id>
761

> <s_m_entry_name>
000000603.1

> <s_m_Source_Path>
/Users/zaksoul/Documents/3r_UNI/2nd_SEMESTER/BSC/FRAG_RECON/RESULTS/2

> <s_m_Source_File>
000000603.mol2

> <i_m_Source_File_Index>
1

$$$$
No_0_625
                    3D
 Schrodinger Suite 2022-4.
 73 79  0  0  1  0            999 V2000
   -4.9320    3.6150  -21.8870 C   0  0  0  0  0  0
   -5.2130    3.8040  -23.2200 C   0  0  0  0  0  0
   -3.6910    3.3550  -21.5610 C   0  0  0  0  0  0
   -2.8250    3.4760  -23.7370 C   0  0  0  0  0  0
   -2.6490    3.2310  -22.3180 C   0  0  0  0  0  0
   -4.1770    3.7450  -24.2420 C   0  0  0  0  0  0
   -3.4470    3.7620  -26.4490 C   0  0  0  0  0  0
    6.3390    2.9810  -21.2970 C   0  0  0  0  0  0
    6.1710    3.1230  -23.8440 C   0  0  0  0  0  0
   -4.4430    3.8730  -25.5750 C   0  0  0  0  0  0
    2.3890    3.6900  -23.8180 C   0  0  0  0  0  0
    1.5780    4.8030  -23.5100 C   0  0  0  0  0  0
    3.3900    5.9900  -22.8520 C   0  0  0  0  0  0
    3.7940    3.8740  -23.5210 C   0  0  0  0  0  0
    1.8300    2.5750  -24.4720 C   0  0  0  0  0  0
   -0.2920    3.3990  -24.3370 C   0  0  0  0  0  0
    0.2480    4.6170  -23.7450 C   0  0  0  0  0  0
   -1.7490    3.4130  -24.6750 C   0  0  0  0  0  0
    4.3900    1.3730  -23.2350 C   0  0  0  0  0  0
    5.3360    1.0130  -22.0990 C   0  0  2  0  0  0
    6.9300    2.5450  -22.6550 C   0  0  2  0  0  0
    5.3360    2.0150  -20.9320 C   0  0  0  0  0  0
   -2.0900    3.5730  -26.0990 C   0  0  0  0  0  0
   -1.3000    2.8120  -21.7350 C   0  0  0  0  0  0
   -0.2650    2.4590  -21.2410 C   0  0  0  0  0  0
   -0.5850    5.6670  -23.3910 F   0  0  0  0  0  0
   -3.4660    3.1120  -20.1810 F   0  0  0  0  0  0
    2.0670    5.9590  -22.9840 N   0  0  0  0  0  0
    4.2780    5.0220  -23.0820 N   0  0  0  0  0  0
    0.5190    2.4920  -24.7620 N   0  0  0  0  0  0
    4.7050    2.8210  -23.7080 N   0  0  0  0  0  0
    6.7370    1.0720  -22.5980 N   0  0  1  0  0  0
   -3.6360    3.7770  -27.8370 O   0  0  0  0  0  0
   -5.7251    3.6823  -21.1511 H   0  0  0  0  0  0
   -6.2304    4.0039  -23.5364 H   0  0  0  0  0  0
    5.8716    3.9713  -21.4010 H   0  0  0  0  0  0
    7.1338    2.9871  -20.5365 H   0  0  0  0  0  0
    6.5523    2.6761  -24.7740 H   0  0  0  0  0  0
    6.3194    4.2124  -23.8793 H   0  0  0  0  0  0
   -5.4564    4.0636  -25.9091 H   0  0  0  0  0  0
    2.4615    1.7427  -24.7611 H   0  0  0  0  0  0
    3.3513    1.3215  -22.8766 H   0  0  0  0  0  0
    4.5394    0.6735  -24.0707 H   0  0  0  0  0  0
    5.1111    0.0023  -21.7278 H   0  0  0  0  0  0
    7.9990    2.7974  -22.7146 H   0  0  0  0  0  0
    4.3556    2.5108  -20.8775 H   0  0  0  0  0  0
    5.6449    1.5001  -20.0103 H   0  0  0  0  0  0
   -1.3292    3.5489  -26.8708 H   0  0  0  0  0  0
    0.6457    2.1481  -20.8061 H   0  0  0  0  0  0
    7.3904    0.5716  -21.8987 H   0  0  0  0  0  0
   -2.7968    3.6840  -28.2724 H   0  0  0  0  0  0
    5.8830    6.1670  -21.2530 O   0  0  0  0  0  0
    3.3900    8.3360  -22.7520 O   0  0  0  0  0  0
    5.7330   10.5320  -22.3090 N   0  3  0  0  0  0
    5.3580    9.8490  -21.0200 C   0  0  0  0  0  0
    7.2170   10.7280  -22.4600 C   0  0  0  0  0  0
    4.9810   11.8170  -22.5050 C   0  0  0  0  0  0
    5.1640    7.3030  -21.5660 C   0  0  0  0  0  0
    6.8670    7.8550  -20.3220 C   0  0  0  0  0  0
    5.7520    8.3820  -20.9930 C   0  0  0  0  0  0
    6.8740    6.5380  -20.5240 C   0  0  0  0  0  0
    3.9560    7.3130  -22.3950 C   0  0  0  0  0  0
    5.4481    9.9153  -23.0537 H   0  0  0  0  0  0
    4.2734    9.9390  -20.8601 H   0  0  0  0  0  0
    5.8349   10.3709  -20.1772 H   0  0  0  0  0  0
    7.4250   11.2290  -23.4170 H   0  0  0  0  0  0
    7.5910   11.3480  -21.6320 H   0  0  0  0  0  0
    7.7200    9.7499  -22.4420 H   0  0  0  0  0  0
    5.2861   12.2792  -23.4554 H   0  0  0  0  0  0
    3.9007   11.6109  -22.5280 H   0  0  0  0  0  0
    5.2049   12.5037  -21.6754 H   0  0  0  0  0  0
    7.5320    8.5160  -19.7680 H   0  0  0  0  0  0
    7.6605    5.9244  -20.0873 H   0  0  0  0  0  0
  1  2  2  0  0  0
  1  3  1  0  0  0
  1 34  1  0  0  0
  2  6  1  0  0  0
  2 35  1  0  0  0
  3  5  2  0  0  0
  3 27  1  0  0  0
  4  5  1  0  0  0
  4  6  2  0  0  0
  4 18  1  0  0  0
  5 24  1  0  0  0
  6 10  1  0  0  0
  7 10  2  0  0  0
  7 23  1  0  0  0
  7 33  1  0  0  0
  8 21  1  0  0  0
  8 22  1  0  0  0
  8 36  1  0  0  0
  8 37  1  0  0  0
  9 21  1  0  0  0
  9 31  1  0  0  0
  9 38  1  0  0  0
  9 39  1  0  0  0
 10 40  1  0  0  0
 11 12  1  0  0  0
 11 14  2  0  0  0
 11 15  1  0  0  0
 12 17  1  0  0  0
 12 28  2  0  0  0
 13 28  1  0  0  0
 13 29  2  0  0  0
 13 62  1  0  0  0
 14 29  1  0  0  0
 14 31  1  0  0  0
 15 30  2  0  0  0
 15 41  1  0  0  0
 16 17  2  0  0  0
 16 18  1  0  0  0
 16 30  1  0  0  0
 17 26  1  0  0  0
 18 23  2  0  0  0
 19 20  1  0  0  0
 19 31  1  0  0  0
 19 42  1  0  0  0
 19 43  1  0  0  0
 20 22  1  0  0  0
 20 32  1  0  0  0
 20 44  1  0  0  0
 21 32  1  0  0  0
 21 45  1  0  0  0
 22 46  1  0  0  0
 22 47  1  0  0  0
 23 48  1  0  0  0
 24 25  3  0  0  0
 25 49  1  0  0  0
 32 50  1  0  0  0
 33 51  1  0  0  0
 52 58  1  0  0  0
 52 61  1  0  0  0
 53 62  2  0  0  0
 54 55  1  0  0  0
 54 56  1  0  0  0
 54 57  1  0  0  0
 54 63  1  0  0  0
 55 60  1  0  0  0
 55 64  1  0  0  0
 55 65  1  0  0  0
 56 66  1  0  0  0
 56 67  1  0  0  0
 56 68  1  0  0  0
 57 69  1  0  0  0
 57 70  1  0  0  0
 57 71  1  0  0  0
 58 60  2  0  0  0
 58 62  1  0  0  0
 59 60  1  0  0  0
 59 61  2  0  0  0
 59 72  1  0  0  0
 61 73  1  0  0  0
M  CHG  1  54   1
M  END
> <s_m_entry_id>
762

> <s_m_entry_name>
000000604.1

> <s_m_Source_Path>
/Users/zaksoul/Documents/3r_UNI/2nd_SEMESTER/BSC/FRAG_RECON/RESULTS/2

> <s_m_Source_File>
000000604.mol2

> <i_m_Source_File_Index>
1

$$$$
No_0_626
                    3D
 Schrodinger Suite 2022-4.
 73 79  0  0  1  0            999 V2000
   -5.0750    3.4200  -21.8780 C   0  0  0  0  0  0
   -5.3440    3.6150  -23.2120 C   0  0  0  0  0  0
   -3.8370    3.1590  -21.5420 C   0  0  0  0  0  0
   -2.9520    3.2890  -23.7100 C   0  0  0  0  0  0
   -2.7880    3.0380  -22.2910 C   0  0  0  0  0  0
   -4.3000    3.5600  -24.2260 C   0  0  0  0  0  0
   -3.5520    3.5860  -26.4270 C   0  0  0  0  0  0
    6.1910    2.7820  -21.1960 C   0  0  0  0  0  0
    6.0440    2.9350  -23.7450 C   0  0  0  0  0  0
   -4.5550    3.6940  -25.5600 C   0  0  0  0  0  0
    2.2630    3.5020  -23.7470 C   0  0  0  0  0  0
    1.4480    4.6140  -23.4410 C   0  0  0  0  0  0
    3.2550    5.7980  -22.7630 C   0  0  0  0  0  0
    3.6650    3.6850  -23.4380 C   0  0  0  0  0  0
    1.7080    2.3910  -24.4110 C   0  0  0  0  0  0
   -0.4140    3.2140  -24.2900 C   0  0  0  0  0  0
    0.1210    4.4300  -23.6880 C   0  0  0  0  0  0
   -1.8690    3.2290  -24.6400 C   0  0  0  0  0  0
    4.2590    1.1830  -23.1580 C   0  0  0  0  0  0
    5.1940    0.8180  -22.0150 C   0  0  2  0  0  0
    6.7930    2.3530  -22.5510 C   0  0  2  0  0  0
    5.1850    1.8150  -20.8440 C   0  0  0  0  0  0
   -2.1980    3.3960  -26.0660 C   0  0  0  0  0  0
   -1.4440    2.6160  -21.6990 C   0  0  0  0  0  0
   -0.4130    2.2610  -21.1980 C   0  0  0  0  0  0
   -0.7150    5.4780  -23.3370 F   0  0  0  0  0  0
   -3.6230    2.9100  -20.1620 F   0  0  0  0  0  0
    1.9330    5.7690  -22.9070 N   0  0  0  0  0  0
    4.1450    4.8320  -22.9900 N   0  0  0  0  0  0
    0.4000    2.3090  -24.7120 N   0  0  0  0  0  0
    4.5770    2.6330  -23.6220 N   0  0  0  0  0  0
    6.6000    0.8800  -22.5020 N   0  0  1  0  0  0
   -3.7290    3.6070  -27.8160 O   0  0  0  0  0  0
   -5.8740    3.4842  -21.1483 H   0  0  0  0  0  0
   -6.3587    3.8157  -23.5362 H   0  0  0  0  0  0
    5.7249    3.7728  -21.3009 H   0  0  0  0  0  0
    6.9793    2.7860  -20.4289 H   0  0  0  0  0  0
    6.4335    2.4920  -24.6734 H   0  0  0  0  0  0
    6.1933    4.0244  -23.7743 H   0  0  0  0  0  0
   -5.5656    3.8857  -25.9022 H   0  0  0  0  0  0
    2.3422    1.5601  -24.6980 H   0  0  0  0  0  0
    3.2171    1.1306  -22.8090 H   0  0  0  0  0  0
    4.4145    0.4875  -23.9959 H   0  0  0  0  0  0
    4.9659   -0.1942  -21.6497 H   0  0  0  0  0  0
    7.8628    2.6043  -22.6005 H   0  0  0  0  0  0
    4.2041    2.3105  -20.7956 H   0  0  0  0  0  0
    5.4859    1.2959  -19.9220 H   0  0  0  0  0  0
   -1.4311    3.3749  -26.8319 H   0  0  0  0  0  0
    0.4940    1.9480  -20.7570 H   0  0  0  0  0  0
    7.2471    0.3762  -21.7993 H   0  0  0  0  0  0
   -2.8860    3.5160  -28.2444 H   0  0  0  0  0  0
    5.9770    6.0290  -21.6060 O   0  0  0  0  0  0
    3.1410    8.1240  -22.4600 O   0  0  0  0  0  0
    5.3980   10.4400  -22.2340 N   0  3  0  0  0  0
    5.2950    9.6360  -20.9650 C   0  0  0  0  0  0
    6.8180   10.7510  -22.6190 C   0  0  0  0  0  0
    4.5520   11.6800  -22.1850 C   0  0  0  0  0  0
    5.1510    7.1320  -21.6910 C   0  0  0  0  0  0
    7.0130    7.7060  -20.7130 C   0  0  0  0  0  0
    5.7690    8.2020  -21.1340 C   0  0  0  0  0  0
    7.0590    6.4120  -21.0270 C   0  0  0  0  0  0
    3.8170    7.1190  -22.2960 C   0  0  0  0  0  0
    5.0201    9.8641  -22.9699 H   0  0  0  0  0  0
    4.2522    9.6370  -20.6151 H   0  0  0  0  0  0
    5.8831   10.1241  -20.1739 H   0  0  0  0  0  0
    6.8250   11.3377  -23.5495 H   0  0  0  0  0  0
    7.2970   11.3320  -21.8171 H   0  0  0  0  0  0
    7.3711    9.8128  -22.7730 H   0  0  0  0  0  0
    4.6570   12.2338  -23.1296 H   0  0  0  0  0  0
    3.4980   11.4000  -22.0410 H   0  0  0  0  0  0
    4.8790   12.3159  -21.3491 H   0  0  0  0  0  0
    7.7272    8.3682  -20.2259 H   0  0  0  0  0  0
    7.9434    5.8237  -20.7869 H   0  0  0  0  0  0
  1  2  2  0  0  0
  1  3  1  0  0  0
  1 34  1  0  0  0
  2  6  1  0  0  0
  2 35  1  0  0  0
  3  5  2  0  0  0
  3 27  1  0  0  0
  4  5  1  0  0  0
  4  6  2  0  0  0
  4 18  1  0  0  0
  5 24  1  0  0  0
  6 10  1  0  0  0
  7 10  2  0  0  0
  7 23  1  0  0  0
  7 33  1  0  0  0
  8 21  1  0  0  0
  8 22  1  0  0  0
  8 36  1  0  0  0
  8 37  1  0  0  0
  9 21  1  0  0  0
  9 31  1  0  0  0
  9 38  1  0  0  0
  9 39  1  0  0  0
 10 40  1  0  0  0
 11 12  1  0  0  0
 11 14  2  0  0  0
 11 15  1  0  0  0
 12 17  1  0  0  0
 12 28  2  0  0  0
 13 28  1  0  0  0
 13 29  2  0  0  0
 13 62  1  0  0  0
 14 29  1  0  0  0
 14 31  1  0  0  0
 15 30  2  0  0  0
 15 41  1  0  0  0
 16 17  2  0  0  0
 16 18  1  0  0  0
 16 30  1  0  0  0
 17 26  1  0  0  0
 18 23  2  0  0  0
 19 20  1  0  0  0
 19 31  1  0  0  0
 19 42  1  0  0  0
 19 43  1  0  0  0
 20 22  1  0  0  0
 20 32  1  0  0  0
 20 44  1  0  0  0
 21 32  1  0  0  0
 21 45  1  0  0  0
 22 46  1  0  0  0
 22 47  1  0  0  0
 23 48  1  0  0  0
 24 25  3  0  0  0
 25 49  1  0  0  0
 32 50  1  0  0  0
 33 51  1  0  0  0
 52 58  1  0  0  0
 52 61  1  0  0  0
 53 62  2  0  0  0
 54 55  1  0  0  0
 54 56  1  0  0  0
 54 57  1  0  0  0
 54 63  1  0  0  0
 55 60  1  0  0  0
 55 64  1  0  0  0
 55 65  1  0  0  0
 56 66  1  0  0  0
 56 67  1  0  0  0
 56 68  1  0  0  0
 57 69  1  0  0  0
 57 70  1  0  0  0
 57 71  1  0  0  0
 58 60  2  0  0  0
 58 62  1  0  0  0
 59 60  1  0  0  0
 59 61  2  0  0  0
 59 72  1  0  0  0
 61 73  1  0  0  0
M  CHG  1  54   1
M  END
> <s_m_entry_id>
763

> <s_m_entry_name>
000000605.1

> <s_m_Source_Path>
/Users/zaksoul/Documents/3r_UNI/2nd_SEMESTER/BSC/FRAG_RECON/RESULTS/2

> <s_m_Source_File>
000000605.mol2

> <i_m_Source_File_Index>
1

$$$$
No_0_627
                    3D
 Schrodinger Suite 2022-4.
 73 79  0  0  1  0            999 V2000
   -4.9630    3.5320  -21.8780 C   0  0  0  0  0  0
   -5.2350    3.7140  -23.2130 C   0  0  0  0  0  0
   -3.7260    3.2650  -21.5420 C   0  0  0  0  0  0
   -2.8460    3.3620  -23.7140 C   0  0  0  0  0  0
   -2.6800    3.1270  -22.2930 C   0  0  0  0  0  0
   -4.1940    3.6390  -24.2290 C   0  0  0  0  0  0
   -3.4520    3.6340  -26.4320 C   0  0  0  0  0  0
    6.2990    2.8100  -21.2200 C   0  0  0  0  0  0
    6.1460    2.9340  -23.7700 C   0  0  0  0  0  0
   -4.4510    3.7600  -25.5640 C   0  0  0  0  0  0
    2.3690    3.5330  -23.7680 C   0  0  0  0  0  0
    1.5650    4.6540  -23.4730 C   0  0  0  0  0  0
    3.3830    5.8310  -22.8130 C   0  0  0  0  0  0
    3.7740    3.7070  -23.4650 C   0  0  0  0  0  0
    1.8040    2.4180  -24.4180 C   0  0  0  0  0  0
   -0.3110    3.2610  -24.3000 C   0  0  0  0  0  0
    0.2350    4.4780  -23.7140 C   0  0  0  0  0  0
   -1.7660    3.2830  -24.6460 C   0  0  0  0  0  0
    4.3480    1.2040  -23.1580 C   0  0  0  0  0  0
    5.2840    0.8440  -22.0140 C   0  0  2  0  0  0
    6.8940    2.3590  -22.5720 C   0  0  2  0  0  0
    5.2870    1.8550  -20.8540 C   0  0  0  0  0  0
   -2.0980    3.4360  -26.0730 C   0  0  0  0  0  0
   -1.3380    2.7000  -21.6990 C   0  0  0  0  0  0
   -0.3090    2.3430  -21.1970 C   0  0  0  0  0  0
   -0.5900    5.5370  -23.3730 F   0  0  0  0  0  0
   -3.5100    3.0300  -20.1600 F   0  0  0  0  0  0
    2.0610    5.8110  -22.9530 N   0  0  0  0  0  0
    4.2650    4.8550  -23.0310 N   0  0  0  0  0  0
    0.4950    2.3440  -24.7140 N   0  0  0  0  0  0
    4.6770    2.6460  -23.6400 N   0  0  0  0  0  0
    6.6880    0.8890  -22.5050 N   0  0  1  0  0  0
   -3.6330    3.6400  -27.8210 O   0  0  0  0  0  0
   -5.7589    3.6113  -21.1463 H   0  0  0  0  0  0
   -6.2490    3.9198  -23.5363 H   0  0  0  0  0  0
    5.8407    3.8033  -21.3351 H   0  0  0  0  0  0
    7.0903    2.8150  -20.4559 H   0  0  0  0  0  0
    6.5295    2.4778  -24.6945 H   0  0  0  0  0  0
    6.3034    4.0219  -23.8124 H   0  0  0  0  0  0
   -5.4612    3.9556  -25.9051 H   0  0  0  0  0  0
    2.4305    1.5786  -24.6971 H   0  0  0  0  0  0
    3.3070    1.1637  -22.8049 H   0  0  0  0  0  0
    4.4954    0.4973  -23.9879 H   0  0  0  0  0  0
    5.0489   -0.1621  -21.6366 H   0  0  0  0  0  0
    7.9654    2.6021  -22.6275 H   0  0  0  0  0  0
    4.3101    2.3586  -20.8086 H   0  0  0  0  0  0
    5.5859    1.3440  -19.9269 H   0  0  0  0  0  0
   -1.3339    3.4009  -26.8411 H   0  0  0  0  0  0
    0.5969    2.0280  -20.7551 H   0  0  0  0  0  0
    7.3338    0.3876  -21.7994 H   0  0  0  0  0  0
   -2.7919    3.5371  -28.2505 H   0  0  0  0  0  0
    6.2310    6.1260  -22.0350 O   0  0  0  0  0  0
    3.2300    8.1350  -22.3810 O   0  0  0  0  0  0
    5.4110   10.5320  -22.3550 N   0  3  0  0  0  0
    5.5170    9.6680  -21.1250 C   0  0  0  0  0  0
    6.7500   10.9210  -22.9170 C   0  0  0  0  0  0
    4.5360   11.7320  -22.1270 C   0  0  0  0  0  0
    5.3630    7.1960  -21.9490 C   0  0  0  0  0  0
    7.3220    7.8040  -21.2110 C   0  0  0  0  0  0
    6.0140    8.2650  -21.4310 C   0  0  0  0  0  0
    7.3690    6.5290  -21.5940 C   0  0  0  0  0  0
    3.9580    7.1530  -22.3630 C   0  0  0  0  0  0
    4.9547    9.9737  -23.0594 H   0  0  0  0  0  0
    4.5343    9.6090  -20.6342 H   0  0  0  0  0  0
    6.1927   10.1458  -20.4003 H   0  0  0  0  0  0
    6.6060   11.5481  -23.8092 H   0  0  0  0  0  0
    7.3170   11.4840  -22.1610 H   0  0  0  0  0  0
    7.3099   10.0152  -23.1929 H   0  0  0  0  0  0
    4.4880   12.3316  -23.0480 H   0  0  0  0  0  0
    3.5240   11.4010  -21.8510 H   0  0  0  0  0  0
    4.9547   12.3426  -21.3135 H   0  0  0  0  0  0
    8.0733    8.4742  -20.7959 H   0  0  0  0  0  0
    8.2991    5.9690  -21.5090 H   0  0  0  0  0  0
  1  2  2  0  0  0
  1  3  1  0  0  0
  1 34  1  0  0  0
  2  6  1  0  0  0
  2 35  1  0  0  0
  3  5  2  0  0  0
  3 27  1  0  0  0
  4  5  1  0  0  0
  4  6  2  0  0  0
  4 18  1  0  0  0
  5 24  1  0  0  0
  6 10  1  0  0  0
  7 10  2  0  0  0
  7 23  1  0  0  0
  7 33  1  0  0  0
  8 21  1  0  0  0
  8 22  1  0  0  0
  8 36  1  0  0  0
  8 37  1  0  0  0
  9 21  1  0  0  0
  9 31  1  0  0  0
  9 38  1  0  0  0
  9 39  1  0  0  0
 10 40  1  0  0  0
 11 12  1  0  0  0
 11 14  2  0  0  0
 11 15  1  0  0  0
 12 17  1  0  0  0
 12 28  2  0  0  0
 13 28  1  0  0  0
 13 29  2  0  0  0
 13 62  1  0  0  0
 14 29  1  0  0  0
 14 31  1  0  0  0
 15 30  2  0  0  0
 15 41  1  0  0  0
 16 17  2  0  0  0
 16 18  1  0  0  0
 16 30  1  0  0  0
 17 26  1  0  0  0
 18 23  2  0  0  0
 19 20  1  0  0  0
 19 31  1  0  0  0
 19 42  1  0  0  0
 19 43  1  0  0  0
 20 22  1  0  0  0
 20 32  1  0  0  0
 20 44  1  0  0  0
 21 32  1  0  0  0
 21 45  1  0  0  0
 22 46  1  0  0  0
 22 47  1  0  0  0
 23 48  1  0  0  0
 24 25  3  0  0  0
 25 49  1  0  0  0
 32 50  1  0  0  0
 33 51  1  0  0  0
 52 58  1  0  0  0
 52 61  1  0  0  0
 53 62  2  0  0  0
 54 55  1  0  0  0
 54 56  1  0  0  0
 54 57  1  0  0  0
 54 63  1  0  0  0
 55 60  1  0  0  0
 55 64  1  0  0  0
 55 65  1  0  0  0
 56 66  1  0  0  0
 56 67  1  0  0  0
 56 68  1  0  0  0
 57 69  1  0  0  0
 57 70  1  0  0  0
 57 71  1  0  0  0
 58 60  2  0  0  0
 58 62  1  0  0  0
 59 60  1  0  0  0
 59 61  2  0  0  0
 59 72  1  0  0  0
 61 73  1  0  0  0
M  CHG  1  54   1
M  END
> <s_m_entry_id>
764

> <s_m_entry_name>
000000606.1

> <s_m_Source_Path>
/Users/zaksoul/Documents/3r_UNI/2nd_SEMESTER/BSC/FRAG_RECON/RESULTS/2

> <s_m_Source_File>
000000606.mol2

> <i_m_Source_File_Index>
1

$$$$
No_0_628
                    3D
 Schrodinger Suite 2022-4.
 71 77  0  0  1  0            999 V2000
   -5.0540    3.6850  -21.9230 C   0  0  0  0  0  0
   -5.3450    3.8620  -23.2550 C   0  0  0  0  0  0
   -3.8100    3.4340  -21.6020 C   0  0  0  0  0  0
   -2.9590    3.5390  -23.7850 C   0  0  0  0  0  0
   -2.7720    3.3080  -22.3660 C   0  0  0  0  0  0
   -4.3160    3.7980  -24.2840 C   0  0  0  0  0  0
   -3.6020    3.7980  -26.4960 C   0  0  0  0  0  0
    6.2230    3.1040  -21.4060 C   0  0  0  0  0  0
    6.0370    3.2220  -23.9530 C   0  0  0  0  0  0
   -4.5920    3.9130  -25.6150 C   0  0  0  0  0  0
    2.2530    3.7740  -23.9050 C   0  0  0  0  0  0
    1.4390    4.8860  -23.6020 C   0  0  0  0  0  0
    3.2500    6.0860  -22.9670 C   0  0  0  0  0  0
    3.6590    3.9660  -23.6200 C   0  0  0  0  0  0
    1.6930    2.6510  -24.5460 C   0  0  0  0  0  0
   -0.4310    3.4670  -24.4030 C   0  0  0  0  0  0
    0.1080    4.6930  -23.8260 C   0  0  0  0  0  0
   -1.8900    3.4720  -24.7300 C   0  0  0  0  0  0
    4.2680    1.4700  -23.3160 C   0  0  0  0  0  0
    5.2220    1.1250  -22.1840 C   0  0  2  0  0  0
    6.8060    2.6580  -22.7640 C   0  0  2  0  0  0
    5.2270    2.1370  -21.0260 C   0  0  0  0  0  0
   -2.2420    3.6180  -26.1540 C   0  0  0  0  0  0
   -1.4170    2.8990  -21.7890 C   0  0  0  0  0  0
   -0.3780    2.5550  -21.2990 C   0  0  0  0  0  0
   -0.7260    5.7420  -23.4760 F   0  0  0  0  0  0
   -3.5740    3.2050  -20.2220 F   0  0  0  0  0  0
    1.9270    6.0490  -23.0900 N   0  0  0  0  0  0
    4.1420    5.1200  -23.1950 N   0  0  0  0  0  0
    0.3820    2.5600  -24.8260 N   0  0  0  0  0  0
    4.5730    2.9150  -23.8040 N   0  0  0  0  0  0
    6.6200    1.1860  -22.6930 N   0  0  1  0  0  0
   -3.8010    3.8000  -27.8820 O   0  0  0  0  0  0
   -5.8420    3.7562  -21.1821 H   0  0  0  0  0  0
   -6.3657    4.0547  -23.5651 H   0  0  0  0  0  0
    5.7506    4.0913  -21.5160 H   0  0  0  0  0  0
    7.0231    3.1201  -20.6513 H   0  0  0  0  0  0
    6.4131    2.7682  -24.8818 H   0  0  0  0  0  0
    6.1803    4.3116  -23.9994 H   0  0  0  0  0  0
   -5.6085    4.0956  -25.9441 H   0  0  0  0  0  0
    2.3263    1.8190  -24.8320 H   0  0  0  0  0  0
    3.2317    1.4185  -22.9507 H   0  0  0  0  0  0
    4.4144    0.7642  -24.1470 H   0  0  0  0  0  0
    5.0042    0.1168  -21.8019 H   0  0  0  0  0  0
    7.8735    2.9143  -22.8336 H   0  0  0  0  0  0
    4.2451    2.6295  -20.9685 H   0  0  0  0  0  0
    5.5438    1.6315  -20.1018 H   0  0  0  0  0  0
   -1.4864    3.5899  -26.9307 H   0  0  0  0  0  0
    0.5371    2.2520  -20.8679 H   0  0  0  0  0  0
    7.2798    0.6941  -21.9936 H   0  0  0  0  0  0
   -2.9643    3.7070  -28.3221 H   0  0  0  0  0  0
    4.8440    7.3900  -21.6570 N   0  3  0  0  0  0
    3.2520    8.5180  -23.0520 N   0  0  0  0  0  0
    5.5010    8.5870  -21.1340 C   0  0  0  0  0  0
    6.2050    9.4440  -22.2050 C   0  0  0  0  0  0
    4.6100    9.5280  -20.3010 C   0  0  0  0  0  0
    5.2790   10.9010  -20.4570 C   0  0  0  0  0  0
    5.8620   10.9100  -21.8790 C   0  0  0  0  0  0
    3.8140    7.4160  -22.5260 C   0  0  0  0  0  0
    5.2128    6.4885  -21.3222 H   0  0  0  0  0  0
    2.4651    8.4310  -23.7109 H   0  0  0  0  0  0
    3.6070    9.4501  -22.7950 H   0  0  0  0  0  0
    6.2915    8.2322  -20.4564 H   0  0  0  0  0  0
    5.8053    9.1882  -23.1973 H   0  0  0  0  0  0
    7.2929    9.2979  -22.1339 H   0  0  0  0  0  0
    4.6470    9.2229  -19.2448 H   0  0  0  0  0  0
    3.6034    9.5610  -20.7433 H   0  0  0  0  0  0
    6.0958   10.9940  -19.7262 H   0  0  0  0  0  0
    4.5167   11.6893  -20.3701 H   0  0  0  0  0  0
    5.0998   11.2731  -22.5842 H   0  0  0  0  0  0
    6.7824   11.5122  -21.8930 H   0  0  0  0  0  0
  1  2  2  0  0  0
  1  3  1  0  0  0
  1 34  1  0  0  0
  2  6  1  0  0  0
  2 35  1  0  0  0
  3  5  2  0  0  0
  3 27  1  0  0  0
  4  5  1  0  0  0
  4  6  2  0  0  0
  4 18  1  0  0  0
  5 24  1  0  0  0
  6 10  1  0  0  0
  7 10  2  0  0  0
  7 23  1  0  0  0
  7 33  1  0  0  0
  8 21  1  0  0  0
  8 22  1  0  0  0
  8 36  1  0  0  0
  8 37  1  0  0  0
  9 21  1  0  0  0
  9 31  1  0  0  0
  9 38  1  0  0  0
  9 39  1  0  0  0
 10 40  1  0  0  0
 11 12  1  0  0  0
 11 14  2  0  0  0
 11 15  1  0  0  0
 12 17  1  0  0  0
 12 28  2  0  0  0
 13 28  1  0  0  0
 13 29  2  0  0  0
 13 59  1  0  0  0
 14 29  1  0  0  0
 14 31  1  0  0  0
 15 30  2  0  0  0
 15 41  1  0  0  0
 16 17  2  0  0  0
 16 18  1  0  0  0
 16 30  1  0  0  0
 17 26  1  0  0  0
 18 23  2  0  0  0
 19 20  1  0  0  0
 19 31  1  0  0  0
 19 42  1  0  0  0
 19 43  1  0  0  0
 20 22  1  0  0  0
 20 32  1  0  0  0
 20 44  1  0  0  0
 21 32  1  0  0  0
 21 45  1  0  0  0
 22 46  1  0  0  0
 22 47  1  0  0  0
 23 48  1  0  0  0
 24 25  3  0  0  0
 25 49  1  0  0  0
 32 50  1  0  0  0
 33 51  1  0  0  0
 52 54  1  0  0  0
 52 59  2  0  0  0
 52 60  1  0  0  0
 53 59  1  0  0  0
 53 61  1  0  0  0
 53 62  1  0  0  0
 54 55  1  0  0  0
 54 56  1  0  0  0
 54 63  1  0  0  0
 55 58  1  0  0  0
 55 64  1  0  0  0
 55 65  1  0  0  0
 56 57  1  0  0  0
 56 66  1  0  0  0
 56 67  1  0  0  0
 57 58  1  0  0  0
 57 68  1  0  0  0
 57 69  1  0  0  0
 58 70  1  0  0  0
 58 71  1  0  0  0
M  CHG  1  52   1
M  END
> <s_m_entry_id>
765

> <s_m_entry_name>
000000607.1

> <s_m_Source_Path>
/Users/zaksoul/Documents/3r_UNI/2nd_SEMESTER/BSC/FRAG_RECON/RESULTS/2

> <s_m_Source_File>
000000607.mol2

> <i_m_Source_File_Index>
1

$$$$
No_0_629
                    3D
 Schrodinger Suite 2022-4.
 70 75  0  0  1  0            999 V2000
   -5.2160    3.9650  -22.1040 C   0  0  0  0  0  0
   -5.4560    4.1560  -23.4440 C   0  0  0  0  0  0
   -3.9900    3.6830  -21.7430 C   0  0  0  0  0  0
   -3.0610    3.7810  -23.8940 C   0  0  0  0  0  0
   -2.9290    3.5380  -22.4700 C   0  0  0  0  0  0
   -4.3940    4.0740  -24.4370 C   0  0  0  0  0  0
   -3.6030    4.0710  -26.6230 C   0  0  0  0  0  0
    6.0200    3.1220  -21.2000 C   0  0  0  0  0  0
    5.9260    3.2590  -23.7520 C   0  0  0  0  0  0
   -4.6200    4.2040  -25.7770 C   0  0  0  0  0  0
    2.1560    3.8970  -23.8320 C   0  0  0  0  0  0
    1.3570    5.0260  -23.5490 C   0  0  0  0  0  0
    3.1720    6.1810  -22.8440 C   0  0  0  0  0  0
    3.5550    4.0560  -23.4970 C   0  0  0  0  0  0
    1.5940    2.7910  -24.4980 C   0  0  0  0  0  0
   -0.5150    3.6560  -24.4240 C   0  0  0  0  0  0
    0.0310    4.8650  -23.8200 C   0  0  0  0  0  0
   -1.9620    3.6950  -24.8020 C   0  0  0  0  0  0
    4.0960    1.5450  -23.1880 C   0  0  0  0  0  0
    5.0030    1.1710  -22.0250 C   0  0  2  0  0  0
    6.6410    2.6710  -22.5410 C   0  0  2  0  0  0
    4.9900    2.1760  -20.8620 C   0  0  0  0  0  0
   -2.2600    3.8580  -26.2350 C   0  0  0  0  0  0
   -1.6050    3.0940  -21.8490 C   0  0  0  0  0  0
   -0.5910    2.7240  -21.3260 C   0  0  0  0  0  0
   -0.7910    5.9310  -23.4920 F   0  0  0  0  0  0
   -3.8070    3.4400  -20.3570 F   0  0  0  0  0  0
    1.8530    6.1750  -23.0130 N   0  0  0  0  0  0
    4.0490    5.1960  -23.0470 N   0  0  0  0  0  0
    0.2910    2.7320  -24.8240 N   0  0  0  0  0  0
    4.4510    2.9850  -23.6560 N   0  0  0  0  0  0
    6.4180    1.2030  -22.4860 N   0  0  1  0  0  0
   -3.7530    4.0860  -28.0160 O   0  0  0  0  0  0
   -6.0278    4.0493  -21.3906 H   0  0  0  0  0  0
   -6.4603    4.3737  -23.7891 H   0  0  0  0  0  0
    5.5747    4.1206  -21.3202 H   0  0  0  0  0  0
    6.7943    3.1159  -20.4187 H   0  0  0  0  0  0
    6.3246    2.8029  -24.6702 H   0  0  0  0  0  0
    6.0955    4.3453  -23.7863 H   0  0  0  0  0  0
   -5.6204    4.4117  -26.1392 H   0  0  0  0  0  0
    2.2176    1.9465  -24.7681 H   0  0  0  0  0  0
    3.0468    1.5147  -22.8588 H   0  0  0  0  0  0
    4.2555    0.8405  -24.0176 H   0  0  0  0  0  0
    4.7487    0.1658  -21.6576 H   0  0  0  0  0  0
    7.7158    2.9031  -22.5713 H   0  0  0  0  0  0
    4.0178    2.6899  -20.8347 H   0  0  0  0  0  0
    5.2634    1.6584  -19.9307 H   0  0  0  0  0  0
   -1.4791    3.8168  -26.9857 H   0  0  0  0  0  0
    0.3016    2.3982  -20.8652 H   0  0  0  0  0  0
    7.0422    0.6921  -21.7678 H   0  0  0  0  0  0
   -2.9039    3.9762  -28.4277 H   0  0  0  0  0  0
    4.7490    7.4440  -21.4700 N   0  3  0  0  0  0
    3.2280    8.6130  -22.9090 N   0  0  0  0  0  0
    6.7360    8.8710  -21.7240 C   0  0  0  0  0  0
    5.4250    8.6300  -20.9550 C   0  0  0  0  0  0
    6.4720    9.1510  -23.2120 C   0  0  0  0  0  0
    3.7500    7.4950  -22.3750 C   0  0  0  0  0  0
    7.8090    9.1600  -23.9660 C   0  0  0  0  0  0
    5.0701    6.5348  -21.1079 H   0  0  0  0  0  0
    2.4633    8.5460  -23.5957 H   0  0  0  0  0  0
    3.5922    9.5354  -22.6309 H   0  0  0  0  0  0
    7.3838    7.9873  -21.6270 H   0  0  0  0  0  0
    7.2700    9.7240  -21.2800 H   0  0  0  0  0  0
    5.6470    8.4900  -19.8868 H   0  0  0  0  0  0
    4.7680    9.5050  -21.0680 H   0  0  0  0  0  0
    5.9844   10.1312  -23.3189 H   0  0  0  0  0  0
    5.8242    8.3632  -23.6239 H   0  0  0  0  0  0
    7.6281    9.3609  -25.0323 H   0  0  0  0  0  0
    8.4590    9.9450  -23.5520 H   0  0  0  0  0  0
    8.3001    8.1819  -23.8560 H   0  0  0  0  0  0
  1  2  2  0  0  0
  1  3  1  0  0  0
  1 34  1  0  0  0
  2  6  1  0  0  0
  2 35  1  0  0  0
  3  5  2  0  0  0
  3 27  1  0  0  0
  4  5  1  0  0  0
  4  6  2  0  0  0
  4 18  1  0  0  0
  5 24  1  0  0  0
  6 10  1  0  0  0
  7 10  2  0  0  0
  7 23  1  0  0  0
  7 33  1  0  0  0
  8 21  1  0  0  0
  8 22  1  0  0  0
  8 36  1  0  0  0
  8 37  1  0  0  0
  9 21  1  0  0  0
  9 31  1  0  0  0
  9 38  1  0  0  0
  9 39  1  0  0  0
 10 40  1  0  0  0
 11 12  1  0  0  0
 11 14  2  0  0  0
 11 15  1  0  0  0
 12 17  1  0  0  0
 12 28  2  0  0  0
 13 28  1  0  0  0
 13 29  2  0  0  0
 13 57  1  0  0  0
 14 29  1  0  0  0
 14 31  1  0  0  0
 15 30  2  0  0  0
 15 41  1  0  0  0
 16 17  2  0  0  0
 16 18  1  0  0  0
 16 30  1  0  0  0
 17 26  1  0  0  0
 18 23  2  0  0  0
 19 20  1  0  0  0
 19 31  1  0  0  0
 19 42  1  0  0  0
 19 43  1  0  0  0
 20 22  1  0  0  0
 20 32  1  0  0  0
 20 44  1  0  0  0
 21 32  1  0  0  0
 21 45  1  0  0  0
 22 46  1  0  0  0
 22 47  1  0  0  0
 23 48  1  0  0  0
 24 25  3  0  0  0
 25 49  1  0  0  0
 32 50  1  0  0  0
 33 51  1  0  0  0
 52 55  1  0  0  0
 52 57  2  0  0  0
 52 59  1  0  0  0
 53 57  1  0  0  0
 53 60  1  0  0  0
 53 61  1  0  0  0
 54 55  1  0  0  0
 54 56  1  0  0  0
 54 62  1  0  0  0
 54 63  1  0  0  0
 55 64  1  0  0  0
 55 65  1  0  0  0
 56 58  1  0  0  0
 56 66  1  0  0  0
 56 67  1  0  0  0
 58 68  1  0  0  0
 58 69  1  0  0  0
 58 70  1  0  0  0
M  CHG  1  52   1
M  END
> <s_m_entry_id>
766

> <s_m_entry_name>
000000608.1

> <s_m_Source_Path>
/Users/zaksoul/Documents/3r_UNI/2nd_SEMESTER/BSC/FRAG_RECON/RESULTS/2

> <s_m_Source_File>
000000608.mol2

> <i_m_Source_File_Index>
1

$$$$
No_0_630
                    3D
 Schrodinger Suite 2022-4.
 70 75  0  0  1  0            999 V2000
   -4.9160    3.8890  -22.1460 C   0  0  0  0  0  0
   -5.1560    4.1350  -23.4770 C   0  0  0  0  0  0
   -3.6920    3.5790  -21.7990 C   0  0  0  0  0  0
   -2.7670    3.7510  -23.9480 C   0  0  0  0  0  0
   -2.6350    3.4500  -22.5350 C   0  0  0  0  0  0
   -4.0970    4.0810  -24.4760 C   0  0  0  0  0  0
   -3.3110    4.1540  -26.6620 C   0  0  0  0  0  0
    6.3120    2.8780  -21.3040 C   0  0  0  0  0  0
    6.2140    3.1180  -23.8480 C   0  0  0  0  0  0
   -4.3240    4.2650  -25.8090 C   0  0  0  0  0  0
    2.4520    3.8030  -23.8930 C   0  0  0  0  0  0
    1.6670    4.9290  -23.5640 C   0  0  0  0  0  0
    3.4970    6.0330  -22.8180 C   0  0  0  0  0  0
    3.8540    3.9310  -23.5560 C   0  0  0  0  0  0
    1.8750    2.7310  -24.6020 C   0  0  0  0  0  0
   -0.2230    3.6160  -24.4880 C   0  0  0  0  0  0
    0.3390    4.7940  -23.8390 C   0  0  0  0  0  0
   -1.6700    3.6880  -24.8610 C   0  0  0  0  0  0
    4.3650    1.4040  -23.3480 C   0  0  0  0  0  0
    5.2690    0.9740  -22.2030 C   0  0  2  0  0  0
    6.9240    2.4740  -22.6630 C   0  0  2  0  0  0
    5.2710    1.9320  -21.0000 C   0  0  0  0  0  0
   -1.9690    3.9100  -26.2860 C   0  0  0  0  0  0
   -1.3140    2.9670  -21.9350 C   0  0  0  0  0  0
   -0.3040    2.5640  -21.4290 C   0  0  0  0  0  0
   -0.4700    5.8560  -23.4670 F   0  0  0  0  0  0
   -3.5100    3.2800  -20.4240 F   0  0  0  0  0  0
    2.1780    6.0500  -22.9850 N   0  0  0  0  0  0
    4.3610    5.0470  -23.0620 N   0  0  0  0  0  0
    0.5710    2.7000  -24.9270 N   0  0  0  0  0  0
    4.7360    2.8580  -23.7590 N   0  0  0  0  0  0
    6.6840    1.0070  -22.6650 N   0  0  1  0  0  0
   -3.4630    4.2260  -28.0520 O   0  0  0  0  0  0
   -5.7254    3.9553  -21.4280 H   0  0  0  0  0  0
   -6.1580    4.3787  -23.8110 H   0  0  0  0  0  0
    5.8782    3.8857  -21.3837 H   0  0  0  0  0  0
    7.0871    2.8326  -20.5248 H   0  0  0  0  0  0
    6.6045    2.6932  -24.7845 H   0  0  0  0  0  0
    6.3968    4.2027  -23.8399 H   0  0  0  0  0  0
   -5.3225    4.4988  -26.1602 H   0  0  0  0  0  0
    2.4880    1.8902  -24.9060 H   0  0  0  0  0  0
    3.3165    1.3727  -23.0170 H   0  0  0  0  0  0
    4.5144    0.7307  -24.2050 H   0  0  0  0  0  0
    5.0037   -0.0419  -21.8751 H   0  0  0  0  0  0
    8.0015    2.6939  -22.6862 H   0  0  0  0  0  0
    4.3054    2.4567  -20.9516 H   0  0  0  0  0  0
    5.5395    1.3747  -20.0904 H   0  0  0  0  0  0
   -1.1902    3.8899  -27.0397 H   0  0  0  0  0  0
    0.5853    2.2089  -20.9838 H   0  0  0  0  0  0
    7.3038    0.4609  -21.9693 H   0  0  0  0  0  0
   -2.6160    4.1221  -28.4695 H   0  0  0  0  0  0
    5.2410    7.2340  -21.6000 N   0  3  0  0  0  0
    3.4300    8.4550  -22.5890 N   0  0  0  0  0  0
    7.0810    8.8110  -22.0230 C   0  0  0  0  0  0
    5.9470    8.3960  -21.0700 C   0  0  0  0  0  0
    6.5340    9.2410  -23.3940 C   0  0  0  0  0  0
    4.0920    7.3210  -22.3000 C   0  0  0  0  0  0
    7.7070    9.4270  -24.3670 C   0  0  0  0  0  0
    5.6640    6.3129  -21.4170 H   0  0  0  0  0  0
    2.5554    8.4170  -23.1317 H   0  0  0  0  0  0
    3.7971    9.3622  -22.2679 H   0  0  0  0  0  0
    7.7751    7.9679  -22.1550 H   0  0  0  0  0  0
    7.6484    9.6415  -21.5777 H   0  0  0  0  0  0
    6.3680    8.1500  -20.0840 H   0  0  0  0  0  0
    5.2412    9.2318  -20.9550 H   0  0  0  0  0  0
    5.9911   10.1919  -23.2890 H   0  0  0  0  0  0
    5.8577    8.4637  -23.7792 H   0  0  0  0  0  0
    7.3240    9.7350  -25.3511 H   0  0  0  0  0  0
    8.3871   10.2001  -23.9800 H   0  0  0  0  0  0
    8.2536    8.4777  -24.4679 H   0  0  0  0  0  0
  1  2  2  0  0  0
  1  3  1  0  0  0
  1 34  1  0  0  0
  2  6  1  0  0  0
  2 35  1  0  0  0
  3  5  2  0  0  0
  3 27  1  0  0  0
  4  5  1  0  0  0
  4  6  2  0  0  0
  4 18  1  0  0  0
  5 24  1  0  0  0
  6 10  1  0  0  0
  7 10  2  0  0  0
  7 23  1  0  0  0
  7 33  1  0  0  0
  8 21  1  0  0  0
  8 22  1  0  0  0
  8 36  1  0  0  0
  8 37  1  0  0  0
  9 21  1  0  0  0
  9 31  1  0  0  0
  9 38  1  0  0  0
  9 39  1  0  0  0
 10 40  1  0  0  0
 11 12  1  0  0  0
 11 14  2  0  0  0
 11 15  1  0  0  0
 12 17  1  0  0  0
 12 28  2  0  0  0
 13 28  1  0  0  0
 13 29  2  0  0  0
 13 57  1  0  0  0
 14 29  1  0  0  0
 14 31  1  0  0  0
 15 30  2  0  0  0
 15 41  1  0  0  0
 16 17  2  0  0  0
 16 18  1  0  0  0
 16 30  1  0  0  0
 17 26  1  0  0  0
 18 23  2  0  0  0
 19 20  1  0  0  0
 19 31  1  0  0  0
 19 42  1  0  0  0
 19 43  1  0  0  0
 20 22  1  0  0  0
 20 32  1  0  0  0
 20 44  1  0  0  0
 21 32  1  0  0  0
 21 45  1  0  0  0
 22 46  1  0  0  0
 22 47  1  0  0  0
 23 48  1  0  0  0
 24 25  3  0  0  0
 25 49  1  0  0  0
 32 50  1  0  0  0
 33 51  1  0  0  0
 52 55  1  0  0  0
 52 57  2  0  0  0
 52 59  1  0  0  0
 53 57  1  0  0  0
 53 60  1  0  0  0
 53 61  1  0  0  0
 54 55  1  0  0  0
 54 56  1  0  0  0
 54 62  1  0  0  0
 54 63  1  0  0  0
 55 64  1  0  0  0
 55 65  1  0  0  0
 56 58  1  0  0  0
 56 66  1  0  0  0
 56 67  1  0  0  0
 58 68  1  0  0  0
 58 69  1  0  0  0
 58 70  1  0  0  0
M  CHG  1  52   1
M  END
> <s_m_entry_id>
767

> <s_m_entry_name>
000000609.1

> <s_m_Source_Path>
/Users/zaksoul/Documents/3r_UNI/2nd_SEMESTER/BSC/FRAG_RECON/RESULTS/2

> <s_m_Source_File>
000000609.mol2

> <i_m_Source_File_Index>
1

$$$$
No_0_631
                    3D
 Schrodinger Suite 2022-4.
 66 71  0  0  1  0            999 V2000
   -5.1110    3.6040  -21.9980 C   0  0  0  0  0  0
   -5.3680    3.7870  -23.3360 C   0  0  0  0  0  0
   -3.8770    3.3430  -21.6480 C   0  0  0  0  0  0
   -2.9720    3.4500  -23.8090 C   0  0  0  0  0  0
   -2.8210    3.2120  -22.3860 C   0  0  0  0  0  0
   -4.3140    3.7200  -24.3400 C   0  0  0  0  0  0
   -3.5460    3.7240  -26.5330 C   0  0  0  0  0  0
    6.1460    2.9420  -21.2070 C   0  0  0  0  0  0
    6.0240    3.0710  -23.7580 C   0  0  0  0  0  0
   -4.5560    3.8420  -25.6770 C   0  0  0  0  0  0
    2.2440    3.6490  -23.8000 C   0  0  0  0  0  0
    1.4300    4.7650  -23.5120 C   0  0  0  0  0  0
    3.2330    5.9510  -22.8280 C   0  0  0  0  0  0
    3.6430    3.8300  -23.4800 C   0  0  0  0  0  0
    1.6920    2.5320  -24.4590 C   0  0  0  0  0  0
   -0.4290    3.3630  -24.3650 C   0  0  0  0  0  0
    0.1040    4.5820  -23.7700 C   0  0  0  0  0  0
   -1.8800    3.3790  -24.7280 C   0  0  0  0  0  0
    4.2280    1.3290  -23.1710 C   0  0  0  0  0  0
    5.1520    0.9720  -22.0170 C   0  0  2  0  0  0
    6.7600    2.4980  -22.5520 C   0  0  2  0  0  0
    5.1350    1.9800  -20.8550 C   0  0  0  0  0  0
   -2.1960    3.5330  -26.1590 C   0  0  0  0  0  0
   -1.4840    2.7910  -21.7780 C   0  0  0  0  0  0
   -0.4590    2.4380  -21.2640 C   0  0  0  0  0  0
   -0.7320    5.6360  -23.4360 F   0  0  0  0  0  0
   -3.6760    3.1060  -20.2640 F   0  0  0  0  0  0
    1.9130    5.9240  -22.9840 N   0  0  0  0  0  0
    4.1230    4.9800  -23.0380 N   0  0  0  0  0  0
    0.3870    2.4510  -24.7710 N   0  0  0  0  0  0
    4.5540    2.7740  -23.6460 N   0  0  0  0  0  0
    6.5620    1.0260  -22.4910 N   0  0  1  0  0  0
   -3.7110    3.7320  -27.9240 O   0  0  0  0  0  0
   -5.9163    3.6773  -21.2761 H   0  0  0  0  0  0
   -6.3791    3.9878  -23.6714 H   0  0  0  0  0  0
    5.6837    3.9331  -21.3251 H   0  0  0  0  0  0
    6.9278    2.9501  -20.4333 H   0  0  0  0  0  0
    6.4198    2.6177  -24.6788 H   0  0  0  0  0  0
    6.1754    4.1599  -23.7963 H   0  0  0  0  0  0
   -5.5629    4.0335  -26.0300 H   0  0  0  0  0  0
    2.3265    1.6966  -24.7321 H   0  0  0  0  0  0
    3.1829    1.2826  -22.8310 H   0  0  0  0  0  0
    4.3895    0.6253  -24.0009 H   0  0  0  0  0  0
    4.9169   -0.0360  -21.6447 H   0  0  0  0  0  0
    7.8308    2.7463  -22.5944 H   0  0  0  0  0  0
    4.1555    2.4793  -20.8197 H   0  0  0  0  0  0
    5.4257    1.4692  -19.9252 H   0  0  0  0  0  0
   -1.4218    3.5029  -26.9171 H   0  0  0  0  0  0
    0.4435    2.1278  -20.8118 H   0  0  0  0  0  0
    7.2013    0.5268  -21.7779 H   0  0  0  0  0  0
   -2.8645    3.6351  -28.3443 H   0  0  0  0  0  0
    6.2140   11.3310  -21.0230 O   0  5  0  0  0  0
    5.3790   11.0820  -23.1340 O   0  0  0  0  0  0
    4.8020    7.2550  -21.4750 N   0  3  0  0  0  0
    3.2530    8.3880  -22.8930 N   0  0  0  0  0  0
    5.3900    8.4790  -20.9460 C   0  0  0  0  0  0
    3.7950    7.2750  -22.3690 C   0  0  0  0  0  0
    5.9220   10.6410  -22.0620 C   0  0  0  0  0  0
    6.2450    9.1690  -22.0230 C   0  0  0  0  0  0
    5.1811    6.3557  -21.1459 H   0  0  0  0  0  0
    2.4830    8.3140  -23.5730 H   0  0  0  0  0  0
    3.6081    9.3143  -22.6159 H   0  0  0  0  0  0
    6.0208    8.2361  -20.0782 H   0  0  0  0  0  0
    4.5891    9.1599  -20.6220 H   0  0  0  0  0  0
    6.0291    8.7201  -23.0037 H   0  0  0  0  0  0
    7.3110    9.0330  -21.7880 H   0  0  0  0  0  0
  1  2  2  0  0  0
  1  3  1  0  0  0
  1 34  1  0  0  0
  2  6  1  0  0  0
  2 35  1  0  0  0
  3  5  2  0  0  0
  3 27  1  0  0  0
  4  5  1  0  0  0
  4  6  2  0  0  0
  4 18  1  0  0  0
  5 24  1  0  0  0
  6 10  1  0  0  0
  7 10  2  0  0  0
  7 23  1  0  0  0
  7 33  1  0  0  0
  8 21  1  0  0  0
  8 22  1  0  0  0
  8 36  1  0  0  0
  8 37  1  0  0  0
  9 21  1  0  0  0
  9 31  1  0  0  0
  9 38  1  0  0  0
  9 39  1  0  0  0
 10 40  1  0  0  0
 11 12  1  0  0  0
 11 14  2  0  0  0
 11 15  1  0  0  0
 12 17  1  0  0  0
 12 28  2  0  0  0
 13 28  1  0  0  0
 13 29  2  0  0  0
 13 57  1  0  0  0
 14 29  1  0  0  0
 14 31  1  0  0  0
 15 30  2  0  0  0
 15 41  1  0  0  0
 16 17  2  0  0  0
 16 18  1  0  0  0
 16 30  1  0  0  0
 17 26  1  0  0  0
 18 23  2  0  0  0
 19 20  1  0  0  0
 19 31  1  0  0  0
 19 42  1  0  0  0
 19 43  1  0  0  0
 20 22  1  0  0  0
 20 32  1  0  0  0
 20 44  1  0  0  0
 21 32  1  0  0  0
 21 45  1  0  0  0
 22 46  1  0  0  0
 22 47  1  0  0  0
 23 48  1  0  0  0
 24 25  3  0  0  0
 25 49  1  0  0  0
 32 50  1  0  0  0
 33 51  1  0  0  0
 52 58  1  0  0  0
 53 58  2  0  0  0
 54 56  1  0  0  0
 54 57  2  0  0  0
 54 60  1  0  0  0
 55 57  1  0  0  0
 55 61  1  0  0  0
 55 62  1  0  0  0
 56 59  1  0  0  0
 56 63  1  0  0  0
 56 64  1  0  0  0
 58 59  1  0  0  0
 59 65  1  0  0  0
 59 66  1  0  0  0
M  CHG  2  52  -1  54   1
M  END
> <s_m_entry_id>
768

> <s_m_entry_name>
000000610.1

> <s_m_Source_Path>
/Users/zaksoul/Documents/3r_UNI/2nd_SEMESTER/BSC/FRAG_RECON/RESULTS/2

> <s_m_Source_File>
000000610.mol2

> <i_m_Source_File_Index>
1

$$$$
No_0_632
                    3D
 Schrodinger Suite 2022-4.
 68 74  0  0  1  0            999 V2000
   -5.2250    3.4580  -22.0710 C   0  0  0  0  0  0
   -5.4720    3.6420  -23.4100 C   0  0  0  0  0  0
   -3.9950    3.1890  -21.7130 C   0  0  0  0  0  0
   -3.0750    3.2890  -23.8680 C   0  0  0  0  0  0
   -2.9350    3.0510  -22.4440 C   0  0  0  0  0  0
   -4.4120    3.5680  -24.4070 C   0  0  0  0  0  0
   -3.6290    3.5650  -26.5960 C   0  0  0  0  0  0
    6.0220    2.7250  -21.2050 C   0  0  0  0  0  0
    5.9170    2.8540  -23.7570 C   0  0  0  0  0  0
   -4.6450    3.6910  -25.7460 C   0  0  0  0  0  0
    2.1410    3.4550  -23.8250 C   0  0  0  0  0  0
    1.3330    4.5770  -23.5420 C   0  0  0  0  0  0
    3.1390    5.7520  -22.8470 C   0  0  0  0  0  0
    3.5400    3.6280  -23.4950 C   0  0  0  0  0  0
    1.5870    2.3420  -24.4860 C   0  0  0  0  0  0
   -0.5290    3.1860  -24.4070 C   0  0  0  0  0  0
    0.0070    4.4030  -23.8090 C   0  0  0  0  0  0
   -1.9780    3.2110  -24.7790 C   0  0  0  0  0  0
    4.1060    1.1240  -23.1810 C   0  0  0  0  0  0
    5.0210    0.7620  -22.0200 C   0  0  2  0  0  0
    6.6420    2.2770  -22.5460 C   0  0  2  0  0  0
    5.0020    1.7710  -20.8600 C   0  0  0  0  0  0
   -2.2830    3.3660  -26.2120 C   0  0  0  0  0  0
   -1.6050    2.6230  -21.8260 C   0  0  0  0  0  0
   -0.5850    2.2630  -21.3060 C   0  0  0  0  0  0
   -0.8240    5.4620  -23.4810 F   0  0  0  0  0  0
   -3.8050    2.9520  -20.3270 F   0  0  0  0  0  0
    1.8190    5.7330  -23.0120 N   0  0  0  0  0  0
    4.0240    4.7750  -23.0500 N   0  0  0  0  0  0
    0.2840    2.2690  -24.8070 N   0  0  0  0  0  0
    4.4450    2.5660  -23.6540 N   0  0  0  0  0  0
    6.4340    0.8060  -22.4860 N   0  0  1  0  0  0
   -3.7850    3.5740  -27.9880 O   0  0  0  0  0  0
   -6.0347    3.5363  -21.3546 H   0  0  0  0  0  0
   -6.4794    3.8489  -23.7525 H   0  0  0  0  0  0
    5.5668    3.7191  -21.3261 H   0  0  0  0  0  0
    6.7988    2.7290  -20.4262 H   0  0  0  0  0  0
    6.3168    2.3977  -24.6746 H   0  0  0  0  0  0
    6.0764    3.9417  -23.7943 H   0  0  0  0  0  0
   -5.6482    3.8878  -26.1065 H   0  0  0  0  0  0
    2.2183    1.5029  -24.7550 H   0  0  0  0  0  0
    3.0584    1.0846  -22.8479 H   0  0  0  0  0  0
    4.2684    0.4187  -24.0094 H   0  0  0  0  0  0
    4.7777   -0.2444  -21.6485 H   0  0  0  0  0  0
    7.7147    2.5182  -22.5813 H   0  0  0  0  0  0
    4.0252    2.2761  -20.8317 H   0  0  0  0  0  0
    5.2834    1.2587  -19.9281 H   0  0  0  0  0  0
   -1.5045    3.3309  -26.9655 H   0  0  0  0  0  0
    0.3120    1.9470  -20.8470 H   0  0  0  0  0  0
    7.0659    0.3035  -21.7686 H   0  0  0  0  0  0
   -2.9364    3.4711  -28.4024 H   0  0  0  0  0  0
    4.7080    7.0530  -21.4840 N   0  3  0  0  0  0
    3.1680    8.1850  -22.9130 N   0  0  0  0  0  0
    8.0390    9.3740  -23.2070 N   0  0  0  0  0  0
    7.1120   10.3350  -23.4070 N   0  0  0  0  0  0
    5.2940    8.2740  -20.9370 C   0  0  0  0  0  0
    3.7060    7.0720  -22.3850 C   0  0  0  0  0  0
    7.4710    8.5450  -22.2960 C   0  0  0  0  0  0
    6.0610   10.0970  -22.6680 C   0  0  0  0  0  0
    6.2450    8.9300  -21.9190 C   0  0  0  0  0  0
    5.0891    6.1537  -21.1569 H   0  0  0  0  0  0
    2.4021    8.1120  -23.5979 H   0  0  0  0  0  0
    3.5220    9.1109  -22.6330 H   0  0  0  0  0  0
    8.9338    9.4080  -23.7159 H   0  0  0  0  0  0
    5.8341    8.0359  -20.0088 H   0  0  0  0  0  0
    4.4919    8.9801  -20.6760 H   0  0  0  0  0  0
    8.0109    7.6722  -21.9471 H   0  0  0  0  0  0
    5.2124   10.7707  -22.7000 H   0  0  0  0  0  0
  1  2  2  0  0  0
  1  3  1  0  0  0
  1 34  1  0  0  0
  2  6  1  0  0  0
  2 35  1  0  0  0
  3  5  2  0  0  0
  3 27  1  0  0  0
  4  5  1  0  0  0
  4  6  2  0  0  0
  4 18  1  0  0  0
  5 24  1  0  0  0
  6 10  1  0  0  0
  7 10  2  0  0  0
  7 23  1  0  0  0
  7 33  1  0  0  0
  8 21  1  0  0  0
  8 22  1  0  0  0
  8 36  1  0  0  0
  8 37  1  0  0  0
  9 21  1  0  0  0
  9 31  1  0  0  0
  9 38  1  0  0  0
  9 39  1  0  0  0
 10 40  1  0  0  0
 11 12  1  0  0  0
 11 14  2  0  0  0
 11 15  1  0  0  0
 12 17  1  0  0  0
 12 28  2  0  0  0
 13 28  1  0  0  0
 13 29  2  0  0  0
 13 57  1  0  0  0
 14 29  1  0  0  0
 14 31  1  0  0  0
 15 30  2  0  0  0
 15 41  1  0  0  0
 16 17  2  0  0  0
 16 18  1  0  0  0
 16 30  1  0  0  0
 17 26  1  0  0  0
 18 23  2  0  0  0
 19 20  1  0  0  0
 19 31  1  0  0  0
 19 42  1  0  0  0
 19 43  1  0  0  0
 20 22  1  0  0  0
 20 32  1  0  0  0
 20 44  1  0  0  0
 21 32  1  0  0  0
 21 45  1  0  0  0
 22 46  1  0  0  0
 22 47  1  0  0  0
 23 48  1  0  0  0
 24 25  3  0  0  0
 25 49  1  0  0  0
 32 50  1  0  0  0
 33 51  1  0  0  0
 52 56  1  0  0  0
 52 57  2  0  0  0
 52 61  1  0  0  0
 53 57  1  0  0  0
 53 62  1  0  0  0
 53 63  1  0  0  0
 54 55  1  0  0  0
 54 58  1  0  0  0
 54 64  1  0  0  0
 55 59  2  0  0  0
 56 60  1  0  0  0
 56 65  1  0  0  0
 56 66  1  0  0  0
 58 60  2  0  0  0
 58 67  1  0  0  0
 59 60  1  0  0  0
 59 68  1  0  0  0
M  CHG  1  52   1
M  END
> <s_m_entry_id>
769

> <s_m_entry_name>
000000611.1

> <s_m_Source_Path>
/Users/zaksoul/Documents/3r_UNI/2nd_SEMESTER/BSC/FRAG_RECON/RESULTS/2

> <s_m_Source_File>
000000611.mol2

> <i_m_Source_File_Index>
1

$$$$
No_0_633
                    3D
 Schrodinger Suite 2022-4.
 68 74  0  0  1  0            999 V2000
   -4.9360    3.7070  -21.7840 C   0  0  0  0  0  0
   -5.2460    3.8840  -23.1120 C   0  0  0  0  0  0
   -3.6940    3.4230  -21.4850 C   0  0  0  0  0  0
   -2.8810    3.4910  -23.6840 C   0  0  0  0  0  0
   -2.6740    3.2630  -22.2660 C   0  0  0  0  0  0
   -4.2380    3.7860  -24.1590 C   0  0  0  0  0  0
   -3.5650    3.7530  -26.3840 C   0  0  0  0  0  0
    6.3280    2.8100  -21.4680 C   0  0  0  0  0  0
    6.0980    2.9190  -24.0130 C   0  0  0  0  0  0
   -4.5350    3.9010  -25.4860 C   0  0  0  0  0  0
    2.3330    3.5770  -23.9000 C   0  0  0  0  0  0
    1.5560    4.7140  -23.5880 C   0  0  0  0  0  0
    3.4120    5.8660  -22.9930 C   0  0  0  0  0  0
    3.7490    3.7310  -23.6410 C   0  0  0  0  0  0
    1.7310    2.4670  -24.5230 C   0  0  0  0  0  0
   -0.3670    3.3450  -24.3470 C   0  0  0  0  0  0
    0.2170    4.5570  -23.7870 C   0  0  0  0  0  0
   -1.8310    3.3880  -24.6480 C   0  0  0  0  0  0
    4.2930    1.2210  -23.3320 C   0  0  0  0  0  0
    5.2580    0.8550  -22.2150 C   0  0  2  0  0  0
    6.8730    2.3400  -22.8340 C   0  0  2  0  0  0
    5.3120    1.8730  -21.0640 C   0  0  0  0  0  0
   -2.2050    3.5360  -26.0650 C   0  0  0  0  0  0
   -1.3210    2.8190  -21.7110 C   0  0  0  0  0  0
   -0.2830    2.4480  -21.2380 C   0  0  0  0  0  0
   -0.5810    5.6320  -23.4280 F   0  0  0  0  0  0
   -3.4390    3.1950  -20.1080 F   0  0  0  0  0  0
    2.0860    5.8660  -23.0930 N   0  0  0  0  0  0
    4.2720    4.8740  -23.2310 N   0  0  0  0  0  0
    0.4120    2.4120  -24.7780 N   0  0  0  0  0  0
    4.6290    2.6540  -23.8350 N   0  0  0  0  0  0
    6.6470    0.8740  -22.7500 N   0  0  1  0  0  0
   -3.7890    3.7520  -27.7660 O   0  0  0  0  0  0
   -5.7084    3.8043  -21.0297 H   0  0  0  0  0  0
   -6.2660    4.1037  -23.4059 H   0  0  0  0  0  0
    5.8817    3.8096  -21.5760 H   0  0  0  0  0  0
    7.1418    2.8080  -20.7279 H   0  0  0  0  0  0
    6.4450    2.4490  -24.9450 H   0  0  0  0  0  0
    6.2716    4.0038  -24.0685 H   0  0  0  0  0  0
   -5.5518    4.1106  -25.7979 H   0  0  0  0  0  0
    2.3346    1.6153  -24.8153 H   0  0  0  0  0  0
    3.2626    1.2008  -22.9475 H   0  0  0  0  0  0
    4.4030    0.5067  -24.1613 H   0  0  0  0  0  0
    5.0177   -0.1444  -21.8233 H   0  0  0  0  0  0
    7.9459    2.5649  -22.9248 H   0  0  0  0  0  0
    4.3456    2.3935  -20.9924 H   0  0  0  0  0  0
    5.6319    1.3644  -20.1426 H   0  0  0  0  0  0
   -1.4654    3.4828  -26.8557 H   0  0  0  0  0  0
    0.6312    2.1219  -20.8219 H   0  0  0  0  0  0
    7.3057    0.3672  -22.0603 H   0  0  0  0  0  0
   -2.9637    3.6332  -28.2212 H   0  0  0  0  0  0
    5.2040    7.1570  -21.9280 N   0  3  0  0  0  0
    3.3340    8.2970  -22.8750 N   0  0  0  0  0  0
    7.9570    9.7650  -24.1800 N   0  0  0  0  0  0
    6.9730   10.6860  -24.0880 N   0  0  0  0  0  0
    5.8550    8.3680  -21.4360 C   0  0  0  0  0  0
    4.0210    7.1820  -22.5710 C   0  0  0  0  0  0
    7.6470    8.8470  -23.2300 C   0  0  0  0  0  0
    6.1310   10.3420  -23.1490 C   0  0  0  0  0  0
    6.5270    9.1390  -22.5550 C   0  0  0  0  0  0
    5.6840    6.2600  -21.7670 H   0  0  0  0  0  0
    2.4339    8.2280  -23.3710 H   0  0  0  0  0  0
    3.7080    9.2200  -22.6120 H   0  0  0  0  0  0
    8.7081    9.8820  -24.8751 H   0  0  0  0  0  0
    6.6035    8.0982  -20.6765 H   0  0  0  0  0  0
    5.1099    9.0111  -20.9449 H   0  0  0  0  0  0
    8.2854    7.9835  -23.0819 H   0  0  0  0  0  0
    5.2740   10.9700  -22.9340 H   0  0  0  0  0  0
  1  2  2  0  0  0
  1  3  1  0  0  0
  1 34  1  0  0  0
  2  6  1  0  0  0
  2 35  1  0  0  0
  3  5  2  0  0  0
  3 27  1  0  0  0
  4  5  1  0  0  0
  4  6  2  0  0  0
  4 18  1  0  0  0
  5 24  1  0  0  0
  6 10  1  0  0  0
  7 10  2  0  0  0
  7 23  1  0  0  0
  7 33  1  0  0  0
  8 21  1  0  0  0
  8 22  1  0  0  0
  8 36  1  0  0  0
  8 37  1  0  0  0
  9 21  1  0  0  0
  9 31  1  0  0  0
  9 38  1  0  0  0
  9 39  1  0  0  0
 10 40  1  0  0  0
 11 12  1  0  0  0
 11 14  2  0  0  0
 11 15  1  0  0  0
 12 17  1  0  0  0
 12 28  2  0  0  0
 13 28  1  0  0  0
 13 29  2  0  0  0
 13 57  1  0  0  0
 14 29  1  0  0  0
 14 31  1  0  0  0
 15 30  2  0  0  0
 15 41  1  0  0  0
 16 17  2  0  0  0
 16 18  1  0  0  0
 16 30  1  0  0  0
 17 26  1  0  0  0
 18 23  2  0  0  0
 19 20  1  0  0  0
 19 31  1  0  0  0
 19 42  1  0  0  0
 19 43  1  0  0  0
 20 22  1  0  0  0
 20 32  1  0  0  0
 20 44  1  0  0  0
 21 32  1  0  0  0
 21 45  1  0  0  0
 22 46  1  0  0  0
 22 47  1  0  0  0
 23 48  1  0  0  0
 24 25  3  0  0  0
 25 49  1  0  0  0
 32 50  1  0  0  0
 33 51  1  0  0  0
 52 56  1  0  0  0
 52 57  2  0  0  0
 52 61  1  0  0  0
 53 57  1  0  0  0
 53 62  1  0  0  0
 53 63  1  0  0  0
 54 55  1  0  0  0
 54 58  1  0  0  0
 54 64  1  0  0  0
 55 59  2  0  0  0
 56 60  1  0  0  0
 56 65  1  0  0  0
 56 66  1  0  0  0
 58 60  2  0  0  0
 58 67  1  0  0  0
 59 60  1  0  0  0
 59 68  1  0  0  0
M  CHG  1  52   1
M  END
> <s_m_entry_id>
770

> <s_m_entry_name>
000000612.1

> <s_m_Source_Path>
/Users/zaksoul/Documents/3r_UNI/2nd_SEMESTER/BSC/FRAG_RECON/RESULTS/2

> <s_m_Source_File>
000000612.mol2

> <i_m_Source_File_Index>
1

$$$$
No_0_634
                    3D
 Schrodinger Suite 2022-4.
 68 74  0  0  1  0            999 V2000
   -5.1770    3.6030  -21.9570 C   0  0  0  0  0  0
   -5.4320    3.8010  -23.2930 C   0  0  0  0  0  0
   -3.9450    3.3290  -21.6090 C   0  0  0  0  0  0
   -3.0380    3.4490  -23.7690 C   0  0  0  0  0  0
   -2.8900    3.1970  -22.3480 C   0  0  0  0  0  0
   -4.3780    3.7350  -24.2970 C   0  0  0  0  0  0
   -3.6090    3.7520  -26.4910 C   0  0  0  0  0  0
    6.0740    2.8470  -21.1670 C   0  0  0  0  0  0
    5.9540    3.0010  -23.7160 C   0  0  0  0  0  0
   -4.6190    3.8710  -25.6340 C   0  0  0  0  0  0
    2.1780    3.6080  -23.7560 C   0  0  0  0  0  0
    1.3730    4.7280  -23.4580 C   0  0  0  0  0  0
    3.1850    5.8930  -22.7620 C   0  0  0  0  0  0
    3.5800    3.7760  -23.4330 C   0  0  0  0  0  0
    1.6190    2.5020  -24.4240 C   0  0  0  0  0  0
   -0.4960    3.3480  -24.3240 C   0  0  0  0  0  0
    0.0460    4.5580  -23.7180 C   0  0  0  0  0  0
   -1.9470    3.3780  -24.6880 C   0  0  0  0  0  0
    4.1440    1.2680  -23.1460 C   0  0  0  0  0  0
    5.0650    0.8930  -21.9950 C   0  0  2  0  0  0
    6.6850    2.4110  -22.5160 C   0  0  2  0  0  0
    5.0550    1.8910  -20.8240 C   0  0  0  0  0  0
   -2.2600    3.5470  -26.1170 C   0  0  0  0  0  0
   -1.5560    2.7610  -21.7430 C   0  0  0  0  0  0
   -0.5350    2.3950  -21.2320 C   0  0  0  0  0  0
   -0.7820    5.6150  -23.3750 F   0  0  0  0  0  0
   -3.7470    3.0790  -20.2270 F   0  0  0  0  0  0
    1.8650    5.8780  -22.9190 N   0  0  0  0  0  0
    4.0680    4.9170  -22.9800 N   0  0  0  0  0  0
    0.3130    2.4340  -24.7380 N   0  0  0  0  0  0
    4.4820    2.7140  -23.6080 N   0  0  0  0  0  0
    6.4750    0.9400  -22.4680 N   0  0  1  0  0  0
   -3.7730    3.7740  -27.8810 O   0  0  0  0  0  0
   -5.9823    3.6763  -21.2351 H   0  0  0  0  0  0
   -6.4411    4.0129  -23.6274 H   0  0  0  0  0  0
    5.6199    3.8430  -21.2760 H   0  0  0  0  0  0
    6.8553    2.8430  -20.3927 H   0  0  0  0  0  0
    6.3472    2.5533  -24.6406 H   0  0  0  0  0  0
    6.1145    4.0889  -23.7443 H   0  0  0  0  0  0
   -5.6244    4.0729  -25.9855 H   0  0  0  0  0  0
    2.2464    1.6639  -24.7051 H   0  0  0  0  0  0
    3.0984    1.2266  -22.8069 H   0  0  0  0  0  0
    4.3003    0.5702  -23.9819 H   0  0  0  0  0  0
    4.8227   -0.1166  -21.6316 H   0  0  0  0  0  0
    7.7577    2.6512  -22.5554 H   0  0  0  0  0  0
    4.0789    2.3967  -20.7856 H   0  0  0  0  0  0
    5.3417    1.3690  -19.8992 H   0  0  0  0  0  0
   -1.4863    3.5179  -26.8757 H   0  0  0  0  0  0
    0.3648    2.0741  -20.7821 H   0  0  0  0  0  0
    7.1113    0.4299  -21.7600 H   0  0  0  0  0  0
   -2.9269    3.6750  -28.3016 H   0  0  0  0  0  0
    4.7650    7.1790  -21.3960 N   0  3  0  0  0  0
    3.2220    8.3280  -22.8090 N   0  0  0  0  0  0
    7.5780    9.2620  -21.7070 N   0  0  0  0  0  0
    5.9080    9.4130  -23.0900 N   0  0  0  0  0  0
    5.3700    8.3920  -20.8570 C   0  0  0  0  0  0
    3.7570    7.2090  -22.2910 C   0  0  0  0  0  0
    6.2840    9.0250  -21.8840 C   0  0  0  0  0  0
    8.0170    9.8280  -22.8860 C   0  0  0  0  0  0
    7.0000    9.9240  -23.7370 C   0  0  0  0  0  0
    5.1349    6.2753  -21.0681 H   0  0  0  0  0  0
    2.4515    8.2640  -23.4895 H   0  0  0  0  0  0
    3.5830    9.2499  -22.5250 H   0  0  0  0  0  0
    8.0279    9.0180  -20.8132 H   0  0  0  0  0  0
    5.9492    8.1429  -19.9556 H   0  0  0  0  0  0
    4.5789    9.1051  -20.5820 H   0  0  0  0  0  0
    9.0568   10.1139  -22.9960 H   0  0  0  0  0  0
    6.9041   10.2997  -24.7493 H   0  0  0  0  0  0
  1  2  2  0  0  0
  1  3  1  0  0  0
  1 34  1  0  0  0
  2  6  1  0  0  0
  2 35  1  0  0  0
  3  5  2  0  0  0
  3 27  1  0  0  0
  4  5  1  0  0  0
  4  6  2  0  0  0
  4 18  1  0  0  0
  5 24  1  0  0  0
  6 10  1  0  0  0
  7 10  2  0  0  0
  7 23  1  0  0  0
  7 33  1  0  0  0
  8 21  1  0  0  0
  8 22  1  0  0  0
  8 36  1  0  0  0
  8 37  1  0  0  0
  9 21  1  0  0  0
  9 31  1  0  0  0
  9 38  1  0  0  0
  9 39  1  0  0  0
 10 40  1  0  0  0
 11 12  1  0  0  0
 11 14  2  0  0  0
 11 15  1  0  0  0
 12 17  1  0  0  0
 12 28  2  0  0  0
 13 28  1  0  0  0
 13 29  2  0  0  0
 13 57  1  0  0  0
 14 29  1  0  0  0
 14 31  1  0  0  0
 15 30  2  0  0  0
 15 41  1  0  0  0
 16 17  2  0  0  0
 16 18  1  0  0  0
 16 30  1  0  0  0
 17 26  1  0  0  0
 18 23  2  0  0  0
 19 20  1  0  0  0
 19 31  1  0  0  0
 19 42  1  0  0  0
 19 43  1  0  0  0
 20 22  1  0  0  0
 20 32  1  0  0  0
 20 44  1  0  0  0
 21 32  1  0  0  0
 21 45  1  0  0  0
 22 46  1  0  0  0
 22 47  1  0  0  0
 23 48  1  0  0  0
 24 25  3  0  0  0
 25 49  1  0  0  0
 32 50  1  0  0  0
 33 51  1  0  0  0
 52 56  1  0  0  0
 52 57  2  0  0  0
 52 61  1  0  0  0
 53 57  1  0  0  0
 53 62  1  0  0  0
 53 63  1  0  0  0
 54 58  1  0  0  0
 54 59  1  0  0  0
 54 64  1  0  0  0
 55 58  2  0  0  0
 55 60  1  0  0  0
 56 58  1  0  0  0
 56 65  1  0  0  0
 56 66  1  0  0  0
 59 60  2  0  0  0
 59 67  1  0  0  0
 60 68  1  0  0  0
M  CHG  1  52   1
M  END
> <s_m_entry_id>
771

> <s_m_entry_name>
000000613.1

> <s_m_Source_Path>
/Users/zaksoul/Documents/3r_UNI/2nd_SEMESTER/BSC/FRAG_RECON/RESULTS/2

> <s_m_Source_File>
000000613.mol2

> <i_m_Source_File_Index>
1

$$$$
No_0_635
                    3D
 Schrodinger Suite 2022-4.
 68 74  0  0  1  0            999 V2000
   -4.8950    3.6420  -21.9060 C   0  0  0  0  0  0
   -5.1700    3.8410  -23.2380 C   0  0  0  0  0  0
   -3.6540    3.3850  -21.5760 C   0  0  0  0  0  0
   -2.7780    3.5280  -23.7460 C   0  0  0  0  0  0
   -2.6080    3.2720  -22.3290 C   0  0  0  0  0  0
   -4.1290    3.7960  -24.2560 C   0  0  0  0  0  0
   -3.3880    3.8340  -26.4590 C   0  0  0  0  0  0
    6.3760    3.0500  -21.2660 C   0  0  0  0  0  0
    6.2200    3.2130  -23.8130 C   0  0  0  0  0  0
   -4.3890    3.9340  -25.5890 C   0  0  0  0  0  0
    2.4360    3.7640  -23.8000 C   0  0  0  0  0  0
    1.6180    4.8710  -23.4870 C   0  0  0  0  0  0
    3.4210    6.0600  -22.8090 C   0  0  0  0  0  0
    3.8380    3.9520  -23.4950 C   0  0  0  0  0  0
    1.8840    2.6530  -24.4670 C   0  0  0  0  0  0
   -0.2420    3.4670  -24.3350 C   0  0  0  0  0  0
    0.2900    4.6820  -23.7300 C   0  0  0  0  0  0
   -1.6970    3.4770  -24.6800 C   0  0  0  0  0  0
    4.4440    1.4510  -23.2280 C   0  0  0  0  0  0
    5.3850    1.0850  -22.0900 C   0  0  2  0  0  0
    6.9750    2.6290  -22.6250 C   0  0  2  0  0  0
    5.3760    2.0770  -20.9150 C   0  0  0  0  0  0
   -2.0320    3.6480  -26.1040 C   0  0  0  0  0  0
   -1.2600    2.8530  -21.7430 C   0  0  0  0  0  0
   -0.2260    2.5000  -21.2470 C   0  0  0  0  0  0
   -0.5490    5.7250  -23.3710 F   0  0  0  0  0  0
   -3.4350    3.1310  -20.1970 F   0  0  0  0  0  0
    2.0990    6.0250  -22.9490 N   0  0  0  0  0  0
    4.3150    5.0980  -23.0440 N   0  0  0  0  0  0
    0.5750    2.5670  -24.7640 N   0  0  0  0  0  0
    4.7540    2.9040  -23.6870 N   0  0  0  0  0  0
    6.7880    1.1550  -22.5820 N   0  0  1  0  0  0
   -3.5710    3.8600  -27.8470 O   0  0  0  0  0  0
   -5.6919    3.6992  -21.1734 H   0  0  0  0  0  0
   -6.1864    4.0397  -23.5581 H   0  0  0  0  0  0
    5.9051    4.0392  -21.3648 H   0  0  0  0  0  0
    7.1673    3.0540  -20.5019 H   0  0  0  0  0  0
    6.6074    2.7761  -24.7452 H   0  0  0  0  0  0
    6.3632    4.3033  -23.8382 H   0  0  0  0  0  0
   -5.4018    4.1227  -25.9263 H   0  0  0  0  0  0
    2.5204    1.8259  -24.7601 H   0  0  0  0  0  0
    3.4039    1.3925  -22.8749 H   0  0  0  0  0  0
    4.5995    0.7593  -24.0691 H   0  0  0  0  0  0
    5.1619    0.0703  -21.7286 H   0  0  0  0  0  0
    8.0434    2.8853  -22.6775 H   0  0  0  0  0  0
    4.3933    2.5683  -20.8605 H   0  0  0  0  0  0
    5.6817    1.5555  -19.9960 H   0  0  0  0  0  0
   -1.2681    3.6339  -26.8729 H   0  0  0  0  0  0
    0.6840    2.1900  -20.8100 H   0  0  0  0  0  0
    7.4402    0.6514  -21.8838 H   0  0  0  0  0  0
   -2.7293    3.7749  -28.2792 H   0  0  0  0  0  0
    5.1430    7.3740  -21.6600 N   0  3  0  0  0  0
    3.2740    8.4860  -22.6420 N   0  0  0  0  0  0
    7.6830    9.7120  -22.3130 N   0  0  0  0  0  0
    5.7670    9.8190  -23.3330 N   0  0  0  0  0  0
    5.7550    8.5920  -21.1400 C   0  0  0  0  0  0
    3.9790    7.3820  -22.3390 C   0  0  0  0  0  0
    6.4010    9.3770  -22.2610 C   0  0  0  0  0  0
    7.8390   10.4010  -23.4990 C   0  0  0  0  0  0
    6.6700   10.4710  -24.1280 C   0  0  0  0  0  0
    5.6347    6.4846  -21.4921 H   0  0  0  0  0  0
    2.3910    8.4050  -23.1660 H   0  0  0  0  0  0
    3.6172    9.4125  -22.3508 H   0  0  0  0  0  0
    8.3176    9.4432  -21.5475 H   0  0  0  0  0  0
    6.5166    8.3281  -20.3914 H   0  0  0  0  0  0
    4.9855    9.2104  -20.6547 H   0  0  0  0  0  0
    8.8134   10.7848  -23.7788 H   0  0  0  0  0  0
    6.3489   10.9111  -25.0652 H   0  0  0  0  0  0
  1  2  2  0  0  0
  1  3  1  0  0  0
  1 34  1  0  0  0
  2  6  1  0  0  0
  2 35  1  0  0  0
  3  5  2  0  0  0
  3 27  1  0  0  0
  4  5  1  0  0  0
  4  6  2  0  0  0
  4 18  1  0  0  0
  5 24  1  0  0  0
  6 10  1  0  0  0
  7 10  2  0  0  0
  7 23  1  0  0  0
  7 33  1  0  0  0
  8 21  1  0  0  0
  8 22  1  0  0  0
  8 36  1  0  0  0
  8 37  1  0  0  0
  9 21  1  0  0  0
  9 31  1  0  0  0
  9 38  1  0  0  0
  9 39  1  0  0  0
 10 40  1  0  0  0
 11 12  1  0  0  0
 11 14  2  0  0  0
 11 15  1  0  0  0
 12 17  1  0  0  0
 12 28  2  0  0  0
 13 28  1  0  0  0
 13 29  2  0  0  0
 13 57  1  0  0  0
 14 29  1  0  0  0
 14 31  1  0  0  0
 15 30  2  0  0  0
 15 41  1  0  0  0
 16 17  2  0  0  0
 16 18  1  0  0  0
 16 30  1  0  0  0
 17 26  1  0  0  0
 18 23  2  0  0  0
 19 20  1  0  0  0
 19 31  1  0  0  0
 19 42  1  0  0  0
 19 43  1  0  0  0
 20 22  1  0  0  0
 20 32  1  0  0  0
 20 44  1  0  0  0
 21 32  1  0  0  0
 21 45  1  0  0  0
 22 46  1  0  0  0
 22 47  1  0  0  0
 23 48  1  0  0  0
 24 25  3  0  0  0
 25 49  1  0  0  0
 32 50  1  0  0  0
 33 51  1  0  0  0
 52 56  1  0  0  0
 52 57  2  0  0  0
 52 61  1  0  0  0
 53 57  1  0  0  0
 53 62  1  0  0  0
 53 63  1  0  0  0
 54 58  1  0  0  0
 54 59  1  0  0  0
 54 64  1  0  0  0
 55 58  2  0  0  0
 55 60  1  0  0  0
 56 58  1  0  0  0
 56 65  1  0  0  0
 56 66  1  0  0  0
 59 60  2  0  0  0
 59 67  1  0  0  0
 60 68  1  0  0  0
M  CHG  1  52   1
M  END
> <s_m_entry_id>
772

> <s_m_entry_name>
000000614.1

> <s_m_Source_Path>
/Users/zaksoul/Documents/3r_UNI/2nd_SEMESTER/BSC/FRAG_RECON/RESULTS/2

> <s_m_Source_File>
000000614.mol2

> <i_m_Source_File_Index>
1

$$$$
No_0_636
                    3D
 Schrodinger Suite 2022-4.
 65 71  0  0  1  0            999 V2000
   -4.8850    3.6240  -22.0010 C   0  0  0  0  0  0
   -5.1630    3.7920  -23.3370 C   0  0  0  0  0  0
   -3.6480    3.3520  -21.6690 C   0  0  0  0  0  0
   -2.7800    3.4170  -23.8470 C   0  0  0  0  0  0
   -2.6080    3.1970  -22.4240 C   0  0  0  0  0  0
   -4.1280    3.6970  -24.3580 C   0  0  0  0  0  0
   -3.3980    3.6600  -26.5640 C   0  0  0  0  0  0
    6.3750    2.8260  -21.3960 C   0  0  0  0  0  0
    6.2090    2.9210  -23.9460 C   0  0  0  0  0  0
   -4.3920    3.8040  -25.6930 C   0  0  0  0  0  0
    2.4370    3.5480  -23.9310 C   0  0  0  0  0  0
    1.6420    4.6790  -23.6450 C   0  0  0  0  0  0
    3.4730    5.8500  -23.0090 C   0  0  0  0  0  0
    3.8440    3.7150  -23.6380 C   0  0  0  0  0  0
    1.8600    2.4290  -24.5640 C   0  0  0  0  0  0
   -0.2490    3.2890  -24.4450 C   0  0  0  0  0  0
    0.3100    4.5100  -23.8770 C   0  0  0  0  0  0
   -1.7060    3.3180  -24.7830 C   0  0  0  0  0  0
    4.4010    1.2110  -23.3030 C   0  0  0  0  0  0
    5.3410    0.8590  -22.1600 C   0  0  2  0  0  0
    6.9590    2.3550  -22.7450 C   0  0  2  0  0  0
    5.3570    1.8830  -21.0130 C   0  0  0  0  0  0
   -2.0440    3.4570  -26.2100 C   0  0  0  0  0  0
   -1.2650    2.7680  -21.8320 C   0  0  0  0  0  0
   -0.2360    2.4080  -21.3310 C   0  0  0  0  0  0
   -0.5060    5.5790  -23.5440 F   0  0  0  0  0  0
   -3.4270    3.1320  -20.2850 F   0  0  0  0  0  0
    2.1500    5.8380  -23.1420 N   0  0  0  0  0  0
    4.3460    4.8640  -23.2200 N   0  0  0  0  0  0
    0.5480    2.3610  -24.8520 N   0  0  0  0  0  0
    4.7380    2.6450  -23.8040 N   0  0  0  0  0  0
    6.7430    0.8870  -22.6600 N   0  0  1  0  0  0
   -3.5870    3.6510  -27.9520 O   0  0  0  0  0  0
   -5.6772    3.7184  -21.2671 H   0  0  0  0  0  0
   -6.1771    4.0019  -23.6573 H   0  0  0  0  0  0
    5.9228    3.8212  -21.5191 H   0  0  0  0  0  0
    7.1697    2.8351  -20.6355 H   0  0  0  0  0  0
    6.5835    2.4496  -24.8666 H   0  0  0  0  0  0
    6.3745    4.0071  -24.0015 H   0  0  0  0  0  0
   -5.4025    4.0027  -26.0312 H   0  0  0  0  0  0
    2.4786    1.5814  -24.8361 H   0  0  0  0  0  0
    3.3614    1.1837  -22.9447 H   0  0  0  0  0  0
    4.5392    0.4936  -24.1253 H   0  0  0  0  0  0
    5.0999   -0.1407  -21.7696 H   0  0  0  0  0  0
    8.0319    2.5892  -22.8086 H   0  0  0  0  0  0
    4.3845    2.3950  -20.9676 H   0  0  0  0  0  0
    5.6578    1.3814  -20.0814 H   0  0  0  0  0  0
   -1.2844    3.4058  -26.9816 H   0  0  0  0  0  0
    0.6700    2.0920  -20.8900 H   0  0  0  0  0  0
    7.3887    0.3899  -21.9512 H   0  0  0  0  0  0
   -2.7492    3.5373  -28.3852 H   0  0  0  0  0  0
    7.2550    9.1520  -20.2320 N   0  3  0  0  0  0
    5.3990    7.4110  -22.3800 N   0  0  0  0  0  0
    4.3700    9.2810  -21.9600 N   0  0  0  0  0  0
    6.8880    9.3160  -21.6860 C   0  0  0  0  0  0
    5.5560    8.6670  -22.0090 C   0  0  0  0  0  0
    3.4470    8.3340  -22.3100 C   0  0  0  0  0  0
    4.0590    7.1730  -22.5780 C   0  0  0  0  0  0
    8.1431    9.5951  -20.0560 H   0  0  0  0  0  0
    6.5465    9.5797  -19.6564 H   0  0  0  0  0  0
    7.3200    8.1709  -20.0100 H   0  0  0  0  0  0
    4.3150   10.2748  -21.6950 H   0  0  0  0  0  0
    7.6742    8.8719  -22.3142 H   0  0  0  0  0  0
    6.8420   10.3869  -21.9330 H   0  0  0  0  0  0
    2.3884    8.5882  -22.3350 H   0  0  0  0  0  0
  1  2  2  0  0  0
  1  3  1  0  0  0
  1 34  1  0  0  0
  2  6  1  0  0  0
  2 35  1  0  0  0
  3  5  2  0  0  0
  3 27  1  0  0  0
  4  5  1  0  0  0
  4  6  2  0  0  0
  4 18  1  0  0  0
  5 24  1  0  0  0
  6 10  1  0  0  0
  7 10  2  0  0  0
  7 23  1  0  0  0
  7 33  1  0  0  0
  8 21  1  0  0  0
  8 22  1  0  0  0
  8 36  1  0  0  0
  8 37  1  0  0  0
  9 21  1  0  0  0
  9 31  1  0  0  0
  9 38  1  0  0  0
  9 39  1  0  0  0
 10 40  1  0  0  0
 11 12  1  0  0  0
 11 14  2  0  0  0
 11 15  1  0  0  0
 12 17  1  0  0  0
 12 28  2  0  0  0
 13 28  1  0  0  0
 13 29  2  0  0  0
 13 58  1  0  0  0
 14 29  1  0  0  0
 14 31  1  0  0  0
 15 30  2  0  0  0
 15 41  1  0  0  0
 16 17  2  0  0  0
 16 18  1  0  0  0
 16 30  1  0  0  0
 17 26  1  0  0  0
 18 23  2  0  0  0
 19 20  1  0  0  0
 19 31  1  0  0  0
 19 42  1  0  0  0
 19 43  1  0  0  0
 20 22  1  0  0  0
 20 32  1  0  0  0
 20 44  1  0  0  0
 21 32  1  0  0  0
 21 45  1  0  0  0
 22 46  1  0  0  0
 22 47  1  0  0  0
 23 48  1  0  0  0
 24 25  3  0  0  0
 25 49  1  0  0  0
 32 50  1  0  0  0
 33 51  1  0  0  0
 52 55  1  0  0  0
 52 59  1  0  0  0
 52 60  1  0  0  0
 52 61  1  0  0  0
 53 56  2  0  0  0
 53 58  1  0  0  0
 54 56  1  0  0  0
 54 57  1  0  0  0
 54 62  1  0  0  0
 55 56  1  0  0  0
 55 63  1  0  0  0
 55 64  1  0  0  0
 57 58  2  0  0  0
 57 65  1  0  0  0
M  CHG  1  52   1
M  END
> <s_m_entry_id>
773

> <s_m_entry_name>
000000615.1

> <s_m_Source_Path>
/Users/zaksoul/Documents/3r_UNI/2nd_SEMESTER/BSC/FRAG_RECON/RESULTS/2

> <s_m_Source_File>
000000615.mol2

> <i_m_Source_File_Index>
1

$$$$
No_0_637
                    3D
 Schrodinger Suite 2022-4.
 65 71  0  0  1  0            999 V2000
   -4.9530    3.5310  -21.9090 C   0  0  0  0  0  0
   -5.2270    3.7300  -23.2410 C   0  0  0  0  0  0
   -3.7140    3.2710  -21.5780 C   0  0  0  0  0  0
   -2.8360    3.4090  -23.7480 C   0  0  0  0  0  0
   -2.6670    3.1540  -22.3300 C   0  0  0  0  0  0
   -4.1860    3.6800  -24.2590 C   0  0  0  0  0  0
   -3.4450    3.7140  -26.4610 C   0  0  0  0  0  0
    6.3150    2.9090  -21.2630 C   0  0  0  0  0  0
    6.1610    3.0690  -23.8110 C   0  0  0  0  0  0
   -4.4450    3.8170  -25.5920 C   0  0  0  0  0  0
    2.3780    3.6310  -23.8000 C   0  0  0  0  0  0
    1.5630    4.7400  -23.4880 C   0  0  0  0  0  0
    3.3700    5.9250  -22.8120 C   0  0  0  0  0  0
    3.7810    3.8150  -23.4950 C   0  0  0  0  0  0
    1.8240    2.5200  -24.4660 C   0  0  0  0  0  0
   -0.3000    3.3400  -24.3360 C   0  0  0  0  0  0
    0.2350    4.5550  -23.7320 C   0  0  0  0  0  0
   -1.7550    3.3540  -24.6810 C   0  0  0  0  0  0
    4.3800    1.3130  -23.2240 C   0  0  0  0  0  0
    5.3190    0.9460  -22.0860 C   0  0  2  0  0  0
    6.9140    2.4840  -22.6220 C   0  0  2  0  0  0
    5.3120    1.9390  -20.9120 C   0  0  0  0  0  0
   -2.0890    3.5250  -26.1060 C   0  0  0  0  0  0
   -1.3200    2.7320  -21.7430 C   0  0  0  0  0  0
   -0.2880    2.3770  -21.2460 C   0  0  0  0  0  0
   -0.6010    5.6000  -23.3750 F   0  0  0  0  0  0
   -3.4950    3.0180  -20.1990 F   0  0  0  0  0  0
    2.0480    5.8940  -22.9520 N   0  0  0  0  0  0
    4.2610    4.9610  -23.0440 N   0  0  0  0  0  0
    0.5150    2.4380  -24.7630 N   0  0  0  0  0  0
    4.6940    2.7650  -23.6850 N   0  0  0  0  0  0
    6.7230    1.0110  -22.5770 N   0  0  1  0  0  0
   -3.6260    3.7390  -27.8500 O   0  0  0  0  0  0
   -5.7497    3.5922  -21.1765 H   0  0  0  0  0  0
   -6.2427    3.9307  -23.5622 H   0  0  0  0  0  0
    5.8466    3.8993  -21.3629 H   0  0  0  0  0  0
    7.1063    2.9110  -20.4989 H   0  0  0  0  0  0
    6.5476    2.6300  -24.7426 H   0  0  0  0  0  0
    6.3073    4.1589  -23.8372 H   0  0  0  0  0  0
   -5.4569    4.0087  -25.9303 H   0  0  0  0  0  0
    2.4578    1.6903  -24.7573 H   0  0  0  0  0  0
    3.3393    1.2575  -22.8721 H   0  0  0  0  0  0
    4.5333    0.6199  -24.0643 H   0  0  0  0  0  0
    5.0941   -0.0677  -21.7229 H   0  0  0  0  0  0
    7.9830    2.7381  -22.6734 H   0  0  0  0  0  0
    4.3305    2.4328  -20.8585 H   0  0  0  0  0  0
    5.6165    1.4177  -19.9925 H   0  0  0  0  0  0
   -1.3241    3.5079  -26.8739 H   0  0  0  0  0  0
    0.6212    2.0649  -20.8089 H   0  0  0  0  0  0
    7.3731    0.5063  -21.8777 H   0  0  0  0  0  0
   -2.7844    3.6509  -28.2817 H   0  0  0  0  0  0
    3.3810    8.4330  -22.6760 O   0  0  0  0  0  0
    7.3540    8.7460  -20.2170 N   0  3  0  0  0  0
    6.1920    9.6090  -20.6240 C   0  0  0  0  0  0
    5.0080    7.4440  -21.5750 C   0  0  0  0  0  0
    4.1330    9.3540  -22.1110 C   0  0  0  0  0  0
    5.1470    8.8400  -21.4130 C   0  0  0  0  0  0
    3.9310    7.2460  -22.3430 C   0  0  0  0  0  0
    8.0184    9.2983  -19.6977 H   0  0  0  0  0  0
    7.0242    7.9886  -19.6394 H   0  0  0  0  0  0
    7.7990    8.3710  -21.0400 H   0  0  0  0  0  0
    6.5571   10.4533  -21.2272 H   0  0  0  0  0  0
    5.7260   10.0430  -19.7270 H   0  0  0  0  0  0
    5.7209    6.7681  -21.1051 H   0  0  0  0  0  0
    3.9999   10.4335  -22.1650 H   0  0  0  0  0  0
  1  2  2  0  0  0
  1  3  1  0  0  0
  1 34  1  0  0  0
  2  6  1  0  0  0
  2 35  1  0  0  0
  3  5  2  0  0  0
  3 27  1  0  0  0
  4  5  1  0  0  0
  4  6  2  0  0  0
  4 18  1  0  0  0
  5 24  1  0  0  0
  6 10  1  0  0  0
  7 10  2  0  0  0
  7 23  1  0  0  0
  7 33  1  0  0  0
  8 21  1  0  0  0
  8 22  1  0  0  0
  8 36  1  0  0  0
  8 37  1  0  0  0
  9 21  1  0  0  0
  9 31  1  0  0  0
  9 38  1  0  0  0
  9 39  1  0  0  0
 10 40  1  0  0  0
 11 12  1  0  0  0
 11 14  2  0  0  0
 11 15  1  0  0  0
 12 17  1  0  0  0
 12 28  2  0  0  0
 13 28  1  0  0  0
 13 29  2  0  0  0
 13 58  1  0  0  0
 14 29  1  0  0  0
 14 31  1  0  0  0
 15 30  2  0  0  0
 15 41  1  0  0  0
 16 17  2  0  0  0
 16 18  1  0  0  0
 16 30  1  0  0  0
 17 26  1  0  0  0
 18 23  2  0  0  0
 19 20  1  0  0  0
 19 31  1  0  0  0
 19 42  1  0  0  0
 19 43  1  0  0  0
 20 22  1  0  0  0
 20 32  1  0  0  0
 20 44  1  0  0  0
 21 32  1  0  0  0
 21 45  1  0  0  0
 22 46  1  0  0  0
 22 47  1  0  0  0
 23 48  1  0  0  0
 24 25  3  0  0  0
 25 49  1  0  0  0
 32 50  1  0  0  0
 33 51  1  0  0  0
 52 56  1  0  0  0
 52 58  1  0  0  0
 53 54  1  0  0  0
 53 59  1  0  0  0
 53 60  1  0  0  0
 53 61  1  0  0  0
 54 57  1  0  0  0
 54 62  1  0  0  0
 54 63  1  0  0  0
 55 57  1  0  0  0
 55 58  2  0  0  0
 55 64  1  0  0  0
 56 57  2  0  0  0
 56 65  1  0  0  0
M  CHG  1  53   1
M  END
> <s_m_entry_id>
774

> <s_m_entry_name>
000000616.1

> <s_m_Source_Path>
/Users/zaksoul/Documents/3r_UNI/2nd_SEMESTER/BSC/FRAG_RECON/RESULTS/2

> <s_m_Source_File>
000000616.mol2

> <i_m_Source_File_Index>
1

$$$$
No_0_638
                    3D
 Schrodinger Suite 2022-4.
 65 71  0  0  1  0            999 V2000
   -5.1130    3.7890  -21.8980 C   0  0  0  0  0  0
   -5.3780    3.9460  -23.2380 C   0  0  0  0  0  0
   -3.8820    3.5090  -21.5540 C   0  0  0  0  0  0
   -2.9950    3.5450  -23.7240 C   0  0  0  0  0  0
   -2.8370    3.3380  -22.2980 C   0  0  0  0  0  0
   -4.3360    3.8320  -24.2490 C   0  0  0  0  0  0
   -3.5890    3.7660  -26.4490 C   0  0  0  0  0  0
    6.1330    2.8960  -21.1910 C   0  0  0  0  0  0
    5.9900    2.9660  -23.7430 C   0  0  0  0  0  0
   -4.5880    3.9270  -25.5870 C   0  0  0  0  0  0
    2.2230    3.6270  -23.7660 C   0  0  0  0  0  0
    1.4370    4.7680  -23.4980 C   0  0  0  0  0  0
    3.2720    5.9290  -22.8590 C   0  0  0  0  0  0
    3.6300    3.7850  -23.4630 C   0  0  0  0  0  0
    1.6410    2.5080  -24.3920 C   0  0  0  0  0  0
   -0.4600    3.3880  -24.3000 C   0  0  0  0  0  0
    0.1050    4.6090  -23.7390 C   0  0  0  0  0  0
   -1.9140    3.4270  -24.6510 C   0  0  0  0  0  0
    4.1610    1.2800  -23.0980 C   0  0  0  0  0  0
    5.0880    0.9300  -21.9440 C   0  0  2  0  0  0
    6.7240    2.4060  -22.5310 C   0  0  2  0  0  0
    5.1040    1.9660  -20.8070 C   0  0  0  0  0  0
   -2.2400    3.5540  -26.0820 C   0  0  0  0  0  0
   -1.5030    2.9020  -21.6910 C   0  0  0  0  0  0
   -0.4820    2.5380  -21.1780 C   0  0  0  0  0  0
   -0.7040    5.6890  -23.4240 F   0  0  0  0  0  0
   -3.6740    3.3020  -20.1650 F   0  0  0  0  0  0
    1.9500    5.9280  -23.0020 N   0  0  0  0  0  0
    4.1390    4.9340  -23.0530 N   0  0  0  0  0  0
    0.3320    2.4490  -24.6910 N   0  0  0  0  0  0
    4.5150    2.7050  -23.6110 N   0  0  0  0  0  0
    6.4940    0.9410  -22.4320 N   0  0  1  0  0  0
   -3.7660    3.7450  -27.8380 O   0  0  0  0  0  0
   -5.9104    3.8985  -21.1719 H   0  0  0  0  0  0
   -6.3874    4.1617  -23.5691 H   0  0  0  0  0  0
    5.6919    3.8943  -21.3283 H   0  0  0  0  0  0
    6.9218    2.9051  -20.4244 H   0  0  0  0  0  0
    6.3674    2.4827  -24.6562 H   0  0  0  0  0  0
    6.1656    4.0499  -23.8086 H   0  0  0  0  0  0
   -5.5934    4.1327  -25.9362 H   0  0  0  0  0  0
    2.2540    1.6522  -24.6508 H   0  0  0  0  0  0
    3.1184    1.2649  -22.7478 H   0  0  0  0  0  0
    4.2992    0.5529  -23.9118 H   0  0  0  0  0  0
    4.8346   -0.0634  -21.5452 H   0  0  0  0  0  0
    7.7997    2.6290  -22.5875 H   0  0  0  0  0  0
    4.1357    2.4870  -20.7757 H   0  0  0  0  0  0
    5.3927    1.4704  -19.8683 H   0  0  0  0  0  0
   -1.4734    3.4888  -26.8456 H   0  0  0  0  0  0
    0.4176    2.2191  -20.7262 H   0  0  0  0  0  0
    7.1293    0.4447  -21.7133 H   0  0  0  0  0  0
   -2.9261    3.6184  -28.2634 H   0  0  0  0  0  0
    3.2050    8.4220  -22.5570 O   0  0  0  0  0  0
    7.6130    8.8210  -21.0260 N   0  3  0  0  0  0
    6.3520    9.6380  -21.1040 C   0  0  0  0  0  0
    5.0800    7.4670  -21.9160 C   0  0  0  0  0  0
    4.0240    9.3500  -22.1110 C   0  0  0  0  0  0
    5.1910    8.8570  -21.6930 C   0  0  0  0  0  0
    3.8680    7.2510  -22.4360 C   0  0  0  0  0  0
    8.3525    9.3804  -20.6307 H   0  0  0  0  0  0
    7.4550    8.0140  -20.4430 H   0  0  0  0  0  0
    7.8771    8.5209  -21.9513 H   0  0  0  0  0  0
    6.5360   10.5348  -21.7139 H   0  0  0  0  0  0
    6.0830    9.9920  -20.0979 H   0  0  0  0  0  0
    5.9089    6.8071  -21.6640 H   0  0  0  0  0  0
    3.8359   10.4214  -22.0590 H   0  0  0  0  0  0
  1  2  2  0  0  0
  1  3  1  0  0  0
  1 34  1  0  0  0
  2  6  1  0  0  0
  2 35  1  0  0  0
  3  5  2  0  0  0
  3 27  1  0  0  0
  4  5  1  0  0  0
  4  6  2  0  0  0
  4 18  1  0  0  0
  5 24  1  0  0  0
  6 10  1  0  0  0
  7 10  2  0  0  0
  7 23  1  0  0  0
  7 33  1  0  0  0
  8 21  1  0  0  0
  8 22  1  0  0  0
  8 36  1  0  0  0
  8 37  1  0  0  0
  9 21  1  0  0  0
  9 31  1  0  0  0
  9 38  1  0  0  0
  9 39  1  0  0  0
 10 40  1  0  0  0
 11 12  1  0  0  0
 11 14  2  0  0  0
 11 15  1  0  0  0
 12 17  1  0  0  0
 12 28  2  0  0  0
 13 28  1  0  0  0
 13 29  2  0  0  0
 13 58  1  0  0  0
 14 29  1  0  0  0
 14 31  1  0  0  0
 15 30  2  0  0  0
 15 41  1  0  0  0
 16 17  2  0  0  0
 16 18  1  0  0  0
 16 30  1  0  0  0
 17 26  1  0  0  0
 18 23  2  0  0  0
 19 20  1  0  0  0
 19 31  1  0  0  0
 19 42  1  0  0  0
 19 43  1  0  0  0
 20 22  1  0  0  0
 20 32  1  0  0  0
 20 44  1  0  0  0
 21 32  1  0  0  0
 21 45  1  0  0  0
 22 46  1  0  0  0
 22 47  1  0  0  0
 23 48  1  0  0  0
 24 25  3  0  0  0
 25 49  1  0  0  0
 32 50  1  0  0  0
 33 51  1  0  0  0
 52 56  1  0  0  0
 52 58  1  0  0  0
 53 54  1  0  0  0
 53 59  1  0  0  0
 53 60  1  0  0  0
 53 61  1  0  0  0
 54 57  1  0  0  0
 54 62  1  0  0  0
 54 63  1  0  0  0
 55 57  1  0  0  0
 55 58  2  0  0  0
 55 64  1  0  0  0
 56 57  2  0  0  0
 56 65  1  0  0  0
M  CHG  1  53   1
M  END
> <s_m_entry_id>
775

> <s_m_entry_name>
000000617.1

> <s_m_Source_Path>
/Users/zaksoul/Documents/3r_UNI/2nd_SEMESTER/BSC/FRAG_RECON/RESULTS/2

> <s_m_Source_File>
000000617.mol2

> <i_m_Source_File_Index>
1

$$$$
No_0_639
                    3D
 Schrodinger Suite 2022-4.
 64 70  0  0  1  0            999 V2000
   -4.9860    3.7420  -22.0780 C   0  0  0  0  0  0
   -5.2440    3.9130  -23.4180 C   0  0  0  0  0  0
   -3.7610    3.4400  -21.7310 C   0  0  0  0  0  0
   -2.8650    3.4780  -23.8980 C   0  0  0  0  0  0
   -2.7150    3.2580  -22.4730 C   0  0  0  0  0  0
   -4.2000    3.7900  -24.4260 C   0  0  0  0  0  0
   -3.4450    3.7290  -26.6240 C   0  0  0  0  0  0
    6.2420    2.6690  -21.3360 C   0  0  0  0  0  0
    6.1100    2.7620  -23.8880 C   0  0  0  0  0  0
   -4.4450    3.8990  -25.7640 C   0  0  0  0  0  0
    2.3540    3.4800  -23.9200 C   0  0  0  0  0  0
    1.5840    4.6320  -23.6460 C   0  0  0  0  0  0
    3.4350    5.7590  -22.9910 C   0  0  0  0  0  0
    3.7610    3.6140  -23.6100 C   0  0  0  0  0  0
    1.7570    2.3750  -24.5570 C   0  0  0  0  0  0
   -0.3310    3.2870  -24.4660 C   0  0  0  0  0  0
    0.2510    4.4950  -23.8940 C   0  0  0  0  0  0
   -1.7820    3.3510  -24.8220 C   0  0  0  0  0  0
    4.2530    1.0990  -23.2630 C   0  0  0  0  0  0
    5.1700    0.7260  -22.1080 C   0  0  2  0  0  0
    6.8310    2.1800  -22.6770 C   0  0  2  0  0  0
    5.1980    1.7520  -20.9630 C   0  0  0  0  0  0
   -2.1010    3.4940  -26.2530 C   0  0  0  0  0  0
   -1.3910    2.7970  -21.8640 C   0  0  0  0  0  0
   -0.3770    2.4140  -21.3500 C   0  0  0  0  0  0
   -0.5430    5.5840  -23.5730 F   0  0  0  0  0  0
   -3.5610    3.2190  -20.3440 F   0  0  0  0  0  0
    2.1130    5.7790  -23.1400 N   0  0  0  0  0  0
    4.2870    4.7520  -23.1900 N   0  0  0  0  0  0
    0.4480    2.3380  -24.8610 N   0  0  0  0  0  0
    4.6310    2.5220  -23.7640 N   0  0  0  0  0  0
    6.5780    0.7180  -22.5910 N   0  0  1  0  0  0
   -3.6170    3.7210  -28.0130 O   0  0  0  0  0  0
   -5.7844    3.8575  -21.3539 H   0  0  0  0  0  0
   -6.2487    4.1469  -23.7512 H   0  0  0  0  0  0
    5.8172    3.6750  -21.4682 H   0  0  0  0  0  0
    7.0283    2.6609  -20.5668 H   0  0  0  0  0  0
    6.4834    2.2796  -24.8033 H   0  0  0  0  0  0
    6.3019    3.8437  -23.9446 H   0  0  0  0  0  0
   -5.4458    4.1228  -26.1153 H   0  0  0  0  0  0
    2.3574    1.5116  -24.8200 H   0  0  0  0  0  0
    3.2088    1.0970  -22.9170 H   0  0  0  0  0  0
    4.3832    0.3755  -24.0813 H   0  0  0  0  0  0
    4.8995   -0.2661  -21.7174 H   0  0  0  0  0  0
    7.9099    2.3879  -22.7285 H   0  0  0  0  0  0
    4.2377    2.2876  -20.9317 H   0  0  0  0  0  0
    5.4746    1.2462  -20.0262 H   0  0  0  0  0  0
   -1.3332    3.4217  -27.0148 H   0  0  0  0  0  0
    0.5153    2.0769  -20.8969 H   0  0  0  0  0  0
    7.2026    0.2068  -21.8734 H   0  0  0  0  0  0
   -2.7774    3.5855  -28.4363 H   0  0  0  0  0  0
    4.4220    9.1880  -22.3130 O   0  0  0  0  0  0
    7.7480    9.2280  -21.4210 N   0  3  0  0  0  0
    3.5710    8.2290  -22.9130 N   0  0  0  0  0  0
    6.3940    9.2520  -20.7710 C   0  0  0  0  0  0
    5.1840    7.2310  -21.7240 C   0  0  0  0  0  0
    5.3470    8.5360  -21.6020 C   0  0  0  0  0  0
    4.0490    7.0680  -22.5570 C   0  0  0  0  0  0
    8.4107    9.7128  -20.8363 H   0  0  0  0  0  0
    8.0448    8.2726  -21.5439 H   0  0  0  0  0  0
    7.6980    9.6818  -22.3197 H   0  0  0  0  0  0
    6.0839   10.2952  -20.6110 H   0  0  0  0  0  0
    6.4570    8.7830  -19.7780 H   0  0  0  0  0  0
    5.8681    6.5469  -21.2240 H   0  0  0  0  0  0
  1  2  2  0  0  0
  1  3  1  0  0  0
  1 34  1  0  0  0
  2  6  1  0  0  0
  2 35  1  0  0  0
  3  5  2  0  0  0
  3 27  1  0  0  0
  4  5  1  0  0  0
  4  6  2  0  0  0
  4 18  1  0  0  0
  5 24  1  0  0  0
  6 10  1  0  0  0
  7 10  2  0  0  0
  7 23  1  0  0  0
  7 33  1  0  0  0
  8 21  1  0  0  0
  8 22  1  0  0  0
  8 36  1  0  0  0
  8 37  1  0  0  0
  9 21  1  0  0  0
  9 31  1  0  0  0
  9 38  1  0  0  0
  9 39  1  0  0  0
 10 40  1  0  0  0
 11 12  1  0  0  0
 11 14  2  0  0  0
 11 15  1  0  0  0
 12 17  1  0  0  0
 12 28  2  0  0  0
 13 28  1  0  0  0
 13 29  2  0  0  0
 13 58  1  0  0  0
 14 29  1  0  0  0
 14 31  1  0  0  0
 15 30  2  0  0  0
 15 41  1  0  0  0
 16 17  2  0  0  0
 16 18  1  0  0  0
 16 30  1  0  0  0
 17 26  1  0  0  0
 18 23  2  0  0  0
 19 20  1  0  0  0
 19 31  1  0  0  0
 19 42  1  0  0  0
 19 43  1  0  0  0
 20 22  1  0  0  0
 20 32  1  0  0  0
 20 44  1  0  0  0
 21 32  1  0  0  0
 21 45  1  0  0  0
 22 46  1  0  0  0
 22 47  1  0  0  0
 23 48  1  0  0  0
 24 25  3  0  0  0
 25 49  1  0  0  0
 32 50  1  0  0  0
 33 51  1  0  0  0
 52 54  1  0  0  0
 52 57  1  0  0  0
 53 55  1  0  0  0
 53 59  1  0  0  0
 53 60  1  0  0  0
 53 61  1  0  0  0
 54 58  2  0  0  0
 55 57  1  0  0  0
 55 62  1  0  0  0
 55 63  1  0  0  0
 56 57  2  0  0  0
 56 58  1  0  0  0
 56 64  1  0  0  0
M  CHG  1  53   1
M  END
> <s_m_entry_id>
776

> <s_m_entry_name>
000000618.1

> <s_m_Source_Path>
/Users/zaksoul/Documents/3r_UNI/2nd_SEMESTER/BSC/FRAG_RECON/RESULTS/2

> <s_m_Source_File>
000000618.mol2

> <i_m_Source_File_Index>
1

$$$$
No_0_640
                    3D
 Schrodinger Suite 2022-4.
 64 70  0  0  1  0            999 V2000
   -5.0700    3.6670  -21.8040 C   0  0  0  0  0  0
   -5.3380    3.8660  -23.1380 C   0  0  0  0  0  0
   -3.8400    3.3630  -21.4730 C   0  0  0  0  0  0
   -2.9620    3.4490  -23.6460 C   0  0  0  0  0  0
   -2.8000    3.2000  -22.2270 C   0  0  0  0  0  0
   -4.3020    3.7680  -24.1560 C   0  0  0  0  0  0
   -3.5640    3.7560  -26.3610 C   0  0  0  0  0  0
    6.1680    2.6170  -21.1740 C   0  0  0  0  0  0
    6.0150    2.7630  -23.7220 C   0  0  0  0  0  0
   -4.5580    3.9050  -25.4900 C   0  0  0  0  0  0
    2.2560    3.4700  -23.7090 C   0  0  0  0  0  0
    1.4850    4.6120  -23.4050 C   0  0  0  0  0  0
    3.3380    5.7320  -22.7410 C   0  0  0  0  0  0
    3.6660    3.6020  -23.4080 C   0  0  0  0  0  0
    1.6580    2.3760  -24.3650 C   0  0  0  0  0  0
   -0.4320    3.2780  -24.2380 C   0  0  0  0  0  0
    0.1510    4.4760  -23.6450 C   0  0  0  0  0  0
   -1.8860    3.3450  -24.5800 C   0  0  0  0  0  0
    4.1680    1.0810  -23.1180 C   0  0  0  0  0  0
    5.0950    0.6870  -21.9780 C   0  0  2  0  0  0
    6.7470    2.1590  -22.5300 C   0  0  2  0  0  0
    5.1290    1.6890  -20.8120 C   0  0  0  0  0  0
   -2.2160    3.5170  -26.0060 C   0  0  0  0  0  0
   -1.4700    2.7310  -21.6390 C   0  0  0  0  0  0
   -0.4500    2.3400  -21.1410 C   0  0  0  0  0  0
   -0.6440    5.5560  -23.2950 F   0  0  0  0  0  0
   -3.6290    3.1130  -20.0920 F   0  0  0  0  0  0
    2.0150    5.7510  -22.8790 N   0  0  0  0  0  0
    4.1910    4.7320  -22.9670 N   0  0  0  0  0  0
    0.3470    2.3410  -24.6590 N   0  0  0  0  0  0
    4.5380    2.5160  -23.5910 N   0  0  0  0  0  0
    6.5000    0.6940  -22.4720 N   0  0  1  0  0  0
   -3.7480    3.7770  -27.7490 O   0  0  0  0  0  0
   -5.8624    3.7654  -21.0709 H   0  0  0  0  0  0
   -6.3463    4.1028  -23.4580 H   0  0  0  0  0  0
    5.7382    3.6239  -21.2809 H   0  0  0  0  0  0
    6.9602    2.5948  -20.4111 H   0  0  0  0  0  0
    6.3824    2.3017  -24.6506 H   0  0  0  0  0  0
    6.2028    3.8463  -23.7573 H   0  0  0  0  0  0
   -5.5626    4.1318  -25.8282 H   0  0  0  0  0  0
    2.2593    1.5207  -24.6511 H   0  0  0  0  0  0
    3.1267    1.0689  -22.7638 H   0  0  0  0  0  0
    4.2941    0.3756  -23.9526 H   0  0  0  0  0  0
    4.8316   -0.3143  -21.6065 H   0  0  0  0  0  0
    7.8250    2.3708  -22.5855 H   0  0  0  0  0  0
    4.1674    2.2208  -20.7615 H   0  0  0  0  0  0
    5.4156    1.1643  -19.8887 H   0  0  0  0  0  0
   -1.4539    3.4648  -26.7751 H   0  0  0  0  0  0
    0.4468    1.9961  -20.7021 H   0  0  0  0  0  0
    7.1321    0.1699  -21.7704 H   0  0  0  0  0  0
   -2.9111    3.6533  -28.1813 H   0  0  0  0  0  0
    4.2340    9.1360  -21.8460 O   0  0  0  0  0  0
    7.6660    9.3860  -21.7330 N   0  3  0  0  0  0
    3.3280    8.1770  -22.3620 N   0  0  0  0  0  0
    6.5060    9.2060  -20.7960 C   0  0  0  0  0  0
    5.2380    7.2040  -21.7160 C   0  0  0  0  0  0
    5.3410    8.4970  -21.4580 C   0  0  0  0  0  0
    3.9510    7.0340  -22.2840 C   0  0  0  0  0  0
    8.4153    9.8602  -21.2538 H   0  0  0  0  0  0
    7.9870    8.4839  -22.0480 H   0  0  0  0  0  0
    7.3758    9.9343  -22.5275 H   0  0  0  0  0  0
    6.1751   10.1896  -20.4312 H   0  0  0  0  0  0
    6.8312    8.6326  -19.9154 H   0  0  0  0  0  0
    6.0641    6.5349  -21.4800 H   0  0  0  0  0  0
  1  2  2  0  0  0
  1  3  1  0  0  0
  1 34  1  0  0  0
  2  6  1  0  0  0
  2 35  1  0  0  0
  3  5  2  0  0  0
  3 27  1  0  0  0
  4  5  1  0  0  0
  4  6  2  0  0  0
  4 18  1  0  0  0
  5 24  1  0  0  0
  6 10  1  0  0  0
  7 10  2  0  0  0
  7 23  1  0  0  0
  7 33  1  0  0  0
  8 21  1  0  0  0
  8 22  1  0  0  0
  8 36  1  0  0  0
  8 37  1  0  0  0
  9 21  1  0  0  0
  9 31  1  0  0  0
  9 38  1  0  0  0
  9 39  1  0  0  0
 10 40  1  0  0  0
 11 12  1  0  0  0
 11 14  2  0  0  0
 11 15  1  0  0  0
 12 17  1  0  0  0
 12 28  2  0  0  0
 13 28  1  0  0  0
 13 29  2  0  0  0
 13 58  1  0  0  0
 14 29  1  0  0  0
 14 31  1  0  0  0
 15 30  2  0  0  0
 15 41  1  0  0  0
 16 17  2  0  0  0
 16 18  1  0  0  0
 16 30  1  0  0  0
 17 26  1  0  0  0
 18 23  2  0  0  0
 19 20  1  0  0  0
 19 31  1  0  0  0
 19 42  1  0  0  0
 19 43  1  0  0  0
 20 22  1  0  0  0
 20 32  1  0  0  0
 20 44  1  0  0  0
 21 32  1  0  0  0
 21 45  1  0  0  0
 22 46  1  0  0  0
 22 47  1  0  0  0
 23 48  1  0  0  0
 24 25  3  0  0  0
 25 49  1  0  0  0
 32 50  1  0  0  0
 33 51  1  0  0  0
 52 54  1  0  0  0
 52 57  1  0  0  0
 53 55  1  0  0  0
 53 59  1  0  0  0
 53 60  1  0  0  0
 53 61  1  0  0  0
 54 58  2  0  0  0
 55 57  1  0  0  0
 55 62  1  0  0  0
 55 63  1  0  0  0
 56 57  2  0  0  0
 56 58  1  0  0  0
 56 64  1  0  0  0
M  CHG  1  53   1
M  END
> <s_m_entry_id>
777

> <s_m_entry_name>
000000619.1

> <s_m_Source_Path>
/Users/zaksoul/Documents/3r_UNI/2nd_SEMESTER/BSC/FRAG_RECON/RESULTS/2

> <s_m_Source_File>
000000619.mol2

> <i_m_Source_File_Index>
1

$$$$
No_0_641
                    3D
 Schrodinger Suite 2022-4.
 64 70  0  0  1  0            999 V2000
   -4.8780    3.8180  -21.9050 C   0  0  0  0  0  0
   -5.1530    4.0040  -23.2390 C   0  0  0  0  0  0
   -3.6450    3.5240  -21.5760 C   0  0  0  0  0  0
   -2.7760    3.6010  -23.7530 C   0  0  0  0  0  0
   -2.6070    3.3630  -22.3320 C   0  0  0  0  0  0
   -4.1190    3.9060  -24.2610 C   0  0  0  0  0  0
   -3.3900    3.8840  -26.4680 C   0  0  0  0  0  0
    6.3690    2.8540  -21.3090 C   0  0  0  0  0  0
    6.2050    2.9790  -23.8580 C   0  0  0  0  0  0
   -4.3820    4.0310  -25.5940 C   0  0  0  0  0  0
    2.4420    3.6590  -23.8360 C   0  0  0  0  0  0
    1.6640    4.7980  -23.5370 C   0  0  0  0  0  0
    3.5110    5.9360  -22.8890 C   0  0  0  0  0  0
    3.8520    3.8030  -23.5410 C   0  0  0  0  0  0
    1.8490    2.5560  -24.4810 C   0  0  0  0  0  0
   -0.2470    3.4440  -24.3530 C   0  0  0  0  0  0
    0.3290    4.6500  -23.7710 C   0  0  0  0  0  0
   -1.7030    3.4980  -24.6910 C   0  0  0  0  0  0
    4.3740    1.2890  -23.2350 C   0  0  0  0  0  0
    5.3080    0.9100  -22.0960 C   0  0  2  0  0  0
    6.9470    2.3890  -22.6640 C   0  0  2  0  0  0
    5.3390    1.9210  -20.9370 C   0  0  0  0  0  0
   -2.0390    3.6570  -26.1160 C   0  0  0  0  0  0
   -1.2710    2.9080  -21.7460 C   0  0  0  0  0  0
   -0.2470    2.5290  -21.2490 C   0  0  0  0  0  0
   -0.4710    5.7270  -23.4260 F   0  0  0  0  0  0
   -3.4270    3.2860  -20.1950 F   0  0  0  0  0  0
    2.1870    5.9440  -23.0210 N   0  0  0  0  0  0
    4.3700    4.9410  -23.1110 N   0  0  0  0  0  0
    0.5370    2.5100  -24.7710 N   0  0  0  0  0  0
    4.7310    2.7230  -23.7200 N   0  0  0  0  0  0
    6.7100    0.9240  -22.5950 N   0  0  1  0  0  0
   -3.5790    3.8930  -27.8550 O   0  0  0  0  0  0
   -5.6681    3.9144  -21.1691 H   0  0  0  0  0  0
   -6.1639    4.2319  -23.5572 H   0  0  0  0  0  0
    5.9317    3.8570  -21.4221 H   0  0  0  0  0  0
    7.1642    2.8429  -20.5491 H   0  0  0  0  0  0
    6.5733    2.5138  -24.7843 H   0  0  0  0  0  0
    6.3855    4.0632  -23.9024 H   0  0  0  0  0  0
   -5.3893    4.2487  -25.9301 H   0  0  0  0  0  0
    2.4560    1.7032  -24.7629 H   0  0  0  0  0  0
    3.3341    1.2719  -22.8769 H   0  0  0  0  0  0
    4.5012    0.5783  -24.0649 H   0  0  0  0  0  0
    5.0528   -0.0905  -21.7168 H   0  0  0  0  0  0
    8.0230    2.6090  -22.7256 H   0  0  0  0  0  0
    4.3735    2.4456  -20.8866 H   0  0  0  0  0  0
    5.6318    1.4041  -20.0112 H   0  0  0  0  0  0
   -1.2800    3.6038  -26.8881 H   0  0  0  0  0  0
    0.6546    2.1951  -20.8122 H   0  0  0  0  0  0
    7.3482    0.4098  -21.8916 H   0  0  0  0  0  0
   -2.7429    3.7713  -28.2894 H   0  0  0  0  0  0
    4.4720    9.2520  -21.6160 O   0  0  0  0  0  0
    7.4660    9.2250  -20.4300 N   0  3  0  0  0  0
    5.4450    7.5670  -22.5160 N   0  0  0  0  0  0
    6.9340    9.4520  -21.8240 C   0  0  0  0  0  0
    5.5970    8.7600  -21.9950 C   0  0  0  0  0  0
    3.5350    8.3060  -21.8780 C   0  0  0  0  0  0
    4.1160    7.2460  -22.4430 C   0  0  0  0  0  0
    8.3548    9.6899  -20.3300 H   0  0  0  0  0  0
    6.8141    9.5969  -19.7571 H   0  0  0  0  0  0
    7.5850    8.2366  -20.2719 H   0  0  0  0  0  0
    7.6488    9.0531  -22.5588 H   0  0  0  0  0  0
    6.8130   10.5312  -21.9990 H   0  0  0  0  0  0
    2.4610    8.3070  -21.6980 H   0  0  0  0  0  0
  1  2  2  0  0  0
  1  3  1  0  0  0
  1 34  1  0  0  0
  2  6  1  0  0  0
  2 35  1  0  0  0
  3  5  2  0  0  0
  3 27  1  0  0  0
  4  5  1  0  0  0
  4  6  2  0  0  0
  4 18  1  0  0  0
  5 24  1  0  0  0
  6 10  1  0  0  0
  7 10  2  0  0  0
  7 23  1  0  0  0
  7 33  1  0  0  0
  8 21  1  0  0  0
  8 22  1  0  0  0
  8 36  1  0  0  0
  8 37  1  0  0  0
  9 21  1  0  0  0
  9 31  1  0  0  0
  9 38  1  0  0  0
  9 39  1  0  0  0
 10 40  1  0  0  0
 11 12  1  0  0  0
 11 14  2  0  0  0
 11 15  1  0  0  0
 12 17  1  0  0  0
 12 28  2  0  0  0
 13 28  1  0  0  0
 13 29  2  0  0  0
 13 58  1  0  0  0
 14 29  1  0  0  0
 14 31  1  0  0  0
 15 30  2  0  0  0
 15 41  1  0  0  0
 16 17  2  0  0  0
 16 18  1  0  0  0
 16 30  1  0  0  0
 17 26  1  0  0  0
 18 23  2  0  0  0
 19 20  1  0  0  0
 19 31  1  0  0  0
 19 42  1  0  0  0
 19 43  1  0  0  0
 20 22  1  0  0  0
 20 32  1  0  0  0
 20 44  1  0  0  0
 21 32  1  0  0  0
 21 45  1  0  0  0
 22 46  1  0  0  0
 22 47  1  0  0  0
 23 48  1  0  0  0
 24 25  3  0  0  0
 25 49  1  0  0  0
 32 50  1  0  0  0
 33 51  1  0  0  0
 52 56  1  0  0  0
 52 57  1  0  0  0
 53 55  1  0  0  0
 53 59  1  0  0  0
 53 60  1  0  0  0
 53 61  1  0  0  0
 54 56  2  0  0  0
 54 58  1  0  0  0
 55 56  1  0  0  0
 55 62  1  0  0  0
 55 63  1  0  0  0
 57 58  2  0  0  0
 57 64  1  0  0  0
M  CHG  1  53   1
M  END
> <s_m_entry_id>
778

> <s_m_entry_name>
000000620.1

> <s_m_Source_Path>
/Users/zaksoul/Documents/3r_UNI/2nd_SEMESTER/BSC/FRAG_RECON/RESULTS/2

> <s_m_Source_File>
000000620.mol2

> <i_m_Source_File_Index>
1

$$$$
No_0_642
                    3D
 Schrodinger Suite 2022-4.
 65 71  0  0  1  0            999 V2000
   -5.0920    3.4620  -21.9910 C   0  0  0  0  0  0
   -5.3630    3.6610  -23.3240 C   0  0  0  0  0  0
   -3.8540    3.2020  -21.6560 C   0  0  0  0  0  0
   -2.9710    3.3380  -23.8250 C   0  0  0  0  0  0
   -2.8050    3.0840  -22.4060 C   0  0  0  0  0  0
   -4.3190    3.6100  -24.3390 C   0  0  0  0  0  0
   -3.5730    3.6420  -26.5400 C   0  0  0  0  0  0
    6.1740    2.8340  -21.3190 C   0  0  0  0  0  0
    6.0260    2.9930  -23.8670 C   0  0  0  0  0  0
   -4.5750    3.7470  -25.6720 C   0  0  0  0  0  0
    2.2430    3.5570  -23.8650 C   0  0  0  0  0  0
    1.4280    4.6670  -23.5560 C   0  0  0  0  0  0
    3.2340    5.8510  -22.8760 C   0  0  0  0  0  0
    3.6460    3.7400  -23.5570 C   0  0  0  0  0  0
    1.6900    2.4460  -24.5310 C   0  0  0  0  0  0
   -0.4340    3.2680  -24.4070 C   0  0  0  0  0  0
    0.1010    4.4820  -23.8020 C   0  0  0  0  0  0
   -1.8880    3.2820  -24.7550 C   0  0  0  0  0  0
    4.2420    1.2380  -23.2830 C   0  0  0  0  0  0
    5.1790    0.8710  -22.1420 C   0  0  2  0  0  0
    6.7760    2.4090  -22.6760 C   0  0  2  0  0  0
    5.1700    1.8650  -20.9690 C   0  0  0  0  0  0
   -2.2190    3.4520  -26.1810 C   0  0  0  0  0  0
   -1.4600    2.6610  -21.8160 C   0  0  0  0  0  0
   -0.4290    2.3060  -21.3170 C   0  0  0  0  0  0
   -0.7350    5.5290  -23.4480 F   0  0  0  0  0  0
   -3.6390    2.9500  -20.2770 F   0  0  0  0  0  0
    1.9120    5.8210  -23.0190 N   0  0  0  0  0  0
    4.1260    4.8860  -23.1060 N   0  0  0  0  0  0
    0.3820    2.3640  -24.8320 N   0  0  0  0  0  0
    4.5590    2.6900  -23.7440 N   0  0  0  0  0  0
    6.5840    0.9350  -22.6300 N   0  0  1  0  0  0
   -3.7520    3.6670  -27.9290 O   0  0  0  0  0  0
   -5.8906    3.5242  -21.2606 H   0  0  0  0  0  0
   -6.3783    3.8618  -23.6464 H   0  0  0  0  0  0
    5.7069    3.8247  -21.4209 H   0  0  0  0  0  0
    6.9633    2.8370  -20.5529 H   0  0  0  0  0  0
    6.4148    2.5527  -24.7971 H   0  0  0  0  0  0
    6.1733    4.0828  -23.8932 H   0  0  0  0  0  0
   -5.5861    3.9376  -26.0131 H   0  0  0  0  0  0
    2.3247    1.6165  -24.8212 H   0  0  0  0  0  0
    3.2003    1.1835  -22.9338 H   0  0  0  0  0  0
    4.3984    0.5447  -24.1226 H   0  0  0  0  0  0
    4.9519   -0.1425  -21.7796 H   0  0  0  0  0  0
    7.8455    2.6613  -22.7254 H   0  0  0  0  0  0
    4.1888    2.3596  -20.9185 H   0  0  0  0  0  0
    5.4718    1.3441  -20.0484 H   0  0  0  0  0  0
   -1.4521    3.4339  -26.9469 H   0  0  0  0  0  0
    0.4789    1.9940  -20.8771 H   0  0  0  0  0  0
    7.2323    0.4300  -21.9292 H   0  0  0  0  0  0
   -2.9092    3.5780  -28.3583 H   0  0  0  0  0  0
    6.8560    8.2430  -19.8430 N   0  3  0  0  0  0
    4.8610    7.3650  -21.6300 N   0  0  0  0  0  0
    3.2340    8.3560  -22.7270 N   0  0  0  0  0  0
    6.0870    9.3210  -20.5590 C   0  0  0  0  0  0
    4.9930    8.7090  -21.4150 C   0  0  0  0  0  0
    4.0010    9.2930  -22.1000 C   0  0  0  0  0  0
    3.7960    7.1720  -22.4060 C   0  0  0  0  0  0
    7.5778    8.6639  -19.2792 H   0  0  0  0  0  0
    6.2299    7.7199  -19.2509 H   0  0  0  0  0  0
    7.2762    7.6237  -20.5183 H   0  0  0  0  0  0
    2.4249    8.6470  -23.2941 H   0  0  0  0  0  0
    6.7718    9.8969  -21.1988 H   0  0  0  0  0  0
    5.6369   10.0022  -19.8218 H   0  0  0  0  0  0
    3.7612   10.3503  -22.2029 H   0  0  0  0  0  0
  1  2  2  0  0  0
  1  3  1  0  0  0
  1 34  1  0  0  0
  2  6  1  0  0  0
  2 35  1  0  0  0
  3  5  2  0  0  0
  3 27  1  0  0  0
  4  5  1  0  0  0
  4  6  2  0  0  0
  4 18  1  0  0  0
  5 24  1  0  0  0
  6 10  1  0  0  0
  7 10  2  0  0  0
  7 23  1  0  0  0
  7 33  1  0  0  0
  8 21  1  0  0  0
  8 22  1  0  0  0
  8 36  1  0  0  0
  8 37  1  0  0  0
  9 21  1  0  0  0
  9 31  1  0  0  0
  9 38  1  0  0  0
  9 39  1  0  0  0
 10 40  1  0  0  0
 11 12  1  0  0  0
 11 14  2  0  0  0
 11 15  1  0  0  0
 12 17  1  0  0  0
 12 28  2  0  0  0
 13 28  1  0  0  0
 13 29  2  0  0  0
 13 58  1  0  0  0
 14 29  1  0  0  0
 14 31  1  0  0  0
 15 30  2  0  0  0
 15 41  1  0  0  0
 16 17  2  0  0  0
 16 18  1  0  0  0
 16 30  1  0  0  0
 17 26  1  0  0  0
 18 23  2  0  0  0
 19 20  1  0  0  0
 19 31  1  0  0  0
 19 42  1  0  0  0
 19 43  1  0  0  0
 20 22  1  0  0  0
 20 32  1  0  0  0
 20 44  1  0  0  0
 21 32  1  0  0  0
 21 45  1  0  0  0
 22 46  1  0  0  0
 22 47  1  0  0  0
 23 48  1  0  0  0
 24 25  3  0  0  0
 25 49  1  0  0  0
 32 50  1  0  0  0
 33 51  1  0  0  0
 52 55  1  0  0  0
 52 59  1  0  0  0
 52 60  1  0  0  0
 52 61  1  0  0  0
 53 56  1  0  0  0
 53 58  2  0  0  0
 54 57  1  0  0  0
 54 58  1  0  0  0
 54 62  1  0  0  0
 55 56  1  0  0  0
 55 63  1  0  0  0
 55 64  1  0  0  0
 56 57  2  0  0  0
 57 65  1  0  0  0
M  CHG  1  52   1
M  END
> <s_m_entry_id>
779

> <s_m_entry_name>
000000621.1

> <s_m_Source_Path>
/Users/zaksoul/Documents/3r_UNI/2nd_SEMESTER/BSC/FRAG_RECON/RESULTS/2

> <s_m_Source_File>
000000621.mol2

> <i_m_Source_File_Index>
1

$$$$
No_0_643
                    3D
 Schrodinger Suite 2022-4.
 65 71  0  0  1  0            999 V2000
   -4.9660    3.6580  -21.6940 C   0  0  0  0  0  0
   -5.2480    3.8970  -23.0190 C   0  0  0  0  0  0
   -3.7300    3.3600  -21.3820 C   0  0  0  0  0  0
   -2.8700    3.5310  -23.5570 C   0  0  0  0  0  0
   -2.6940    3.2370  -22.1480 C   0  0  0  0  0  0
   -4.2170    3.8470  -24.0470 C   0  0  0  0  0  0
   -3.4960    3.9190  -26.2560 C   0  0  0  0  0  0
    6.2890    2.7470  -21.1780 C   0  0  0  0  0  0
    6.1150    2.9750  -23.7190 C   0  0  0  0  0  0
   -4.4860    4.0250  -25.3740 C   0  0  0  0  0  0
    2.3470    3.6270  -23.6560 C   0  0  0  0  0  0
    1.5630    4.7480  -23.3090 C   0  0  0  0  0  0
    3.4040    5.8710  -22.6210 C   0  0  0  0  0  0
    3.7570    3.7690  -23.3600 C   0  0  0  0  0  0
    1.7600    2.5480  -24.3430 C   0  0  0  0  0  0
   -0.3420    3.4160  -24.1720 C   0  0  0  0  0  0
    0.2280    4.6010  -23.5430 C   0  0  0  0  0  0
   -1.8000    3.4730  -24.5020 C   0  0  0  0  0  0
    4.2970    1.2470  -23.1580 C   0  0  0  0  0  0
    5.2380    0.8290  -22.0390 C   0  0  2  0  0  0
    6.8650    2.3420  -22.5520 C   0  0  2  0  0  0
    5.2660    1.7930  -20.8400 C   0  0  0  0  0  0
   -2.1430    3.6880  -25.9180 C   0  0  0  0  0  0
   -1.3520    2.7670  -21.5850 C   0  0  0  0  0  0
   -0.3240    2.3750  -21.1080 C   0  0  0  0  0  0
   -0.5780    5.6570  -23.1520 F   0  0  0  0  0  0
   -3.5050    3.0670  -20.0120 F   0  0  0  0  0  0
    2.0810    5.8760  -22.7480 N   0  0  0  0  0  0
    4.2700    4.8910  -22.8860 N   0  0  0  0  0  0
    0.4470    2.5040  -24.6300 N   0  0  0  0  0  0
    4.6430    2.7020  -23.5860 N   0  0  0  0  0  0
    6.6380    0.8730  -22.5420 N   0  0  1  0  0  0
   -3.6900    3.9830  -27.6410 O   0  0  0  0  0  0
   -5.7545    3.7203  -20.9527 H   0  0  0  0  0  0
   -6.2619    4.1301  -23.3235 H   0  0  0  0  0  0
    5.8447    3.7508  -21.2487 H   0  0  0  0  0  0
    7.0873    2.7107  -20.4221 H   0  0  0  0  0  0
    6.4823    2.5492  -24.6644 H   0  0  0  0  0  0
    6.2886    4.0612  -23.7200 H   0  0  0  0  0  0
   -5.4961    4.2489  -25.6973 H   0  0  0  0  0  0
    2.3703    1.7109  -24.6622 H   0  0  0  0  0  0
    3.2587    1.2087  -22.7968 H   0  0  0  0  0  0
    4.4262    0.5725  -24.0173 H   0  0  0  0  0  0
    4.9907   -0.1874  -21.6988 H   0  0  0  0  0  0
    7.9396    2.5700  -22.6085 H   0  0  0  0  0  0
    4.2975    2.3091  -20.7653 H   0  0  0  0  0  0
    5.5666    1.2412  -19.9371 H   0  0  0  0  0  0
   -1.3867    3.6709  -26.6944 H   0  0  0  0  0  0
    0.5809    2.0300  -20.6870 H   0  0  0  0  0  0
    7.2825    0.3354  -21.8623 H   0  0  0  0  0  0
   -2.8549    3.8850  -28.0833 H   0  0  0  0  0  0
    7.5370    8.1540  -20.2240 N   0  3  0  0  0  0
    5.2130    7.3450  -21.5990 N   0  0  0  0  0  0
    3.3290    8.3340  -22.1480 N   0  0  0  0  0  0
    6.5720    9.2480  -20.5940 C   0  0  0  0  0  0
    5.3330    8.6600  -21.2450 C   0  0  0  0  0  0
    4.1810    9.2460  -21.5990 C   0  0  0  0  0  0
    4.0030    7.1660  -22.1250 C   0  0  0  0  0  0
    8.3542    8.5571  -19.7929 H   0  0  0  0  0  0
    7.0950    7.5200  -19.5770 H   0  0  0  0  0  0
    7.8100    7.6499  -21.0531 H   0  0  0  0  0  0
    2.3958    8.6290  -22.4691 H   0  0  0  0  0  0
    7.0582    9.9442  -21.2932 H   0  0  0  0  0  0
    6.2820    9.8020  -19.6890 H   0  0  0  0  0  0
    3.8769   10.2873  -21.5030 H   0  0  0  0  0  0
  1  2  2  0  0  0
  1  3  1  0  0  0
  1 34  1  0  0  0
  2  6  1  0  0  0
  2 35  1  0  0  0
  3  5  2  0  0  0
  3 27  1  0  0  0
  4  5  1  0  0  0
  4  6  2  0  0  0
  4 18  1  0  0  0
  5 24  1  0  0  0
  6 10  1  0  0  0
  7 10  2  0  0  0
  7 23  1  0  0  0
  7 33  1  0  0  0
  8 21  1  0  0  0
  8 22  1  0  0  0
  8 36  1  0  0  0
  8 37  1  0  0  0
  9 21  1  0  0  0
  9 31  1  0  0  0
  9 38  1  0  0  0
  9 39  1  0  0  0
 10 40  1  0  0  0
 11 12  1  0  0  0
 11 14  2  0  0  0
 11 15  1  0  0  0
 12 17  1  0  0  0
 12 28  2  0  0  0
 13 28  1  0  0  0
 13 29  2  0  0  0
 13 58  1  0  0  0
 14 29  1  0  0  0
 14 31  1  0  0  0
 15 30  2  0  0  0
 15 41  1  0  0  0
 16 17  2  0  0  0
 16 18  1  0  0  0
 16 30  1  0  0  0
 17 26  1  0  0  0
 18 23  2  0  0  0
 19 20  1  0  0  0
 19 31  1  0  0  0
 19 42  1  0  0  0
 19 43  1  0  0  0
 20 22  1  0  0  0
 20 32  1  0  0  0
 20 44  1  0  0  0
 21 32  1  0  0  0
 21 45  1  0  0  0
 22 46  1  0  0  0
 22 47  1  0  0  0
 23 48  1  0  0  0
 24 25  3  0  0  0
 25 49  1  0  0  0
 32 50  1  0  0  0
 33 51  1  0  0  0
 52 55  1  0  0  0
 52 59  1  0  0  0
 52 60  1  0  0  0
 52 61  1  0  0  0
 53 56  1  0  0  0
 53 58  2  0  0  0
 54 57  1  0  0  0
 54 58  1  0  0  0
 54 62  1  0  0  0
 55 56  1  0  0  0
 55 63  1  0  0  0
 55 64  1  0  0  0
 56 57  2  0  0  0
 57 65  1  0  0  0
M  CHG  1  52   1
M  END
> <s_m_entry_id>
780

> <s_m_entry_name>
000000622.1

> <s_m_Source_Path>
/Users/zaksoul/Documents/3r_UNI/2nd_SEMESTER/BSC/FRAG_RECON/RESULTS/2

> <s_m_Source_File>
000000622.mol2

> <i_m_Source_File_Index>
1

$$$$
No_0_644
                    3D
 Schrodinger Suite 2022-4.
 64 70  0  0  1  0            999 V2000
   -5.1990    3.8370  -21.8630 C   0  0  0  0  0  0
   -5.4300    4.0040  -23.2080 C   0  0  0  0  0  0
   -3.9780    3.5460  -21.4900 C   0  0  0  0  0  0
   -3.0390    3.5880  -23.6380 C   0  0  0  0  0  0
   -2.9160    3.3710  -22.2100 C   0  0  0  0  0  0
   -4.3650    3.8880  -24.1940 C   0  0  0  0  0  0
   -3.5650    3.8290  -26.3750 C   0  0  0  0  0  0
    6.0210    2.8570  -20.8900 C   0  0  0  0  0  0
    5.9390    2.9440  -23.4440 C   0  0  0  0  0  0
   -4.5840    3.9930  -25.5370 C   0  0  0  0  0  0
    2.1790    3.6320  -23.5540 C   0  0  0  0  0  0
    1.3950    4.7780  -23.2980 C   0  0  0  0  0  0
    3.2230    5.9210  -22.6080 C   0  0  0  0  0  0
    3.5790    3.7780  -23.2160 C   0  0  0  0  0  0
    1.6050    2.5210  -24.2010 C   0  0  0  0  0  0
   -0.4920    3.4160  -24.1540 C   0  0  0  0  0  0
    0.0680    4.6290  -23.5720 C   0  0  0  0  0  0
   -1.9370    3.4680  -24.5390 C   0  0  0  0  0  0
    4.0840    1.2670  -22.8540 C   0  0  0  0  0  0
    4.9800    0.9040  -21.6800 C   0  0  2  0  0  0
    6.6400    2.3710  -22.2180 C   0  0  2  0  0  0
    4.9760    1.9330  -20.5360 C   0  0  0  0  0  0
   -2.2270    3.6050  -25.9770 C   0  0  0  0  0  0
   -1.6010    2.9220  -21.5730 C   0  0  0  0  0  0
   -0.5950    2.5490  -21.0380 C   0  0  0  0  0  0
   -0.7400    5.7130  -23.2700 F   0  0  0  0  0  0
   -3.8050    3.3290  -20.0980 F   0  0  0  0  0  0
    1.9050    5.9300  -22.7830 N   0  0  0  0  0  0
    4.0860    4.9210  -22.7870 N   0  0  0  0  0  0
    0.3020    2.4730  -24.5320 N   0  0  0  0  0  0
    4.4600    2.6930  -23.3490 N   0  0  0  0  0  0
    6.3970    0.9070  -22.1340 N   0  0  1  0  0  0
   -3.7090    3.8170  -27.7690 O   0  0  0  0  0  0
   -6.0119    3.9474  -21.1545 H   0  0  0  0  0  0
   -6.4298    4.2289  -23.5613 H   0  0  0  0  0  0
    5.5901    3.8590  -21.0323 H   0  0  0  0  0  0
    6.7907    2.8570  -20.1042 H   0  0  0  0  0  0
    6.3357    2.4635  -24.3505 H   0  0  0  0  0  0
    6.1237    4.0270  -23.4985 H   0  0  0  0  0  0
   -5.5797    4.2068  -25.9084 H   0  0  0  0  0  0
    2.2177    1.6622  -24.4501 H   0  0  0  0  0  0
    3.0331    1.2579  -22.5292 H   0  0  0  0  0  0
    4.2364    0.5434  -23.6684 H   0  0  0  0  0  0
    4.7097   -0.0894  -21.2927 H   0  0  0  0  0  0
    7.7182    2.5868  -22.2472 H   0  0  0  0  0  0
    4.0110    2.4609  -20.5249 H   0  0  0  0  0  0
    5.2374    1.4303  -19.5932 H   0  0  0  0  0  0
   -1.4431    3.5388  -26.7228 H   0  0  0  0  0  0
    0.2908    2.2191  -20.5671 H   0  0  0  0  0  0
    7.0115    0.4026  -21.4030 H   0  0  0  0  0  0
   -2.8593    3.6874  -28.1736 H   0  0  0  0  0  0
    3.3560    8.3980  -22.5170 O   0  0  0  0  0  0
    7.4430    9.6020  -21.3480 N   0  3  0  0  0  0
    4.8710    7.3730  -21.3810 N   0  0  0  0  0  0
    6.2710    9.2900  -20.4490 C   0  0  0  0  0  0
    5.1160    8.7050  -21.2380 C   0  0  0  0  0  0
    4.1580    9.3140  -21.9350 C   0  0  0  0  0  0
    3.8170    7.2360  -22.1630 C   0  0  0  0  0  0
    8.1955    9.9882  -20.7997 H   0  0  0  0  0  0
    7.7558    8.7564  -21.7988 H   0  0  0  0  0  0
    7.1612   10.2696  -22.0486 H   0  0  0  0  0  0
    5.9420   10.2101  -19.9439 H   0  0  0  0  0  0
    6.5849    8.5751  -19.6741 H   0  0  0  0  0  0
    4.1150   10.4017  -21.9670 H   0  0  0  0  0  0
  1  2  2  0  0  0
  1  3  1  0  0  0
  1 34  1  0  0  0
  2  6  1  0  0  0
  2 35  1  0  0  0
  3  5  2  0  0  0
  3 27  1  0  0  0
  4  5  1  0  0  0
  4  6  2  0  0  0
  4 18  1  0  0  0
  5 24  1  0  0  0
  6 10  1  0  0  0
  7 10  2  0  0  0
  7 23  1  0  0  0
  7 33  1  0  0  0
  8 21  1  0  0  0
  8 22  1  0  0  0
  8 36  1  0  0  0
  8 37  1  0  0  0
  9 21  1  0  0  0
  9 31  1  0  0  0
  9 38  1  0  0  0
  9 39  1  0  0  0
 10 40  1  0  0  0
 11 12  1  0  0  0
 11 14  2  0  0  0
 11 15  1  0  0  0
 12 17  1  0  0  0
 12 28  2  0  0  0
 13 28  1  0  0  0
 13 29  2  0  0  0
 13 58  1  0  0  0
 14 29  1  0  0  0
 14 31  1  0  0  0
 15 30  2  0  0  0
 15 41  1  0  0  0
 16 17  2  0  0  0
 16 18  1  0  0  0
 16 30  1  0  0  0
 17 26  1  0  0  0
 18 23  2  0  0  0
 19 20  1  0  0  0
 19 31  1  0  0  0
 19 42  1  0  0  0
 19 43  1  0  0  0
 20 22  1  0  0  0
 20 32  1  0  0  0
 20 44  1  0  0  0
 21 32  1  0  0  0
 21 45  1  0  0  0
 22 46  1  0  0  0
 22 47  1  0  0  0
 23 48  1  0  0  0
 24 25  3  0  0  0
 25 49  1  0  0  0
 32 50  1  0  0  0
 33 51  1  0  0  0
 52 57  1  0  0  0
 52 58  1  0  0  0
 53 55  1  0  0  0
 53 59  1  0  0  0
 53 60  1  0  0  0
 53 61  1  0  0  0
 54 56  1  0  0  0
 54 58  2  0  0  0
 55 56  1  0  0  0
 55 62  1  0  0  0
 55 63  1  0  0  0
 56 57  2  0  0  0
 57 64  1  0  0  0
M  CHG  1  53   1
M  END
> <s_m_entry_id>
781

> <s_m_entry_name>
000000623.1

> <s_m_Source_Path>
/Users/zaksoul/Documents/3r_UNI/2nd_SEMESTER/BSC/FRAG_RECON/RESULTS/2

> <s_m_Source_File>
000000623.mol2

> <i_m_Source_File_Index>
1

$$$$
No_0_645
                    3D
 Schrodinger Suite 2022-4.
 65 70  0  0  1  0            999 V2000
   -4.9190    3.7090  -22.2000 C   0  0  0  0  0  0
   -5.1700    3.8810  -23.5410 C   0  0  0  0  0  0
   -3.6900    3.4300  -21.8460 C   0  0  0  0  0  0
   -2.7800    3.4930  -24.0060 C   0  0  0  0  0  0
   -2.6360    3.2700  -22.5800 C   0  0  0  0  0  0
   -4.1170    3.7820  -24.5420 C   0  0  0  0  0  0
   -3.3450    3.7440  -26.7350 C   0  0  0  0  0  0
    6.3230    2.8490  -21.3820 C   0  0  0  0  0  0
    6.2060    2.9490  -23.9350 C   0  0  0  0  0  0
   -4.3550    3.8920  -25.8820 C   0  0  0  0  0  0
    2.4380    3.5960  -23.9910 C   0  0  0  0  0  0
    1.6440    4.7310  -23.7180 C   0  0  0  0  0  0
    3.4680    5.8910  -23.0460 C   0  0  0  0  0  0
    3.8400    3.7550  -23.6700 C   0  0  0  0  0  0
    1.8670    2.4820  -24.6360 C   0  0  0  0  0  0
   -0.2390    3.3530  -24.5570 C   0  0  0  0  0  0
    0.3150    4.5690  -23.9750 C   0  0  0  0  0  0
   -1.6890    3.3910  -24.9220 C   0  0  0  0  0  0
    4.3770    1.2480  -23.3290 C   0  0  0  0  0  0
    5.2930    0.8880  -22.1690 C   0  0  2  0  0  0
    6.9300    2.3770  -22.7210 C   0  0  2  0  0  0
    5.2930    1.9110  -21.0210 C   0  0  0  0  0  0
   -2.0000    3.5330  -26.3550 C   0  0  0  0  0  0
   -1.3080    2.8330  -21.9640 C   0  0  0  0  0  0
   -0.2900    2.4670  -21.4440 C   0  0  0  0  0  0
   -0.5010    5.6420  -23.6560 F   0  0  0  0  0  0
   -3.4960    3.2070  -20.4580 F   0  0  0  0  0  0
    2.1480    5.8860  -23.2030 N   0  0  0  0  0  0
    4.3410    4.9010  -23.2420 N   0  0  0  0  0  0
    0.5610    2.4210  -24.9500 N   0  0  0  0  0  0
    4.7310    2.6800  -23.8220 N   0  0  0  0  0  0
    6.7040    0.9100  -22.6420 N   0  0  1  0  0  0
   -3.5080    3.7380  -28.1260 O   0  0  0  0  0  0
   -5.7244    3.8064  -21.4810 H   0  0  0  0  0  0
   -6.1767    4.0968  -23.8802 H   0  0  0  0  0  0
    5.8791    3.8469  -21.5132 H   0  0  0  0  0  0
    7.1033    2.8520  -20.6067 H   0  0  0  0  0  0
    6.5956    2.4777  -24.8494 H   0  0  0  0  0  0
    6.3786    4.0342  -23.9855 H   0  0  0  0  0  0
   -5.3579    4.0978  -26.2384 H   0  0  0  0  0  0
    2.4851    1.6312  -24.8989 H   0  0  0  0  0  0
    3.3305    1.2248  -22.9909 H   0  0  0  0  0  0
    4.5273    0.5317  -24.1502 H   0  0  0  0  0  0
    5.0397   -0.1110  -21.7845 H   0  0  0  0  0  0
    8.0052    2.6052  -22.7644 H   0  0  0  0  0  0
    4.3223    2.4276  -20.9927 H   0  0  0  0  0  0
    5.5726    1.4064  -20.0844 H   0  0  0  0  0  0
   -1.2255    3.4788  -27.1115 H   0  0  0  0  0  0
    0.6056    2.1448  -20.9867 H   0  0  0  0  0  0
    7.3336    0.4076  -21.9226 H   0  0  0  0  0  0
   -2.6625    3.6202  -28.5428 H   0  0  0  0  0  0
    3.2710    8.1380  -22.4300 O   0  0  0  0  0  0
    7.9590    8.3900  -23.5410 N   0  3  0  0  0  0
    5.3860    7.2780  -22.4260 N   0  0  0  0  0  0
    6.0080    8.5350  -21.9840 C   0  0  0  0  0  0
    7.5410    8.5230  -22.1060 C   0  0  0  0  0  0
    4.0540    7.2100  -22.6010 C   0  0  0  0  0  0
    8.9653    8.3840  -23.5990 H   0  0  0  0  0  0
    7.5962    7.5284  -23.9178 H   0  0  0  0  0  0
    7.5967    9.1676  -24.0704 H   0  0  0  0  0  0
    5.9552    6.4738  -22.5970 H   0  0  0  0  0  0
    5.7259    8.7341  -20.9396 H   0  0  0  0  0  0
    5.6008    9.3705  -22.5723 H   0  0  0  0  0  0
    7.9488    9.4566  -21.6912 H   0  0  0  0  0  0
    7.9487    7.6816  -21.5264 H   0  0  0  0  0  0
  1  2  2  0  0  0
  1  3  1  0  0  0
  1 34  1  0  0  0
  2  6  1  0  0  0
  2 35  1  0  0  0
  3  5  2  0  0  0
  3 27  1  0  0  0
  4  5  1  0  0  0
  4  6  2  0  0  0
  4 18  1  0  0  0
  5 24  1  0  0  0
  6 10  1  0  0  0
  7 10  2  0  0  0
  7 23  1  0  0  0
  7 33  1  0  0  0
  8 21  1  0  0  0
  8 22  1  0  0  0
  8 36  1  0  0  0
  8 37  1  0  0  0
  9 21  1  0  0  0
  9 31  1  0  0  0
  9 38  1  0  0  0
  9 39  1  0  0  0
 10 40  1  0  0  0
 11 12  1  0  0  0
 11 14  2  0  0  0
 11 15  1  0  0  0
 12 17  1  0  0  0
 12 28  2  0  0  0
 13 28  1  0  0  0
 13 29  2  0  0  0
 13 57  1  0  0  0
 14 29  1  0  0  0
 14 31  1  0  0  0
 15 30  2  0  0  0
 15 41  1  0  0  0
 16 17  2  0  0  0
 16 18  1  0  0  0
 16 30  1  0  0  0
 17 26  1  0  0  0
 18 23  2  0  0  0
 19 20  1  0  0  0
 19 31  1  0  0  0
 19 42  1  0  0  0
 19 43  1  0  0  0
 20 22  1  0  0  0
 20 32  1  0  0  0
 20 44  1  0  0  0
 21 32  1  0  0  0
 21 45  1  0  0  0
 22 46  1  0  0  0
 22 47  1  0  0  0
 23 48  1  0  0  0
 24 25  3  0  0  0
 25 49  1  0  0  0
 32 50  1  0  0  0
 33 51  1  0  0  0
 52 57  2  0  0  0
 53 56  1  0  0  0
 53 58  1  0  0  0
 53 59  1  0  0  0
 53 60  1  0  0  0
 54 55  1  0  0  0
 54 57  1  0  0  0
 54 61  1  0  0  0
 55 56  1  0  0  0
 55 62  1  0  0  0
 55 63  1  0  0  0
 56 64  1  0  0  0
 56 65  1  0  0  0
M  CHG  1  53   1
M  END
> <s_m_entry_id>
782

> <s_m_entry_name>
000000624.1

> <s_m_Source_Path>
/Users/zaksoul/Documents/3r_UNI/2nd_SEMESTER/BSC/FRAG_RECON/RESULTS/2

> <s_m_Source_File>
000000624.mol2

> <i_m_Source_File_Index>
1

$$$$
No_0_646
                    3D
 Schrodinger Suite 2022-4.
 65 70  0  0  1  0            999 V2000
   -5.0270    3.5870  -21.6510 C   0  0  0  0  0  0
   -5.3160    3.8000  -22.9780 C   0  0  0  0  0  0
   -3.7930    3.2740  -21.3430 C   0  0  0  0  0  0
   -2.9490    3.3810  -23.5280 C   0  0  0  0  0  0
   -2.7660    3.1160  -22.1140 C   0  0  0  0  0  0
   -4.2960    3.7090  -24.0140 C   0  0  0  0  0  0
   -3.5930    3.7170  -26.2300 C   0  0  0  0  0  0
    6.2160    2.4940  -21.2100 C   0  0  0  0  0  0
    6.0230    2.6670  -23.7540 C   0  0  0  0  0  0
   -4.5730    3.8600  -25.3420 C   0  0  0  0  0  0
    2.2680    3.3850  -23.6740 C   0  0  0  0  0  0
    1.5050    4.5270  -23.3460 C   0  0  0  0  0  0
    3.3720    5.6340  -22.7000 C   0  0  0  0  0  0
    3.6820    3.5100  -23.3940 C   0  0  0  0  0  0
    1.6550    2.3000  -24.3310 C   0  0  0  0  0  0
   -0.4290    3.2080  -24.1620 C   0  0  0  0  0  0
    0.1660    4.3970  -23.5660 C   0  0  0  0  0  0
   -1.8890    3.2830  -24.4810 C   0  0  0  0  0  0
    4.1810    0.9840  -23.1370 C   0  0  0  0  0  0
    5.1250    0.5760  -22.0170 C   0  0  2  0  0  0
    6.7720    2.0480  -22.5790 C   0  0  2  0  0  0
    5.1800    1.5660  -20.8410 C   0  0  0  0  0  0
   -2.2410    3.4700  -25.8990 C   0  0  0  0  0  0
   -1.4280    2.6370  -21.5520 C   0  0  0  0  0  0
   -0.4020    2.2380  -21.0750 C   0  0  0  0  0  0
   -0.6190    5.4760  -23.1920 F   0  0  0  0  0  0
   -3.5610    3.0100  -19.9680 F   0  0  0  0  0  0
    2.0470    5.6580  -22.8170 N   0  0  0  0  0  0
    4.2180    4.6340  -22.9500 N   0  0  0  0  0  0
    0.3390    2.2730  -24.6050 N   0  0  0  0  0  0
    4.5470    2.4230  -23.6020 N   0  0  0  0  0  0
    6.5210    0.5840  -22.5330 N   0  0  1  0  0  0
   -3.7990    3.7520  -27.6150 O   0  0  0  0  0  0
   -5.8076    3.6794  -20.9046 H   0  0  0  0  0  0
   -6.3282    4.0430  -23.2803 H   0  0  0  0  0  0
    5.7884    3.5035  -21.2998 H   0  0  0  0  0  0
    7.0203    2.4617  -20.4602 H   0  0  0  0  0  0
    6.3743    2.2138  -24.6927 H   0  0  0  0  0  0
    6.2147    3.7498  -23.7812 H   0  0  0  0  0  0
   -5.5819    4.0939  -25.6622 H   0  0  0  0  0  0
    2.2492    1.4459  -24.6351 H   0  0  0  0  0  0
    3.1452    0.9719  -22.7669 H   0  0  0  0  0  0
    4.2910    0.2878  -23.9815 H   0  0  0  0  0  0
    4.8636   -0.4281  -21.6517 H   0  0  0  0  0  0
    7.8497    2.2569  -22.6496 H   0  0  0  0  0  0
    4.2214    2.1008  -20.7694 H   0  0  0  0  0  0
    5.4788    1.0310  -19.9275 H   0  0  0  0  0  0
   -1.4914    3.4228  -26.6807 H   0  0  0  0  0  0
    0.5007    1.8871  -20.6541 H   0  0  0  0  0  0
    7.1616    0.0504  -21.8465 H   0  0  0  0  0  0
   -2.9691    3.6303  -28.0611 H   0  0  0  0  0  0
    3.4830    7.9690  -22.6390 O   0  0  0  0  0  0
    8.0500    7.2670  -21.2510 N   0  3  0  0  0  0
    5.0680    6.8560  -21.4280 N   0  0  0  0  0  0
    5.7080    8.0860  -20.9410 C   0  0  0  0  0  0
    7.0670    7.8300  -20.2670 C   0  0  0  0  0  0
    3.9960    6.9290  -22.2390 C   0  0  0  0  0  0
    8.9322    7.1071  -20.7904 H   0  0  0  0  0  0
    7.6988    6.3956  -21.6162 H   0  0  0  0  0  0
    8.1801    7.9204  -22.0075 H   0  0  0  0  0  0
    5.4291    5.9637  -21.1569 H   0  0  0  0  0  0
    5.0363    8.5898  -20.2303 H   0  0  0  0  0  0
    5.8411    8.7854  -21.7795 H   0  0  0  0  0  0
    7.4567    8.7744  -19.8593 H   0  0  0  0  0  0
    6.9360    7.1233  -19.4343 H   0  0  0  0  0  0
  1  2  2  0  0  0
  1  3  1  0  0  0
  1 34  1  0  0  0
  2  6  1  0  0  0
  2 35  1  0  0  0
  3  5  2  0  0  0
  3 27  1  0  0  0
  4  5  1  0  0  0
  4  6  2  0  0  0
  4 18  1  0  0  0
  5 24  1  0  0  0
  6 10  1  0  0  0
  7 10  2  0  0  0
  7 23  1  0  0  0
  7 33  1  0  0  0
  8 21  1  0  0  0
  8 22  1  0  0  0
  8 36  1  0  0  0
  8 37  1  0  0  0
  9 21  1  0  0  0
  9 31  1  0  0  0
  9 38  1  0  0  0
  9 39  1  0  0  0
 10 40  1  0  0  0
 11 12  1  0  0  0
 11 14  2  0  0  0
 11 15  1  0  0  0
 12 17  1  0  0  0
 12 28  2  0  0  0
 13 28  1  0  0  0
 13 29  2  0  0  0
 13 57  1  0  0  0
 14 29  1  0  0  0
 14 31  1  0  0  0
 15 30  2  0  0  0
 15 41  1  0  0  0
 16 17  2  0  0  0
 16 18  1  0  0  0
 16 30  1  0  0  0
 17 26  1  0  0  0
 18 23  2  0  0  0
 19 20  1  0  0  0
 19 31  1  0  0  0
 19 42  1  0  0  0
 19 43  1  0  0  0
 20 22  1  0  0  0
 20 32  1  0  0  0
 20 44  1  0  0  0
 21 32  1  0  0  0
 21 45  1  0  0  0
 22 46  1  0  0  0
 22 47  1  0  0  0
 23 48  1  0  0  0
 24 25  3  0  0  0
 25 49  1  0  0  0
 32 50  1  0  0  0
 33 51  1  0  0  0
 52 57  2  0  0  0
 53 56  1  0  0  0
 53 58  1  0  0  0
 53 59  1  0  0  0
 53 60  1  0  0  0
 54 55  1  0  0  0
 54 57  1  0  0  0
 54 61  1  0  0  0
 55 56  1  0  0  0
 55 62  1  0  0  0
 55 63  1  0  0  0
 56 64  1  0  0  0
 56 65  1  0  0  0
M  CHG  1  53   1
M  END
> <s_m_entry_id>
783

> <s_m_entry_name>
000000625.1

> <s_m_Source_Path>
/Users/zaksoul/Documents/3r_UNI/2nd_SEMESTER/BSC/FRAG_RECON/RESULTS/2

> <s_m_Source_File>
000000625.mol2

> <i_m_Source_File_Index>
1

$$$$
No_0_647
                    3D
 Schrodinger Suite 2022-4.
 65 70  0  0  1  0            999 V2000
   -5.1100    3.6880  -21.8890 C   0  0  0  0  0  0
   -5.3770    3.8820  -23.2240 C   0  0  0  0  0  0
   -3.8720    3.4280  -21.5510 C   0  0  0  0  0  0
   -2.9840    3.5570  -23.7180 C   0  0  0  0  0  0
   -2.8220    3.3070  -22.2990 C   0  0  0  0  0  0
   -4.3310    3.8270  -24.2360 C   0  0  0  0  0  0
   -3.5800    3.8520  -26.4350 C   0  0  0  0  0  0
    6.1550    3.0570  -21.1900 C   0  0  0  0  0  0
    6.0120    3.2080  -23.7390 C   0  0  0  0  0  0
   -4.5840    3.9600  -25.5710 C   0  0  0  0  0  0
    2.2300    3.7730  -23.7480 C   0  0  0  0  0  0
    1.4150    4.8850  -23.4440 C   0  0  0  0  0  0
    3.2200    6.0700  -22.7630 C   0  0  0  0  0  0
    3.6320    3.9570  -23.4360 C   0  0  0  0  0  0
    1.6780    2.6610  -24.4110 C   0  0  0  0  0  0
   -0.4460    3.4830  -24.2940 C   0  0  0  0  0  0
    0.0880    4.7000  -23.6920 C   0  0  0  0  0  0
   -1.8990    3.4970  -24.6460 C   0  0  0  0  0  0
    4.2270    1.4550  -23.1530 C   0  0  0  0  0  0
    5.1610    1.0920  -22.0090 C   0  0  2  0  0  0
    6.7600    2.6270  -22.5440 C   0  0  2  0  0  0
    5.1500    2.0900  -20.8390 C   0  0  0  0  0  0
   -2.2270    3.6620  -26.0730 C   0  0  0  0  0  0
   -1.4780    2.8860  -21.7040 C   0  0  0  0  0  0
   -0.4480    2.5320  -21.2010 C   0  0  0  0  0  0
   -0.7490    5.7470  -23.3430 F   0  0  0  0  0  0
   -3.6600    3.1800  -20.1700 F   0  0  0  0  0  0
    1.8980    6.0400  -22.9090 N   0  0  0  0  0  0
    4.1110    5.1040  -22.9880 N   0  0  0  0  0  0
    0.3700    2.5780  -24.7140 N   0  0  0  0  0  0
    4.5450    2.9050  -23.6180 N   0  0  0  0  0  0
    6.5670    1.1540  -22.4940 N   0  0  1  0  0  0
   -3.7550    3.8720  -27.8250 O   0  0  0  0  0  0
   -5.9105    3.7523  -21.1609 H   0  0  0  0  0  0
   -6.3914    4.0827  -23.5491 H   0  0  0  0  0  0
    5.6889    4.0477  -21.2959 H   0  0  0  0  0  0
    6.9428    3.0620  -20.4223 H   0  0  0  0  0  0
    6.4036    2.7649  -24.6665 H   0  0  0  0  0  0
    6.1603    4.2976  -23.7683 H   0  0  0  0  0  0
   -5.5944    4.1506  -25.9142 H   0  0  0  0  0  0
    2.3124    1.8299  -24.6971 H   0  0  0  0  0  0
    3.1845    1.4025  -22.8058 H   0  0  0  0  0  0
    4.3846    0.7592  -23.9902 H   0  0  0  0  0  0
    4.9329    0.0798  -21.6437 H   0  0  0  0  0  0
    7.8296    2.8793  -22.5924 H   0  0  0  0  0  0
    4.1684    2.5843  -20.7926 H   0  0  0  0  0  0
    5.4497    1.5724  -19.9158 H   0  0  0  0  0  0
   -1.4586    3.6419  -26.8374 H   0  0  0  0  0  0
    0.4585    2.2208  -20.7577 H   0  0  0  0  0  0
    7.2140    0.6514  -21.7903 H   0  0  0  0  0  0
   -2.9116    3.7809  -28.2526 H   0  0  0  0  0  0
    3.1100    8.3940  -22.5240 O   0  0  0  0  0  0
    7.8880    8.1080  -21.9190 N   0  3  0  0  0  0
    4.9710    7.3830  -21.6700 N   0  0  0  0  0  0
    5.5580    8.6400  -21.1840 C   0  0  0  0  0  0
    7.0270    8.4910  -20.7520 C   0  0  0  0  0  0
    3.7810    7.3920  -22.2970 C   0  0  0  0  0  0
    8.8449    8.0150  -21.6160 H   0  0  0  0  0  0
    7.5699    7.2298  -22.2981 H   0  0  0  0  0  0
    7.8290    8.8205  -22.6295 H   0  0  0  0  0  0
    5.4578    6.5203  -21.5330 H   0  0  0  0  0  0
    4.9646    9.0182  -20.3385 H   0  0  0  0  0  0
    5.4850    9.4045  -21.9715 H   0  0  0  0  0  0
    7.3830    9.4429  -20.3310 H   0  0  0  0  0  0
    7.1030    7.7191  -19.9721 H   0  0  0  0  0  0
  1  2  2  0  0  0
  1  3  1  0  0  0
  1 34  1  0  0  0
  2  6  1  0  0  0
  2 35  1  0  0  0
  3  5  2  0  0  0
  3 27  1  0  0  0
  4  5  1  0  0  0
  4  6  2  0  0  0
  4 18  1  0  0  0
  5 24  1  0  0  0
  6 10  1  0  0  0
  7 10  2  0  0  0
  7 23  1  0  0  0
  7 33  1  0  0  0
  8 21  1  0  0  0
  8 22  1  0  0  0
  8 36  1  0  0  0
  8 37  1  0  0  0
  9 21  1  0  0  0
  9 31  1  0  0  0
  9 38  1  0  0  0
  9 39  1  0  0  0
 10 40  1  0  0  0
 11 12  1  0  0  0
 11 14  2  0  0  0
 11 15  1  0  0  0
 12 17  1  0  0  0
 12 28  2  0  0  0
 13 28  1  0  0  0
 13 29  2  0  0  0
 13 57  1  0  0  0
 14 29  1  0  0  0
 14 31  1  0  0  0
 15 30  2  0  0  0
 15 41  1  0  0  0
 16 17  2  0  0  0
 16 18  1  0  0  0
 16 30  1  0  0  0
 17 26  1  0  0  0
 18 23  2  0  0  0
 19 20  1  0  0  0
 19 31  1  0  0  0
 19 42  1  0  0  0
 19 43  1  0  0  0
 20 22  1  0  0  0
 20 32  1  0  0  0
 20 44  1  0  0  0
 21 32  1  0  0  0
 21 45  1  0  0  0
 22 46  1  0  0  0
 22 47  1  0  0  0
 23 48  1  0  0  0
 24 25  3  0  0  0
 25 49  1  0  0  0
 32 50  1  0  0  0
 33 51  1  0  0  0
 52 57  2  0  0  0
 53 56  1  0  0  0
 53 58  1  0  0  0
 53 59  1  0  0  0
 53 60  1  0  0  0
 54 55  1  0  0  0
 54 57  1  0  0  0
 54 61  1  0  0  0
 55 56  1  0  0  0
 55 62  1  0  0  0
 55 63  1  0  0  0
 56 64  1  0  0  0
 56 65  1  0  0  0
M  CHG  1  53   1
M  END
> <s_m_entry_id>
784

> <s_m_entry_name>
000000626.1

> <s_m_Source_Path>
/Users/zaksoul/Documents/3r_UNI/2nd_SEMESTER/BSC/FRAG_RECON/RESULTS/2

> <s_m_Source_File>
000000626.mol2

> <i_m_Source_File_Index>
1

$$$$
No_0_648
                    3D
 Schrodinger Suite 2022-4.
 65 70  0  0  1  0            999 V2000
   -4.9980    3.6770  -22.1140 C   0  0  0  0  0  0
   -5.2620    3.8710  -23.4490 C   0  0  0  0  0  0
   -3.7640    3.4030  -21.7740 C   0  0  0  0  0  0
   -2.8720    3.5150  -23.9400 C   0  0  0  0  0  0
   -2.7150    3.2670  -22.5200 C   0  0  0  0  0  0
   -4.2150    3.8010  -24.4600 C   0  0  0  0  0  0
   -3.4610    3.8110  -26.6590 C   0  0  0  0  0  0
    6.2570    2.9070  -21.4000 C   0  0  0  0  0  0
    6.1190    3.0540  -23.9500 C   0  0  0  0  0  0
   -4.4650    3.9330  -25.7960 C   0  0  0  0  0  0
    2.3450    3.6660  -23.9640 C   0  0  0  0  0  0
    1.5430    4.7880  -23.6640 C   0  0  0  0  0  0
    3.3620    5.9530  -22.9840 C   0  0  0  0  0  0
    3.7480    3.8330  -23.6520 C   0  0  0  0  0  0
    1.7790    2.5590  -24.6260 C   0  0  0  0  0  0
   -0.3340    3.4090  -24.5130 C   0  0  0  0  0  0
    0.2140    4.6190  -23.9140 C   0  0  0  0  0  0
   -1.7870    3.4400  -24.8670 C   0  0  0  0  0  0
    4.3110    1.3250  -23.3620 C   0  0  0  0  0  0
    5.2390    0.9520  -22.2160 C   0  0  2  0  0  0
    6.8580    2.4660  -22.7530 C   0  0  2  0  0  0
    5.2390    1.9530  -21.0480 C   0  0  0  0  0  0
   -2.1110    3.6060  -26.2940 C   0  0  0  0  0  0
   -1.3770    2.8300  -21.9230 C   0  0  0  0  0  0
   -0.3520    2.4650  -21.4180 C   0  0  0  0  0  0
   -0.6100    5.6780  -23.5680 F   0  0  0  0  0  0
   -3.5570    3.1560  -20.3920 F   0  0  0  0  0  0
    2.0400    5.9390  -23.1320 N   0  0  0  0  0  0
    4.2410    4.9750  -23.2060 N   0  0  0  0  0  0
    0.4710    2.4920  -24.9300 N   0  0  0  0  0  0
    4.6480    2.7690  -23.8300 N   0  0  0  0  0  0
    6.6470    0.9960  -22.6990 N   0  0  1  0  0  0
   -3.6350    3.8300  -28.0490 O   0  0  0  0  0  0
   -5.7984    3.7533  -21.3869 H   0  0  0  0  0  0
   -6.2729    4.0838  -23.7773 H   0  0  0  0  0  0
    5.8029    3.9030  -21.5090 H   0  0  0  0  0  0
    7.0443    2.9040  -20.6318 H   0  0  0  0  0  0
    6.5056    2.6028  -24.8757 H   0  0  0  0  0  0
    6.2806    4.1416  -23.9823 H   0  0  0  0  0  0
   -5.4724    4.1357  -26.1412 H   0  0  0  0  0  0
    2.4036    1.7195  -24.9092 H   0  0  0  0  0  0
    3.2676    1.2856  -23.0159 H   0  0  0  0  0  0
    4.4604    0.6244  -24.1968 H   0  0  0  0  0  0
    4.9978   -0.0564  -21.8486 H   0  0  0  0  0  0
    7.9306    2.7051  -22.8004 H   0  0  0  0  0  0
    4.2641    2.4606  -21.0036 H   0  0  0  0  0  0
    5.5316    1.4333  -20.1237 H   0  0  0  0  0  0
   -1.3423    3.5729  -27.0576 H   0  0  0  0  0  0
    0.5499    2.1430  -20.9730 H   0  0  0  0  0  0
    7.2862    0.4861  -21.9935 H   0  0  0  0  0  0
   -2.7918    3.7281  -28.4746 H   0  0  0  0  0  0
    3.1940    8.2430  -22.5420 O   0  0  0  0  0  0
    8.0100    8.1950  -22.8260 N   0  3  0  0  0  0
    5.2230    7.2850  -22.1180 N   0  0  0  0  0  0
    5.8310    8.5360  -21.6460 C   0  0  0  0  0  0
    7.3600    8.4430  -21.4960 C   0  0  0  0  0  0
    3.9380    7.2690  -22.5200 C   0  0  0  0  0  0
    9.0092    8.1380  -22.7060 H   0  0  0  0  0  0
    7.6670    7.3289  -23.2110 H   0  0  0  0  0  0
    7.7900    8.9521  -23.4541 H   0  0  0  0  0  0
    5.7639    6.4442  -22.1410 H   0  0  0  0  0  0
    5.3861    8.8179  -20.6803 H   0  0  0  0  0  0
    5.5820    9.3499  -22.3429 H   0  0  0  0  0  0
    7.7439    9.3817  -21.0701 H   0  0  0  0  0  0
    7.6110    7.6230  -20.8070 H   0  0  0  0  0  0
  1  2  2  0  0  0
  1  3  1  0  0  0
  1 34  1  0  0  0
  2  6  1  0  0  0
  2 35  1  0  0  0
  3  5  2  0  0  0
  3 27  1  0  0  0
  4  5  1  0  0  0
  4  6  2  0  0  0
  4 18  1  0  0  0
  5 24  1  0  0  0
  6 10  1  0  0  0
  7 10  2  0  0  0
  7 23  1  0  0  0
  7 33  1  0  0  0
  8 21  1  0  0  0
  8 22  1  0  0  0
  8 36  1  0  0  0
  8 37  1  0  0  0
  9 21  1  0  0  0
  9 31  1  0  0  0
  9 38  1  0  0  0
  9 39  1  0  0  0
 10 40  1  0  0  0
 11 12  1  0  0  0
 11 14  2  0  0  0
 11 15  1  0  0  0
 12 17  1  0  0  0
 12 28  2  0  0  0
 13 28  1  0  0  0
 13 29  2  0  0  0
 13 57  1  0  0  0
 14 29  1  0  0  0
 14 31  1  0  0  0
 15 30  2  0  0  0
 15 41  1  0  0  0
 16 17  2  0  0  0
 16 18  1  0  0  0
 16 30  1  0  0  0
 17 26  1  0  0  0
 18 23  2  0  0  0
 19 20  1  0  0  0
 19 31  1  0  0  0
 19 42  1  0  0  0
 19 43  1  0  0  0
 20 22  1  0  0  0
 20 32  1  0  0  0
 20 44  1  0  0  0
 21 32  1  0  0  0
 21 45  1  0  0  0
 22 46  1  0  0  0
 22 47  1  0  0  0
 23 48  1  0  0  0
 24 25  3  0  0  0
 25 49  1  0  0  0
 32 50  1  0  0  0
 33 51  1  0  0  0
 52 57  2  0  0  0
 53 56  1  0  0  0
 53 58  1  0  0  0
 53 59  1  0  0  0
 53 60  1  0  0  0
 54 55  1  0  0  0
 54 57  1  0  0  0
 54 61  1  0  0  0
 55 56  1  0  0  0
 55 62  1  0  0  0
 55 63  1  0  0  0
 56 64  1  0  0  0
 56 65  1  0  0  0
M  CHG  1  53   1
M  END
> <s_m_entry_id>
785

> <s_m_entry_name>
000000627.1

> <s_m_Source_Path>
/Users/zaksoul/Documents/3r_UNI/2nd_SEMESTER/BSC/FRAG_RECON/RESULTS/2

> <s_m_Source_File>
000000627.mol2

> <i_m_Source_File_Index>
1

$$$$
No_0_649
                    3D
 Schrodinger Suite 2022-4.
 65 70  0  0  1  0            999 V2000
   -4.9060    3.6410  -21.6930 C   0  0  0  0  0  0
   -5.1900    3.8110  -23.0270 C   0  0  0  0  0  0
   -3.6730    3.3420  -21.3700 C   0  0  0  0  0  0
   -2.8210    3.3810  -23.5550 C   0  0  0  0  0  0
   -2.6420    3.1620  -22.1330 C   0  0  0  0  0  0
   -4.1660    3.6900  -24.0560 C   0  0  0  0  0  0
   -3.4560    3.6290  -26.2680 C   0  0  0  0  0  0
    6.3380    2.5910  -21.1760 C   0  0  0  0  0  0
    6.1540    2.6810  -23.7250 C   0  0  0  0  0  0
   -4.4390    3.7980  -25.3890 C   0  0  0  0  0  0
    2.3960    3.3930  -23.6820 C   0  0  0  0  0  0
    1.6300    4.5430  -23.3930 C   0  0  0  0  0  0
    3.4920    5.6740  -22.7760 C   0  0  0  0  0  0
    3.8100    3.5300  -23.4000 C   0  0  0  0  0  0
    1.7890    2.2860  -24.3060 C   0  0  0  0  0  0
   -0.2980    3.1940  -24.1740 C   0  0  0  0  0  0
    0.2930    4.4030  -23.6140 C   0  0  0  0  0  0
   -1.7570    3.2550  -24.5000 C   0  0  0  0  0  0
    4.3130    1.0150  -23.0620 C   0  0  0  0  0  0
    5.2540    0.6450  -21.9250 C   0  0  2  0  0  0
    6.9000    2.1020  -22.5290 C   0  0  2  0  0  0
    5.3020    1.6720  -20.7820 C   0  0  0  0  0  0
   -2.1040    3.3970  -25.9250 C   0  0  0  0  0  0
   -1.3050    2.7040  -21.5510 C   0  0  0  0  0  0
   -0.2800    2.3230  -21.0570 C   0  0  0  0  0  0
   -0.4960    5.4910  -23.2770 F   0  0  0  0  0  0
   -3.4450    3.1220  -19.9870 F   0  0  0  0  0  0
    2.1680    5.6920  -22.8980 N   0  0  0  0  0  0
    4.3410    4.6690  -22.9910 N   0  0  0  0  0  0
    0.4740    2.2470  -24.5840 N   0  0  0  0  0  0
    4.6780    2.4390  -23.5710 N   0  0  0  0  0  0
    6.6520    0.6400  -22.4360 N   0  0  1  0  0  0
   -3.6560    3.6200  -27.6540 O   0  0  0  0  0  0
   -5.6895    3.7555  -20.9527 H   0  0  0  0  0  0
   -6.2016    4.0428  -23.3401 H   0  0  0  0  0  0
    5.9078    3.5958  -21.3002 H   0  0  0  0  0  0
    7.1392    2.5839  -20.4223 H   0  0  0  0  0  0
    6.5094    2.1994  -24.6479 H   0  0  0  0  0  0
    6.3427    3.7629  -23.7866 H   0  0  0  0  0  0
   -5.4472    4.0189  -25.7204 H   0  0  0  0  0  0
    2.3861    1.4240  -24.5809 H   0  0  0  0  0  0
    3.2761    1.0120  -22.6948 H   0  0  0  0  0  0
    4.4281    0.2920  -23.8830 H   0  0  0  0  0  0
    4.9937   -0.3479  -21.5295 H   0  0  0  0  0  0
    7.9774    2.3118  -22.6016 H   0  0  0  0  0  0
    4.3418    2.2061  -20.7305 H   0  0  0  0  0  0
    5.5988    1.1663  -19.8513 H   0  0  0  0  0  0
   -1.3513    3.3257  -26.7018 H   0  0  0  0  0  0
    0.6220    1.9880  -20.6220 H   0  0  0  0  0  0
    7.2917    0.1298  -21.7311 H   0  0  0  0  0  0
   -2.8250    3.4855  -28.0942 H   0  0  0  0  0  0
    3.3610    7.8240  -21.9020 O   0  0  0  0  0  0
    6.0180    8.6000  -22.1740 N   0  0  0  0  0  0
    5.5970    7.2010  -22.5380 C   0  0  0  0  0  0
    7.3470    8.9610  -22.7780 C   0  0  0  0  0  0
    5.9890    8.8650  -20.6930 C   0  0  0  0  0  0
    4.1120    6.9850  -22.3540 C   0  0  0  0  0  0
    6.1510    6.4800  -21.9190 H   0  0  0  0  0  0
    5.8700    6.9980  -23.5841 H   0  0  0  0  0  0
    7.6159    9.9875  -22.4881 H   0  0  0  0  0  0
    8.1173    8.2647  -22.4149 H   0  0  0  0  0  0
    7.2820    8.8960  -23.8742 H   0  0  0  0  0  0
    6.3058    9.9004  -20.4991 H   0  0  0  0  0  0
    4.9671    8.7190  -20.3130 H   0  0  0  0  0  0
    6.6728    8.1712  -20.1821 H   0  0  0  0  0  0
  1  2  2  0  0  0
  1  3  1  0  0  0
  1 34  1  0  0  0
  2  6  1  0  0  0
  2 35  1  0  0  0
  3  5  2  0  0  0
  3 27  1  0  0  0
  4  5  1  0  0  0
  4  6  2  0  0  0
  4 18  1  0  0  0
  5 24  1  0  0  0
  6 10  1  0  0  0
  7 10  2  0  0  0
  7 23  1  0  0  0
  7 33  1  0  0  0
  8 21  1  0  0  0
  8 22  1  0  0  0
  8 36  1  0  0  0
  8 37  1  0  0  0
  9 21  1  0  0  0
  9 31  1  0  0  0
  9 38  1  0  0  0
  9 39  1  0  0  0
 10 40  1  0  0  0
 11 12  1  0  0  0
 11 14  2  0  0  0
 11 15  1  0  0  0
 12 17  1  0  0  0
 12 28  2  0  0  0
 13 28  1  0  0  0
 13 29  2  0  0  0
 13 57  1  0  0  0
 14 29  1  0  0  0
 14 31  1  0  0  0
 15 30  2  0  0  0
 15 41  1  0  0  0
 16 17  2  0  0  0
 16 18  1  0  0  0
 16 30  1  0  0  0
 17 26  1  0  0  0
 18 23  2  0  0  0
 19 20  1  0  0  0
 19 31  1  0  0  0
 19 42  1  0  0  0
 19 43  1  0  0  0
 20 22  1  0  0  0
 20 32  1  0  0  0
 20 44  1  0  0  0
 21 32  1  0  0  0
 21 45  1  0  0  0
 22 46  1  0  0  0
 22 47  1  0  0  0
 23 48  1  0  0  0
 24 25  3  0  0  0
 25 49  1  0  0  0
 32 50  1  0  0  0
 33 51  1  0  0  0
 52 57  2  0  0  0
 53 54  1  0  0  0
 53 55  1  0  0  0
 53 56  1  0  0  0
 54 57  1  0  0  0
 54 58  1  0  0  0
 54 59  1  0  0  0
 55 60  1  0  0  0
 55 61  1  0  0  0
 55 62  1  0  0  0
 56 63  1  0  0  0
 56 64  1  0  0  0
 56 65  1  0  0  0
M  END
> <s_m_entry_id>
786

> <s_m_entry_name>
000000628.1

> <s_m_Source_Path>
/Users/zaksoul/Documents/3r_UNI/2nd_SEMESTER/BSC/FRAG_RECON/RESULTS/2

> <s_m_Source_File>
000000628.mol2

> <i_m_Source_File_Index>
1

$$$$
No_0_650
                    3D
 Schrodinger Suite 2022-4.
 65 70  0  0  1  0            999 V2000
   -4.9480    3.6320  -21.9730 C   0  0  0  0  0  0
   -5.2180    3.8210  -23.3070 C   0  0  0  0  0  0
   -3.7100    3.3660  -21.6370 C   0  0  0  0  0  0
   -2.8280    3.4800  -23.8070 C   0  0  0  0  0  0
   -2.6630    3.2360  -22.3870 C   0  0  0  0  0  0
   -4.1750    3.7560  -24.3220 C   0  0  0  0  0  0
   -3.4300    3.7660  -26.5240 C   0  0  0  0  0  0
    6.3160    2.9420  -21.3030 C   0  0  0  0  0  0
    6.1660    3.0810  -23.8520 C   0  0  0  0  0  0
   -4.4310    3.8830  -25.6570 C   0  0  0  0  0  0
    2.3880    3.6680  -23.8520 C   0  0  0  0  0  0
    1.5790    4.7850  -23.5510 C   0  0  0  0  0  0
    3.3930    5.9630  -22.8820 C   0  0  0  0  0  0
    3.7910    3.8450  -23.5460 C   0  0  0  0  0  0
    1.8270    2.5550  -24.5090 C   0  0  0  0  0  0
   -0.2920    3.3900  -24.3900 C   0  0  0  0  0  0
    0.2500    4.6060  -23.7950 C   0  0  0  0  0  0
   -1.7460    3.4100  -24.7380 C   0  0  0  0  0  0
    4.3730    1.3410  -23.2530 C   0  0  0  0  0  0
    5.3080    0.9780  -22.1100 C   0  0  2  0  0  0
    6.9140    2.5020  -22.6560 C   0  0  2  0  0  0
    5.3060    1.9810  -20.9440 C   0  0  0  0  0  0
   -2.0770    3.5710  -26.1640 C   0  0  0  0  0  0
   -1.3200    2.8100  -21.7940 C   0  0  0  0  0  0
   -0.2910    2.4530  -21.2920 C   0  0  0  0  0  0
   -0.5790    5.6600  -23.4490 F   0  0  0  0  0  0
   -3.4960    3.1240  -20.2560 F   0  0  0  0  0  0
    2.0700    5.9400  -23.0240 N   0  0  0  0  0  0
    4.2780    4.9910  -23.1040 N   0  0  0  0  0  0
    0.5180    2.4780  -24.8080 N   0  0  0  0  0  0
    4.6980    2.7870  -23.7260 N   0  0  0  0  0  0
    6.7130    1.0300  -22.5990 N   0  0  1  0  0  0
   -3.6090    3.7800  -27.9130 O   0  0  0  0  0  0
   -5.7452    3.7043  -21.2421 H   0  0  0  0  0  0
   -6.2319    4.0258  -23.6312 H   0  0  0  0  0  0
    5.8537    3.9342  -21.4120 H   0  0  0  0  0  0
    7.1053    2.9450  -20.5369 H   0  0  0  0  0  0
    6.5526    2.6318  -24.7787 H   0  0  0  0  0  0
    6.3204    4.1695  -23.8873 H   0  0  0  0  0  0
   -5.4413    4.0776  -25.9981 H   0  0  0  0  0  0
    2.4561    1.7192  -24.7930 H   0  0  0  0  0  0
    3.3316    1.2956  -22.9018 H   0  0  0  0  0  0
    4.5245    0.6401  -24.0872 H   0  0  0  0  0  0
    5.0759   -0.0311  -21.7387 H   0  0  0  0  0  0
    7.9848    2.7483  -22.7085 H   0  0  0  0  0  0
    4.3275    2.4813  -20.8966 H   0  0  0  0  0  0
    5.6049    1.4660  -20.0191 H   0  0  0  0  0  0
   -1.3108    3.5419  -26.9302 H   0  0  0  0  0  0
    0.6155    2.1388  -20.8508 H   0  0  0  0  0  0
    7.3586    0.5266  -21.8946 H   0  0  0  0  0  0
   -2.7671    3.6831  -28.3423 H   0  0  0  0  0  0
    3.3880    8.2860  -22.7970 O   0  0  0  0  0  0
    5.6970    8.7020  -21.3020 N   0  0  0  0  0  0
    5.2070    7.3030  -21.5650 C   0  0  0  0  0  0
    7.1380    8.7210  -20.8730 C   0  0  0  0  0  0
    4.8220    9.4700  -20.3480 C   0  0  0  0  0  0
    3.9620    7.2850  -22.4230 C   0  0  0  0  0  0
    5.0000    6.8019  -20.6079 H   0  0  0  0  0  0
    6.0008    6.7251  -22.0609 H   0  0  0  0  0  0
    7.4539    9.7588  -20.6910 H   0  0  0  0  0  0
    7.2540    8.1359  -19.9488 H   0  0  0  0  0  0
    7.7619    8.2810  -21.6649 H   0  0  0  0  0  0
    5.2358   10.4785  -20.2011 H   0  0  0  0  0  0
    3.8059    9.5480  -20.7620 H   0  0  0  0  0  0
    4.7840    8.9462  -19.3814 H   0  0  0  0  0  0
  1  2  2  0  0  0
  1  3  1  0  0  0
  1 34  1  0  0  0
  2  6  1  0  0  0
  2 35  1  0  0  0
  3  5  2  0  0  0
  3 27  1  0  0  0
  4  5  1  0  0  0
  4  6  2  0  0  0
  4 18  1  0  0  0
  5 24  1  0  0  0
  6 10  1  0  0  0
  7 10  2  0  0  0
  7 23  1  0  0  0
  7 33  1  0  0  0
  8 21  1  0  0  0
  8 22  1  0  0  0
  8 36  1  0  0  0
  8 37  1  0  0  0
  9 21  1  0  0  0
  9 31  1  0  0  0
  9 38  1  0  0  0
  9 39  1  0  0  0
 10 40  1  0  0  0
 11 12  1  0  0  0
 11 14  2  0  0  0
 11 15  1  0  0  0
 12 17  1  0  0  0
 12 28  2  0  0  0
 13 28  1  0  0  0
 13 29  2  0  0  0
 13 57  1  0  0  0
 14 29  1  0  0  0
 14 31  1  0  0  0
 15 30  2  0  0  0
 15 41  1  0  0  0
 16 17  2  0  0  0
 16 18  1  0  0  0
 16 30  1  0  0  0
 17 26  1  0  0  0
 18 23  2  0  0  0
 19 20  1  0  0  0
 19 31  1  0  0  0
 19 42  1  0  0  0
 19 43  1  0  0  0
 20 22  1  0  0  0
 20 32  1  0  0  0
 20 44  1  0  0  0
 21 32  1  0  0  0
 21 45  1  0  0  0
 22 46  1  0  0  0
 22 47  1  0  0  0
 23 48  1  0  0  0
 24 25  3  0  0  0
 25 49  1  0  0  0
 32 50  1  0  0  0
 33 51  1  0  0  0
 52 57  2  0  0  0
 53 54  1  0  0  0
 53 55  1  0  0  0
 53 56  1  0  0  0
 54 57  1  0  0  0
 54 58  1  0  0  0
 54 59  1  0  0  0
 55 60  1  0  0  0
 55 61  1  0  0  0
 55 62  1  0  0  0
 56 63  1  0  0  0
 56 64  1  0  0  0
 56 65  1  0  0  0
M  END
> <s_m_entry_id>
787

> <s_m_entry_name>
000000629.1

> <s_m_Source_Path>
/Users/zaksoul/Documents/3r_UNI/2nd_SEMESTER/BSC/FRAG_RECON/RESULTS/2

> <s_m_Source_File>
000000629.mol2

> <i_m_Source_File_Index>
1

$$$$
No_0_651
                    3D
 Schrodinger Suite 2022-4.
 65 70  0  0  1  0            999 V2000
   -5.0970    3.4330  -22.1800 C   0  0  0  0  0  0
   -5.3390    3.6080  -23.5220 C   0  0  0  0  0  0
   -3.8690    3.1660  -21.8160 C   0  0  0  0  0  0
   -2.9410    3.2480  -23.9680 C   0  0  0  0  0  0
   -2.8070    3.0210  -22.5420 C   0  0  0  0  0  0
   -4.2750    3.5240  -24.5150 C   0  0  0  0  0  0
   -3.4850    3.5040  -26.7000 C   0  0  0  0  0  0
    6.1460    2.6900  -21.2670 C   0  0  0  0  0  0
    6.0500    2.7990  -23.8200 C   0  0  0  0  0  0
   -4.5030    3.6370  -25.8560 C   0  0  0  0  0  0
    2.2760    3.4060  -23.9070 C   0  0  0  0  0  0
    1.4680    4.5320  -23.6360 C   0  0  0  0  0  0
    3.2730    5.7080  -22.9440 C   0  0  0  0  0  0
    3.6740    3.5800  -23.5740 C   0  0  0  0  0  0
    1.7220    2.2890  -24.5620 C   0  0  0  0  0  0
   -0.3930    3.1370  -24.4970 C   0  0  0  0  0  0
    0.1430    4.3570  -23.9060 C   0  0  0  0  0  0
   -1.8400    3.1610  -24.8750 C   0  0  0  0  0  0
    4.2350    1.0770  -23.2380 C   0  0  0  0  0  0
    5.1440    0.7220  -22.0720 C   0  0  2  0  0  0
    6.7700    2.2300  -22.6030 C   0  0  2  0  0  0
    5.1230    1.7400  -20.9190 C   0  0  0  0  0  0
   -2.1400    3.3060  -26.3100 C   0  0  0  0  0  0
   -1.4790    2.5950  -21.9160 C   0  0  0  0  0  0
   -0.4620    2.2380  -21.3890 C   0  0  0  0  0  0
   -0.6870    5.4200  -23.5900 F   0  0  0  0  0  0
   -3.6840    2.9390  -20.4270 F   0  0  0  0  0  0
    1.9540    5.6900  -23.1130 N   0  0  0  0  0  0
    4.1580    4.7290  -23.1360 N   0  0  0  0  0  0
    0.4200    2.2160  -24.8870 N   0  0  0  0  0  0
    4.5780    2.5150  -23.7220 N   0  0  0  0  0  0
    6.5590    0.7610  -22.5320 N   0  0  1  0  0  0
   -3.6350    3.5020  -28.0930 O   0  0  0  0  0  0
   -5.9091    3.5193  -21.4672 H   0  0  0  0  0  0
   -6.3447    3.8138  -23.8703 H   0  0  0  0  0  0
    5.6930    3.6838  -21.3982 H   0  0  0  0  0  0
    6.9197    2.6991  -20.4852 H   0  0  0  0  0  0
    6.4525    2.3359  -24.7330 H   0  0  0  0  0  0
    6.2114    3.8861  -23.8664 H   0  0  0  0  0  0
   -5.5048    3.8337  -26.2204 H   0  0  0  0  0  0
    2.3521    1.4461  -24.8219 H   0  0  0  0  0  0
    3.1859    1.0417  -22.9091 H   0  0  0  0  0  0
    4.3994    0.3649  -24.0601 H   0  0  0  0  0  0
    4.8978   -0.2811  -21.6936 H   0  0  0  0  0  0
    7.8430    2.4702  -22.6353 H   0  0  0  0  0  0
    4.1469    2.2467  -20.8978 H   0  0  0  0  0  0
    5.4003    1.2347  -19.9821 H   0  0  0  0  0  0
   -1.3587    3.2629  -27.0602 H   0  0  0  0  0  0
    0.4331    1.9240  -20.9250 H   0  0  0  0  0  0
    7.1874    0.2630  -21.8085 H   0  0  0  0  0  0
   -2.7850    3.3951  -28.5036 H   0  0  0  0  0  0
    3.1390    8.0100  -22.6440 O   0  0  0  0  0  0
    5.6780    8.4950  -21.6170 N   0  0  0  0  0  0
    5.2340    7.0850  -21.9050 C   0  0  0  0  0  0
    7.1730    8.5980  -21.4910 C   0  0  0  0  0  0
    4.9750    9.1120  -20.4380 C   0  0  0  0  0  0
    3.8410    7.0320  -22.4890 C   0  0  0  0  0  0
    5.2650    6.4958  -20.9766 H   0  0  0  0  0  0
    5.9422    6.6149  -22.6032 H   0  0  0  0  0  0
    7.4530    9.6408  -21.2810 H   0  0  0  0  0  0
    7.5169    7.9541  -20.6681 H   0  0  0  0  0  0
    7.6443    8.2738  -22.4306 H   0  0  0  0  0  0
    5.3449   10.1366  -20.2851 H   0  0  0  0  0  0
    3.8919    9.1390  -20.6280 H   0  0  0  0  0  0
    5.1740    8.5131  -19.5371 H   0  0  0  0  0  0
  1  2  2  0  0  0
  1  3  1  0  0  0
  1 34  1  0  0  0
  2  6  1  0  0  0
  2 35  1  0  0  0
  3  5  2  0  0  0
  3 27  1  0  0  0
  4  5  1  0  0  0
  4  6  2  0  0  0
  4 18  1  0  0  0
  5 24  1  0  0  0
  6 10  1  0  0  0
  7 10  2  0  0  0
  7 23  1  0  0  0
  7 33  1  0  0  0
  8 21  1  0  0  0
  8 22  1  0  0  0
  8 36  1  0  0  0
  8 37  1  0  0  0
  9 21  1  0  0  0
  9 31  1  0  0  0
  9 38  1  0  0  0
  9 39  1  0  0  0
 10 40  1  0  0  0
 11 12  1  0  0  0
 11 14  2  0  0  0
 11 15  1  0  0  0
 12 17  1  0  0  0
 12 28  2  0  0  0
 13 28  1  0  0  0
 13 29  2  0  0  0
 13 57  1  0  0  0
 14 29  1  0  0  0
 14 31  1  0  0  0
 15 30  2  0  0  0
 15 41  1  0  0  0
 16 17  2  0  0  0
 16 18  1  0  0  0
 16 30  1  0  0  0
 17 26  1  0  0  0
 18 23  2  0  0  0
 19 20  1  0  0  0
 19 31  1  0  0  0
 19 42  1  0  0  0
 19 43  1  0  0  0
 20 22  1  0  0  0
 20 32  1  0  0  0
 20 44  1  0  0  0
 21 32  1  0  0  0
 21 45  1  0  0  0
 22 46  1  0  0  0
 22 47  1  0  0  0
 23 48  1  0  0  0
 24 25  3  0  0  0
 25 49  1  0  0  0
 32 50  1  0  0  0
 33 51  1  0  0  0
 52 57  2  0  0  0
 53 54  1  0  0  0
 53 55  1  0  0  0
 53 56  1  0  0  0
 54 57  1  0  0  0
 54 58  1  0  0  0
 54 59  1  0  0  0
 55 60  1  0  0  0
 55 61  1  0  0  0
 55 62  1  0  0  0
 56 63  1  0  0  0
 56 64  1  0  0  0
 56 65  1  0  0  0
M  END
> <s_m_entry_id>
788

> <s_m_entry_name>
000000630.1

> <s_m_Source_Path>
/Users/zaksoul/Documents/3r_UNI/2nd_SEMESTER/BSC/FRAG_RECON/RESULTS/2

> <s_m_Source_File>
000000630.mol2

> <i_m_Source_File_Index>
1

$$$$
No_0_652
                    3D
 Schrodinger Suite 2022-4.
 65 70  0  0  1  0            999 V2000
   -4.8980    3.6000  -21.8720 C   0  0  0  0  0  0
   -5.1920    3.7610  -23.2050 C   0  0  0  0  0  0
   -3.6570    3.3300  -21.5540 C   0  0  0  0  0  0
   -2.8150    3.3840  -23.7420 C   0  0  0  0  0  0
   -2.6260    3.1720  -22.3200 C   0  0  0  0  0  0
   -4.1690    3.6620  -24.2380 C   0  0  0  0  0  0
   -3.4660    3.6140  -26.4530 C   0  0  0  0  0  0
    6.3690    2.8080  -21.3980 C   0  0  0  0  0  0
    6.1720    2.8910  -23.9470 C   0  0  0  0  0  0
   -4.4490    3.7610  -25.5700 C   0  0  0  0  0  0
    2.4000    3.5160  -23.8900 C   0  0  0  0  0  0
    1.6090    4.6480  -23.6000 C   0  0  0  0  0  0
    3.4460    5.8230  -22.9920 C   0  0  0  0  0  0
    3.8110    3.6860  -23.6140 C   0  0  0  0  0  0
    1.8160    2.3950  -24.5100 C   0  0  0  0  0  0
   -0.2910    3.2540  -24.3700 C   0  0  0  0  0  0
    0.2740    4.4780  -23.8150 C   0  0  0  0  0  0
   -1.7520    3.2820  -24.6910 C   0  0  0  0  0  0
    4.3730    1.1840  -23.2740 C   0  0  0  0  0  0
    5.3260    0.8370  -22.1400 C   0  0  2  0  0  0
    6.9370    2.3310  -22.7520 C   0  0  2  0  0  0
    5.3560    1.8670  -20.9990 C   0  0  0  0  0  0
   -2.1080    3.4120  -26.1140 C   0  0  0  0  0  0
   -1.2760    2.7460  -21.7430 C   0  0  0  0  0  0
   -0.2410    2.3890  -21.2520 C   0  0  0  0  0  0
   -0.5380    5.5480  -23.4770 F   0  0  0  0  0  0
   -3.4190    3.1170  -20.1710 F   0  0  0  0  0  0
    2.1220    5.8100  -23.1090 N   0  0  0  0  0  0
    4.3180    4.8370  -23.2090 N   0  0  0  0  0  0
    0.5010    2.3250  -24.7820 N   0  0  0  0  0  0
    4.7030    2.6150  -23.7860 N   0  0  0  0  0  0
    6.7220    0.8630  -22.6570 N   0  0  1  0  0  0
   -3.6720    3.5970  -27.8380 O   0  0  0  0  0  0
   -5.6807    3.6983  -21.1285 H   0  0  0  0  0  0
   -6.2100    3.9688  -23.5142 H   0  0  0  0  0  0
    5.9152    3.8023  -21.5220 H   0  0  0  0  0  0
    7.1735    2.8211  -20.6480 H   0  0  0  0  0  0
    6.5355    2.4154  -24.8699 H   0  0  0  0  0  0
    6.3365    3.9768  -24.0106 H   0  0  0  0  0  0
   -5.4634    3.9587  -25.8971 H   0  0  0  0  0  0
    2.4312    1.5459  -24.7850 H   0  0  0  0  0  0
    3.3379    1.1578  -22.9027 H   0  0  0  0  0  0
    4.5012    0.4620  -24.0939 H   0  0  0  0  0  0
    5.0909   -0.1609  -21.7414 H   0  0  0  0  0  0
    8.0091    2.5642  -22.8307 H   0  0  0  0  0  0
    4.3839    2.3788  -20.9445 H   0  0  0  0  0  0
    5.6679    1.3704  -20.0684 H   0  0  0  0  0  0
   -1.3576    3.3578  -26.8944 H   0  0  0  0  0  0
    0.6706    2.0758  -20.8207 H   0  0  0  0  0  0
    7.3764    0.3700  -21.9534 H   0  0  0  0  0  0
   -2.8396    3.4813  -28.2809 H   0  0  0  0  0  0
    3.3450    8.1390  -22.7070 O   0  0  0  0  0  0
    6.1850    8.4620  -22.3040 N   0  0  1  0  0  0
    5.4860    7.1380  -22.1280 C   0  0  0  0  0  0
    5.5710    9.6200  -21.5710 C   0  0  0  0  0  0
    6.5520   10.7980  -21.5030 C   0  0  0  0  0  0
    4.0380    7.1480  -22.5750 C   0  0  0  0  0  0
    7.2019    8.3830  -21.9490 H   0  0  0  0  0  0
    5.5400    6.8338  -21.0723 H   0  0  0  0  0  0
    6.0327    6.3605  -22.6817 H   0  0  0  0  0  0
    5.3030    9.3070  -20.5511 H   0  0  0  0  0  0
    4.6533    9.9359  -22.0888 H   0  0  0  0  0  0
    6.0842   11.6346  -20.9633 H   0  0  0  0  0  0
    7.4647   10.4861  -20.9742 H   0  0  0  0  0  0
    6.8111   11.1201  -22.5224 H   0  0  0  0  0  0
  1  2  2  0  0  0
  1  3  1  0  0  0
  1 34  1  0  0  0
  2  6  1  0  0  0
  2 35  1  0  0  0
  3  5  2  0  0  0
  3 27  1  0  0  0
  4  5  1  0  0  0
  4  6  2  0  0  0
  4 18  1  0  0  0
  5 24  1  0  0  0
  6 10  1  0  0  0
  7 10  2  0  0  0
  7 23  1  0  0  0
  7 33  1  0  0  0
  8 21  1  0  0  0
  8 22  1  0  0  0
  8 36  1  0  0  0
  8 37  1  0  0  0
  9 21  1  0  0  0
  9 31  1  0  0  0
  9 38  1  0  0  0
  9 39  1  0  0  0
 10 40  1  0  0  0
 11 12  1  0  0  0
 11 14  2  0  0  0
 11 15  1  0  0  0
 12 17  1  0  0  0
 12 28  2  0  0  0
 13 28  1  0  0  0
 13 29  2  0  0  0
 13 57  1  0  0  0
 14 29  1  0  0  0
 14 31  1  0  0  0
 15 30  2  0  0  0
 15 41  1  0  0  0
 16 17  2  0  0  0
 16 18  1  0  0  0
 16 30  1  0  0  0
 17 26  1  0  0  0
 18 23  2  0  0  0
 19 20  1  0  0  0
 19 31  1  0  0  0
 19 42  1  0  0  0
 19 43  1  0  0  0
 20 22  1  0  0  0
 20 32  1  0  0  0
 20 44  1  0  0  0
 21 32  1  0  0  0
 21 45  1  0  0  0
 22 46  1  0  0  0
 22 47  1  0  0  0
 23 48  1  0  0  0
 24 25  3  0  0  0
 25 49  1  0  0  0
 32 50  1  0  0  0
 33 51  1  0  0  0
 52 57  2  0  0  0
 53 54  1  0  0  0
 53 55  1  0  0  0
 53 58  1  0  0  0
 54 57  1  0  0  0
 54 59  1  0  0  0
 54 60  1  0  0  0
 55 56  1  0  0  0
 55 61  1  0  0  0
 55 62  1  0  0  0
 56 63  1  0  0  0
 56 64  1  0  0  0
 56 65  1  0  0  0
M  END
> <s_m_entry_id>
789

> <s_m_entry_name>
000000631.1

> <s_m_Source_Path>
/Users/zaksoul/Documents/3r_UNI/2nd_SEMESTER/BSC/FRAG_RECON/RESULTS/2

> <s_m_Source_File>
000000631.mol2

> <i_m_Source_File_Index>
1

$$$$
No_0_653
                    3D
 Schrodinger Suite 2022-4.
 64 69  0  0  1  0            999 V2000
   -4.9520    3.8660  -21.9850 C   0  0  0  0  0  0
   -5.2120    4.0610  -23.3210 C   0  0  0  0  0  0
   -3.7210    3.5800  -21.6430 C   0  0  0  0  0  0
   -2.8260    3.6800  -23.8080 C   0  0  0  0  0  0
   -2.6720    3.4320  -22.3880 C   0  0  0  0  0  0
   -4.1650    3.9790  -24.3300 C   0  0  0  0  0  0
   -3.4080    3.9780  -26.5280 C   0  0  0  0  0  0
    6.2940    2.9830  -21.2570 C   0  0  0  0  0  0
    6.1610    3.1280  -23.8060 C   0  0  0  0  0  0
   -4.4120    4.1120  -25.6660 C   0  0  0  0  0  0
    2.3930    3.7780  -23.8260 C   0  0  0  0  0  0
    1.6020    4.9090  -23.5280 C   0  0  0  0  0  0
    3.4320    6.0560  -22.8480 C   0  0  0  0  0  0
    3.7970    3.9310  -23.5120 C   0  0  0  0  0  0
    1.8160    2.6760  -24.4870 C   0  0  0  0  0  0
   -0.2880    3.5470  -24.3780 C   0  0  0  0  0  0
    0.2710    4.7530  -23.7800 C   0  0  0  0  0  0
   -1.7400    3.5920  -24.7330 C   0  0  0  0  0  0
    4.3350    1.4180  -23.2180 C   0  0  0  0  0  0
    5.2580    1.0380  -22.0710 C   0  0  2  0  0  0
    6.8920    2.5340  -22.6070 C   0  0  2  0  0  0
    5.2660    2.0400  -20.9040 C   0  0  0  0  0  0
   -2.0600    3.7600  -26.1620 C   0  0  0  0  0  0
   -1.3400    2.9830  -21.7880 C   0  0  0  0  0  0
   -0.3190    2.6080  -21.2810 C   0  0  0  0  0  0
   -0.5420    5.8210  -23.4360 F   0  0  0  0  0  0
   -3.5180    3.3330  -20.2610 F   0  0  0  0  0  0
    2.1100    6.0550  -22.9970 N   0  0  0  0  0  0
    4.3020    5.0690  -23.0670 N   0  0  0  0  0  0
    0.5080    2.6220  -24.7930 N   0  0  0  0  0  0
    4.6870    2.8590  -23.6880 N   0  0  0  0  0  0
    6.6660    1.0660  -22.5520 N   0  0  1  0  0  0
   -3.5800    3.9970  -27.9180 O   0  0  0  0  0  0
   -5.7524    3.9514  -21.2589 H   0  0  0  0  0  0
   -6.2207    4.2828  -23.6502 H   0  0  0  0  0  0
    5.8511    3.9839  -21.3670 H   0  0  0  0  0  0
    7.0798    2.9729  -20.4873 H   0  0  0  0  0  0
    6.5434    2.6720  -24.7311 H   0  0  0  0  0  0
    6.3336    4.2138  -23.8403 H   0  0  0  0  0  0
   -5.4168    4.3238  -26.0133 H   0  0  0  0  0  0
    2.4330    1.8302  -24.7679 H   0  0  0  0  0  0
    3.2909    1.3898  -22.8730 H   0  0  0  0  0  0
    4.4783    0.7157  -24.0524 H   0  0  0  0  0  0
    5.0057    0.0330  -21.7017 H   0  0  0  0  0  0
    7.9671    2.7621  -22.6534 H   0  0  0  0  0  0
    4.2963    2.5576  -20.8616 H   0  0  0  0  0  0
    5.5517    1.5191  -19.9782 H   0  0  0  0  0  0
   -1.2905    3.7188  -26.9244 H   0  0  0  0  0  0
    0.5791    2.2770  -20.8349 H   0  0  0  0  0  0
    7.2995    0.5513  -21.8447 H   0  0  0  0  0  0
   -2.7380    3.8852  -28.3435 H   0  0  0  0  0  0
    5.8750    8.8040  -20.0240 O   0  0  0  0  0  0
    3.4110    7.8170  -21.0790 N   0  0  1  0  0  0
    5.4760   10.7100  -21.1830 N   0  0  0  0  0  0
    3.6300    9.2670  -20.7500 C   0  0  0  0  0  0
    4.0270    7.3800  -22.3810 C   0  0  0  0  0  0
    5.1080    9.5580  -20.6030 C   0  0  0  0  0  0
    3.8409    7.2021  -20.3022 H   0  0  0  0  0  0
    4.7935   11.2794  -21.6413 H   0  0  0  0  0  0
    6.4330   10.9990  -21.1580 H   0  0  0  0  0  0
    3.1129    9.5130  -19.8108 H   0  0  0  0  0  0
    3.2120    9.8920  -21.5529 H   0  0  0  0  0  0
    5.1136    7.2670  -22.2521 H   0  0  0  0  0  0
    3.8519    8.1504  -23.1464 H   0  0  0  0  0  0
  1  2  2  0  0  0
  1  3  1  0  0  0
  1 34  1  0  0  0
  2  6  1  0  0  0
  2 35  1  0  0  0
  3  5  2  0  0  0
  3 27  1  0  0  0
  4  5  1  0  0  0
  4  6  2  0  0  0
  4 18  1  0  0  0
  5 24  1  0  0  0
  6 10  1  0  0  0
  7 10  2  0  0  0
  7 23  1  0  0  0
  7 33  1  0  0  0
  8 21  1  0  0  0
  8 22  1  0  0  0
  8 36  1  0  0  0
  8 37  1  0  0  0
  9 21  1  0  0  0
  9 31  1  0  0  0
  9 38  1  0  0  0
  9 39  1  0  0  0
 10 40  1  0  0  0
 11 12  1  0  0  0
 11 14  2  0  0  0
 11 15  1  0  0  0
 12 17  1  0  0  0
 12 28  2  0  0  0
 13 28  1  0  0  0
 13 29  2  0  0  0
 13 56  1  0  0  0
 14 29  1  0  0  0
 14 31  1  0  0  0
 15 30  2  0  0  0
 15 41  1  0  0  0
 16 17  2  0  0  0
 16 18  1  0  0  0
 16 30  1  0  0  0
 17 26  1  0  0  0
 18 23  2  0  0  0
 19 20  1  0  0  0
 19 31  1  0  0  0
 19 42  1  0  0  0
 19 43  1  0  0  0
 20 22  1  0  0  0
 20 32  1  0  0  0
 20 44  1  0  0  0
 21 32  1  0  0  0
 21 45  1  0  0  0
 22 46  1  0  0  0
 22 47  1  0  0  0
 23 48  1  0  0  0
 24 25  3  0  0  0
 25 49  1  0  0  0
 32 50  1  0  0  0
 33 51  1  0  0  0
 52 57  2  0  0  0
 53 55  1  0  0  0
 53 56  1  0  0  0
 53 58  1  0  0  0
 54 57  1  0  0  0
 54 59  1  0  0  0
 54 60  1  0  0  0
 55 57  1  0  0  0
 55 61  1  0  0  0
 55 62  1  0  0  0
 56 63  1  0  0  0
 56 64  1  0  0  0
M  END
> <s_m_entry_id>
790

> <s_m_entry_name>
000000632.1

> <s_m_Source_Path>
/Users/zaksoul/Documents/3r_UNI/2nd_SEMESTER/BSC/FRAG_RECON/RESULTS/2

> <s_m_Source_File>
000000632.mol2

> <i_m_Source_File_Index>
1

$$$$
No_0_654
                    3D
 Schrodinger Suite 2022-4.
 64 69  0  0  1  0            999 V2000
   -5.1810    3.6090  -21.8530 C   0  0  0  0  0  0
   -5.4520    3.8050  -23.1860 C   0  0  0  0  0  0
   -3.9420    3.3510  -21.5190 C   0  0  0  0  0  0
   -3.0590    3.4860  -23.6870 C   0  0  0  0  0  0
   -2.8930    3.2340  -22.2690 C   0  0  0  0  0  0
   -4.4090    3.7540  -24.2010 C   0  0  0  0  0  0
   -3.6630    3.7850  -26.4030 C   0  0  0  0  0  0
    6.0870    3.0010  -21.1820 C   0  0  0  0  0  0
    5.9380    3.1560  -23.7310 C   0  0  0  0  0  0
   -4.6650    3.8890  -25.5350 C   0  0  0  0  0  0
    2.1540    3.7130  -23.7290 C   0  0  0  0  0  0
    1.3370    4.8230  -23.4210 C   0  0  0  0  0  0
    3.1410    6.0110  -22.7430 C   0  0  0  0  0  0
    3.5570    3.8990  -23.4210 C   0  0  0  0  0  0
    1.6030    2.6010  -24.3930 C   0  0  0  0  0  0
   -0.5220    3.4190  -24.2700 C   0  0  0  0  0  0
    0.0100    4.6350  -23.6670 C   0  0  0  0  0  0
   -1.9770    3.4300  -24.6180 C   0  0  0  0  0  0
    4.1570    1.3990  -23.1440 C   0  0  0  0  0  0
    5.0950    1.0350  -22.0030 C   0  0  2  0  0  0
    6.6890    2.5740  -22.5390 C   0  0  2  0  0  0
    5.0840    2.0310  -20.8310 C   0  0  0  0  0  0
   -2.3080    3.5970  -26.0440 C   0  0  0  0  0  0
   -1.5470    2.8150  -21.6780 C   0  0  0  0  0  0
   -0.5150    2.4620  -21.1780 C   0  0  0  0  0  0
   -0.8280    5.6800  -23.3140 F   0  0  0  0  0  0
   -3.7260    3.1020  -20.1390 F   0  0  0  0  0  0
    1.8200    5.9780  -22.8860 N   0  0  0  0  0  0
    4.0350    5.0470  -22.9720 N   0  0  0  0  0  0
    0.2950    2.5160  -24.6930 N   0  0  0  0  0  0
    4.4710    2.8500  -23.6070 N   0  0  0  0  0  0
    6.5000    1.1010  -22.4910 N   0  0  1  0  0  0
   -3.8410    3.8060  -27.7920 O   0  0  0  0  0  0
   -5.9796    3.6712  -21.1226 H   0  0  0  0  0  0
   -6.4675    4.0037  -23.5091 H   0  0  0  0  0  0
    5.6179    3.9906  -21.2849 H   0  0  0  0  0  0
    6.8763    3.0060  -20.4159 H   0  0  0  0  0  0
    6.3275    2.7150  -24.6604 H   0  0  0  0  0  0
    6.0833    4.2460  -23.7593 H   0  0  0  0  0  0
   -5.6765    4.0776  -25.8762 H   0  0  0  0  0  0
    2.2385    1.7718  -24.6821 H   0  0  0  0  0  0
    3.1157    1.3435  -22.7939 H   0  0  0  0  0  0
    4.3144    0.7047  -23.9826 H   0  0  0  0  0  0
    4.8700    0.0218  -21.6387 H   0  0  0  0  0  0
    7.7578    2.8293  -22.5885 H   0  0  0  0  0  0
    4.1018    2.5236  -20.7805 H   0  0  0  0  0  0
    5.3877    1.5123  -19.9097 H   0  0  0  0  0  0
   -1.5411    3.5789  -26.8099 H   0  0  0  0  0  0
    0.3934    2.1519  -20.7378 H   0  0  0  0  0  0
    7.1492    0.5983  -21.7894 H   0  0  0  0  0  0
   -2.9984    3.7179  -28.2217 H   0  0  0  0  0  0
    6.2250    8.7680  -20.6480 O   0  0  0  0  0  0
    3.7040    7.4300  -20.7680 N   0  0  1  0  0  0
    5.0940   10.6920  -21.0440 N   0  0  0  0  0  0
    3.8580    8.8250  -20.2300 C   0  0  0  0  0  0
    3.7060    7.3460  -22.2710 C   0  0  0  0  0  0
    5.1870    9.4120  -20.6540 C   0  0  0  0  0  0
    4.5183    6.8147  -20.4149 H   0  0  0  0  0  0
    4.2096   11.1582  -21.0230 H   0  0  0  0  0  0
    5.9091   11.1801  -21.3560 H   0  0  0  0  0  0
    3.8010    8.8020  -19.1317 H   0  0  0  0  0  0
    3.0412    9.4569  -20.6089 H   0  0  0  0  0  0
    4.7348    7.4610  -22.6429 H   0  0  0  0  0  0
    3.1010    8.1661  -22.6850 H   0  0  0  0  0  0
  1  2  2  0  0  0
  1  3  1  0  0  0
  1 34  1  0  0  0
  2  6  1  0  0  0
  2 35  1  0  0  0
  3  5  2  0  0  0
  3 27  1  0  0  0
  4  5  1  0  0  0
  4  6  2  0  0  0
  4 18  1  0  0  0
  5 24  1  0  0  0
  6 10  1  0  0  0
  7 10  2  0  0  0
  7 23  1  0  0  0
  7 33  1  0  0  0
  8 21  1  0  0  0
  8 22  1  0  0  0
  8 36  1  0  0  0
  8 37  1  0  0  0
  9 21  1  0  0  0
  9 31  1  0  0  0
  9 38  1  0  0  0
  9 39  1  0  0  0
 10 40  1  0  0  0
 11 12  1  0  0  0
 11 14  2  0  0  0
 11 15  1  0  0  0
 12 17  1  0  0  0
 12 28  2  0  0  0
 13 28  1  0  0  0
 13 29  2  0  0  0
 13 56  1  0  0  0
 14 29  1  0  0  0
 14 31  1  0  0  0
 15 30  2  0  0  0
 15 41  1  0  0  0
 16 17  2  0  0  0
 16 18  1  0  0  0
 16 30  1  0  0  0
 17 26  1  0  0  0
 18 23  2  0  0  0
 19 20  1  0  0  0
 19 31  1  0  0  0
 19 42  1  0  0  0
 19 43  1  0  0  0
 20 22  1  0  0  0
 20 32  1  0  0  0
 20 44  1  0  0  0
 21 32  1  0  0  0
 21 45  1  0  0  0
 22 46  1  0  0  0
 22 47  1  0  0  0
 23 48  1  0  0  0
 24 25  3  0  0  0
 25 49  1  0  0  0
 32 50  1  0  0  0
 33 51  1  0  0  0
 52 57  2  0  0  0
 53 55  1  0  0  0
 53 56  1  0  0  0
 53 58  1  0  0  0
 54 57  1  0  0  0
 54 59  1  0  0  0
 54 60  1  0  0  0
 55 57  1  0  0  0
 55 61  1  0  0  0
 55 62  1  0  0  0
 56 63  1  0  0  0
 56 64  1  0  0  0
M  END
> <s_m_entry_id>
791

> <s_m_entry_name>
000000633.1

> <s_m_Source_Path>
/Users/zaksoul/Documents/3r_UNI/2nd_SEMESTER/BSC/FRAG_RECON/RESULTS/2

> <s_m_Source_File>
000000633.mol2

> <i_m_Source_File_Index>
1

$$$$
No_0_655
                    3D
 Schrodinger Suite 2022-4.
 64 69  0  0  1  0            999 V2000
   -5.1250    3.4890  -21.6710 C   0  0  0  0  0  0
   -5.4250    3.6760  -23.0000 C   0  0  0  0  0  0
   -3.8800    3.2250  -21.3630 C   0  0  0  0  0  0
   -3.0460    3.3350  -23.5520 C   0  0  0  0  0  0
   -2.8500    3.0940  -22.1350 C   0  0  0  0  0  0
   -4.4050    3.6090  -24.0380 C   0  0  0  0  0  0
   -3.7090    3.6150  -26.2550 C   0  0  0  0  0  0
    6.1510    2.8040  -21.2500 C   0  0  0  0  0  0
    5.9450    2.9380  -23.7950 C   0  0  0  0  0  0
   -4.6910    3.7340  -25.3660 C   0  0  0  0  0  0
    2.1670    3.5230  -23.7130 C   0  0  0  0  0  0
    1.3650    4.6410  -23.3970 C   0  0  0  0  0  0
    3.1920    5.8210  -22.7700 C   0  0  0  0  0  0
    3.5770    3.7010  -23.4390 C   0  0  0  0  0  0
    1.5920    2.4090  -24.3550 C   0  0  0  0  0  0
   -0.5240    3.2440  -24.1910 C   0  0  0  0  0  0
    0.0310    4.4610  -23.6110 C   0  0  0  0  0  0
   -1.9850    3.2630  -24.5060 C   0  0  0  0  0  0
    4.1660    1.1990  -23.1530 C   0  0  0  0  0  0
    5.1260    0.8380  -22.0300 C   0  0  2  0  0  0
    6.7190    2.3610  -22.6160 C   0  0  2  0  0  0
    5.1490    1.8440  -20.8670 C   0  0  0  0  0  0
   -2.3480    3.4200  -25.9250 C   0  0  0  0  0  0
   -1.4940    2.6700  -21.5710 C   0  0  0  0  0  0
   -0.4540    2.3140  -21.0920 C   0  0  0  0  0  0
   -0.7910    5.5160  -23.2480 F   0  0  0  0  0  0
   -3.6350    2.9860  -19.9860 F   0  0  0  0  0  0
    1.8680    5.7970  -22.8830 N   0  0  0  0  0  0
    4.0730    4.8490  -23.0100 N   0  0  0  0  0  0
    0.2770    2.3310  -24.6250 N   0  0  0  0  0  0
    4.4800    2.6440  -23.6360 N   0  0  0  0  0  0
    6.5200    0.8890  -22.5510 N   0  0  1  0  0  0
   -3.9190    3.6260  -27.6400 O   0  0  0  0  0  0
   -5.9061    3.5633  -20.9230 H   0  0  0  0  0  0
   -6.4462    3.8798  -23.3012 H   0  0  0  0  0  0
    5.6867    3.7961  -21.3509 H   0  0  0  0  0  0
    6.9575    2.8090  -20.5020 H   0  0  0  0  0  0
    6.3101    2.4861  -24.7291 H   0  0  0  0  0  0
    6.0973    4.0266  -23.8364 H   0  0  0  0  0  0
   -5.7083    3.9278  -25.6863 H   0  0  0  0  0  0
    2.2153    1.5730  -24.6511 H   0  0  0  0  0  0
    3.1322    1.1536  -22.7798 H   0  0  0  0  0  0
    4.2982    0.4957  -23.9884 H   0  0  0  0  0  0
    4.9019   -0.1706  -21.6524 H   0  0  0  0  0  0
    7.7884    2.6072  -22.6917 H   0  0  0  0  0  0
    4.1719    2.3447  -20.7994 H   0  0  0  0  0  0
    5.4690    1.3302  -19.9485 H   0  0  0  0  0  0
   -1.5996    3.3899  -26.7086 H   0  0  0  0  0  0
    0.4618    2.0001  -20.6701 H   0  0  0  0  0  0
    7.1818    0.3876  -21.8603 H   0  0  0  0  0  0
   -3.0871    3.5281  -28.0881 H   0  0  0  0  0  0
    6.5340    8.6460  -21.2360 O   0  0  0  0  0  0
    4.1480    7.1200  -20.8640 N   0  0  1  0  0  0
    5.2280   10.4960  -21.1520 N   0  0  0  0  0  0
    4.3500    8.4750  -20.2460 C   0  0  0  0  0  0
    3.7770    7.1570  -22.3220 C   0  0  0  0  0  0
    5.4920    9.2010  -20.9240 C   0  0  0  0  0  0
    5.0603    6.5475  -20.7841 H   0  0  0  0  0  0
    4.3512   10.8849  -20.8691 H   0  0  0  0  0  0
    5.9082   11.0722  -21.6051 H   0  0  0  0  0  0
    4.5730    8.3600  -19.1750 H   0  0  0  0  0  0
    3.4280    9.0660  -20.3490 H   0  0  0  0  0  0
    4.6707    7.3839  -22.9218 H   0  0  0  0  0  0
    3.0398    7.9553  -22.4931 H   0  0  0  0  0  0
  1  2  2  0  0  0
  1  3  1  0  0  0
  1 34  1  0  0  0
  2  6  1  0  0  0
  2 35  1  0  0  0
  3  5  2  0  0  0
  3 27  1  0  0  0
  4  5  1  0  0  0
  4  6  2  0  0  0
  4 18  1  0  0  0
  5 24  1  0  0  0
  6 10  1  0  0  0
  7 10  2  0  0  0
  7 23  1  0  0  0
  7 33  1  0  0  0
  8 21  1  0  0  0
  8 22  1  0  0  0
  8 36  1  0  0  0
  8 37  1  0  0  0
  9 21  1  0  0  0
  9 31  1  0  0  0
  9 38  1  0  0  0
  9 39  1  0  0  0
 10 40  1  0  0  0
 11 12  1  0  0  0
 11 14  2  0  0  0
 11 15  1  0  0  0
 12 17  1  0  0  0
 12 28  2  0  0  0
 13 28  1  0  0  0
 13 29  2  0  0  0
 13 56  1  0  0  0
 14 29  1  0  0  0
 14 31  1  0  0  0
 15 30  2  0  0  0
 15 41  1  0  0  0
 16 17  2  0  0  0
 16 18  1  0  0  0
 16 30  1  0  0  0
 17 26  1  0  0  0
 18 23  2  0  0  0
 19 20  1  0  0  0
 19 31  1  0  0  0
 19 42  1  0  0  0
 19 43  1  0  0  0
 20 22  1  0  0  0
 20 32  1  0  0  0
 20 44  1  0  0  0
 21 32  1  0  0  0
 21 45  1  0  0  0
 22 46  1  0  0  0
 22 47  1  0  0  0
 23 48  1  0  0  0
 24 25  3  0  0  0
 25 49  1  0  0  0
 32 50  1  0  0  0
 33 51  1  0  0  0
 52 57  2  0  0  0
 53 55  1  0  0  0
 53 56  1  0  0  0
 53 58  1  0  0  0
 54 57  1  0  0  0
 54 59  1  0  0  0
 54 60  1  0  0  0
 55 57  1  0  0  0
 55 61  1  0  0  0
 55 62  1  0  0  0
 56 63  1  0  0  0
 56 64  1  0  0  0
M  END
> <s_m_entry_id>
792

> <s_m_entry_name>
000000634.1

> <s_m_Source_Path>
/Users/zaksoul/Documents/3r_UNI/2nd_SEMESTER/BSC/FRAG_RECON/RESULTS/2

> <s_m_Source_File>
000000634.mol2

> <i_m_Source_File_Index>
1

$$$$
No_0_656
                    3D
 Schrodinger Suite 2022-4.
 64 69  0  0  1  0            999 V2000
   -5.4110    3.5860  -21.8790 C   0  0  0  0  0  0
   -5.6750    3.7490  -23.2180 C   0  0  0  0  0  0
   -4.1740    3.3360  -21.5320 C   0  0  0  0  0  0
   -3.2800    3.4160  -23.6980 C   0  0  0  0  0  0
   -3.1210    3.1990  -22.2730 C   0  0  0  0  0  0
   -4.6260    3.6730  -24.2260 C   0  0  0  0  0  0
   -3.8680    3.6490  -26.4230 C   0  0  0  0  0  0
    5.8530    2.9870  -21.1330 C   0  0  0  0  0  0
    5.7170    3.0800  -23.6850 C   0  0  0  0  0  0
   -4.8750    3.7750  -25.5640 C   0  0  0  0  0  0
    1.9340    3.6390  -23.7180 C   0  0  0  0  0  0
    1.1170    4.7560  -23.4410 C   0  0  0  0  0  0
    2.9180    5.9590  -22.7830 C   0  0  0  0  0  0
    3.3350    3.8320  -23.4070 C   0  0  0  0  0  0
    1.3850    2.5110  -24.3570 C   0  0  0  0  0  0
   -0.7400    3.3340  -24.2650 C   0  0  0  0  0  0
   -0.2090    4.5640  -23.6900 C   0  0  0  0  0  0
   -2.1920    3.3370  -24.6210 C   0  0  0  0  0  0
    3.9320    1.3380  -23.0650 C   0  0  0  0  0  0
    4.8630    1.0020  -21.9110 C   0  0  2  0  0  0
    6.4620    2.5270  -22.4750 C   0  0  2  0  0  0
    4.8470    2.0260  -20.7630 C   0  0  0  0  0  0
   -2.5150    3.4700  -26.0530 C   0  0  0  0  0  0
   -1.7790    2.7940  -21.6650 C   0  0  0  0  0  0
   -0.7500    2.4520  -21.1510 C   0  0  0  0  0  0
   -1.0480    5.6180  -23.3670 F   0  0  0  0  0  0
   -3.9660    3.1200  -20.1450 F   0  0  0  0  0  0
    1.5970    5.9240  -22.9320 N   0  0  0  0  0  0
    3.8120    4.9900  -22.9830 N   0  0  0  0  0  0
    0.0790    2.4200  -24.6620 N   0  0  0  0  0  0
    4.2500    2.7780  -23.5620 N   0  0  0  0  0  0
    6.2710    1.0550  -22.3930 N   0  0  1  0  0  0
   -4.0390    3.6370  -27.8130 O   0  0  0  0  0  0
   -6.2131    3.6663  -21.1542 H   0  0  0  0  0  0
   -6.6886    3.9407  -23.5512 H   0  0  0  0  0  0
    5.3848    3.9738  -21.2632 H   0  0  0  0  0  0
    6.6382    3.0102  -20.3630 H   0  0  0  0  0  0
    6.1114    2.6159  -24.6010 H   0  0  0  0  0  0
    5.8644    4.1687  -23.7395 H   0  0  0  0  0  0
   -5.8843    3.9566  -25.9152 H   0  0  0  0  0  0
    2.0216    1.6746  -24.6221 H   0  0  0  0  0  0
    2.8886    1.2916  -22.7199 H   0  0  0  0  0  0
    4.0925    0.6233  -23.8857 H   0  0  0  0  0  0
    4.6360   -0.0018  -21.5226 H   0  0  0  0  0  0
    7.5315    2.7792  -22.5254 H   0  0  0  0  0  0
    3.8650    2.5205  -20.7307 H   0  0  0  0  0  0
    5.1447    1.5296  -19.8276 H   0  0  0  0  0  0
   -1.7449    3.4329  -26.8150 H   0  0  0  0  0  0
    0.1560    2.1520  -20.6990 H   0  0  0  0  0  0
    6.9155    0.5686  -21.6758 H   0  0  0  0  0  0
   -3.1945    3.5380  -28.2367 H   0  0  0  0  0  0
    6.2250    9.1670  -22.2580 O   0  0  0  0  0  0
    4.4980    7.1290  -21.2450 N   0  0  1  0  0  0
    4.9040   10.6620  -21.1840 N   0  0  0  0  0  0
    4.8050    8.3880  -20.4810 C   0  0  0  0  0  0
    3.4810    7.3060  -22.3400 C   0  0  0  0  0  0
    5.3960    9.4340  -21.4020 C   0  0  0  0  0  0
    5.4013    6.7589  -21.7071 H   0  0  0  0  0  0
    4.2253   10.8079  -20.4643 H   0  0  0  0  0  0
    5.2151   11.4312  -21.7422 H   0  0  0  0  0  0
    5.5195    8.1629  -19.6755 H   0  0  0  0  0  0
    3.8801    8.7769  -20.0301 H   0  0  0  0  0  0
    3.9521    7.8061  -23.1991 H   0  0  0  0  0  0
    2.6616    7.9453  -21.9798 H   0  0  0  0  0  0
  1  2  2  0  0  0
  1  3  1  0  0  0
  1 34  1  0  0  0
  2  6  1  0  0  0
  2 35  1  0  0  0
  3  5  2  0  0  0
  3 27  1  0  0  0
  4  5  1  0  0  0
  4  6  2  0  0  0
  4 18  1  0  0  0
  5 24  1  0  0  0
  6 10  1  0  0  0
  7 10  2  0  0  0
  7 23  1  0  0  0
  7 33  1  0  0  0
  8 21  1  0  0  0
  8 22  1  0  0  0
  8 36  1  0  0  0
  8 37  1  0  0  0
  9 21  1  0  0  0
  9 31  1  0  0  0
  9 38  1  0  0  0
  9 39  1  0  0  0
 10 40  1  0  0  0
 11 12  1  0  0  0
 11 14  2  0  0  0
 11 15  1  0  0  0
 12 17  1  0  0  0
 12 28  2  0  0  0
 13 28  1  0  0  0
 13 29  2  0  0  0
 13 56  1  0  0  0
 14 29  1  0  0  0
 14 31  1  0  0  0
 15 30  2  0  0  0
 15 41  1  0  0  0
 16 17  2  0  0  0
 16 18  1  0  0  0
 16 30  1  0  0  0
 17 26  1  0  0  0
 18 23  2  0  0  0
 19 20  1  0  0  0
 19 31  1  0  0  0
 19 42  1  0  0  0
 19 43  1  0  0  0
 20 22  1  0  0  0
 20 32  1  0  0  0
 20 44  1  0  0  0
 21 32  1  0  0  0
 21 45  1  0  0  0
 22 46  1  0  0  0
 22 47  1  0  0  0
 23 48  1  0  0  0
 24 25  3  0  0  0
 25 49  1  0  0  0
 32 50  1  0  0  0
 33 51  1  0  0  0
 52 57  2  0  0  0
 53 55  1  0  0  0
 53 56  1  0  0  0
 53 58  1  0  0  0
 54 57  1  0  0  0
 54 59  1  0  0  0
 54 60  1  0  0  0
 55 57  1  0  0  0
 55 61  1  0  0  0
 55 62  1  0  0  0
 56 63  1  0  0  0
 56 64  1  0  0  0
M  END
> <s_m_entry_id>
793

> <s_m_entry_name>
000000635.1

> <s_m_Source_Path>
/Users/zaksoul/Documents/3r_UNI/2nd_SEMESTER/BSC/FRAG_RECON/RESULTS/2

> <s_m_Source_File>
000000635.mol2

> <i_m_Source_File_Index>
1

$$$$
No_0_657
                    3D
 Schrodinger Suite 2022-4.
 64 69  0  0  1  0            999 V2000
   -5.1810    3.6090  -21.8530 C   0  0  0  0  0  0
   -5.4520    3.8050  -23.1860 C   0  0  0  0  0  0
   -3.9420    3.3510  -21.5190 C   0  0  0  0  0  0
   -3.0590    3.4860  -23.6870 C   0  0  0  0  0  0
   -2.8930    3.2340  -22.2690 C   0  0  0  0  0  0
   -4.4090    3.7540  -24.2010 C   0  0  0  0  0  0
   -3.6630    3.7850  -26.4030 C   0  0  0  0  0  0
    6.0870    3.0010  -21.1820 C   0  0  0  0  0  0
    5.9380    3.1560  -23.7310 C   0  0  0  0  0  0
   -4.6650    3.8890  -25.5350 C   0  0  0  0  0  0
    2.1540    3.7130  -23.7290 C   0  0  0  0  0  0
    1.3370    4.8230  -23.4210 C   0  0  0  0  0  0
    3.1410    6.0110  -22.7430 C   0  0  0  0  0  0
    3.5570    3.8990  -23.4210 C   0  0  0  0  0  0
    1.6030    2.6010  -24.3930 C   0  0  0  0  0  0
   -0.5220    3.4190  -24.2700 C   0  0  0  0  0  0
    0.0100    4.6350  -23.6670 C   0  0  0  0  0  0
   -1.9770    3.4300  -24.6180 C   0  0  0  0  0  0
    4.1570    1.3990  -23.1440 C   0  0  0  0  0  0
    5.0950    1.0350  -22.0030 C   0  0  2  0  0  0
    6.6890    2.5740  -22.5390 C   0  0  2  0  0  0
    5.0840    2.0310  -20.8310 C   0  0  0  0  0  0
   -2.3080    3.5970  -26.0440 C   0  0  0  0  0  0
   -1.5470    2.8150  -21.6780 C   0  0  0  0  0  0
   -0.5150    2.4620  -21.1780 C   0  0  0  0  0  0
   -0.8280    5.6800  -23.3140 F   0  0  0  0  0  0
   -3.7260    3.1020  -20.1390 F   0  0  0  0  0  0
    1.8200    5.9780  -22.8860 N   0  0  0  0  0  0
    4.0350    5.0470  -22.9720 N   0  0  0  0  0  0
    0.2950    2.5160  -24.6930 N   0  0  0  0  0  0
    4.4710    2.8500  -23.6070 N   0  0  0  0  0  0
    6.5000    1.1010  -22.4910 N   0  0  1  0  0  0
   -3.8410    3.8060  -27.7920 O   0  0  0  0  0  0
   -5.9796    3.6712  -21.1226 H   0  0  0  0  0  0
   -6.4675    4.0037  -23.5091 H   0  0  0  0  0  0
    5.6179    3.9906  -21.2849 H   0  0  0  0  0  0
    6.8763    3.0060  -20.4159 H   0  0  0  0  0  0
    6.3275    2.7150  -24.6604 H   0  0  0  0  0  0
    6.0833    4.2460  -23.7593 H   0  0  0  0  0  0
   -5.6765    4.0776  -25.8762 H   0  0  0  0  0  0
    2.2385    1.7718  -24.6821 H   0  0  0  0  0  0
    3.1157    1.3435  -22.7939 H   0  0  0  0  0  0
    4.3144    0.7047  -23.9826 H   0  0  0  0  0  0
    4.8700    0.0218  -21.6387 H   0  0  0  0  0  0
    7.7578    2.8293  -22.5885 H   0  0  0  0  0  0
    4.1018    2.5236  -20.7805 H   0  0  0  0  0  0
    5.3877    1.5123  -19.9097 H   0  0  0  0  0  0
   -1.5411    3.5789  -26.8099 H   0  0  0  0  0  0
    0.3934    2.1519  -20.7378 H   0  0  0  0  0  0
    7.1492    0.5983  -21.7894 H   0  0  0  0  0  0
   -2.9984    3.7179  -28.2217 H   0  0  0  0  0  0
    6.2660    9.4330  -22.5770 O   0  0  0  0  0  0
    4.9630    7.1450  -21.4680 N   0  0  1  0  0  0
    5.1440   10.6720  -21.0470 N   0  0  0  0  0  0
    5.3610    8.3340  -20.6390 C   0  0  0  0  0  0
    3.7060    7.3460  -22.2710 C   0  0  0  0  0  0
    5.6480    9.5260  -21.5270 C   0  0  0  0  0  0
    5.7520    6.9130  -22.1680 H   0  0  0  0  0  0
    4.6483   10.6740  -20.1785 H   0  0  0  0  0  0
    5.2641   11.5236  -21.5573 H   0  0  0  0  0  0
    6.2595    8.0889  -20.0537 H   0  0  0  0  0  0
    4.5468    8.5841  -19.9429 H   0  0  0  0  0  0
    3.9259    7.9798  -23.1427 H   0  0  0  0  0  0
    2.9561    7.8629  -21.6541 H   0  0  0  0  0  0
  1  2  2  0  0  0
  1  3  1  0  0  0
  1 34  1  0  0  0
  2  6  1  0  0  0
  2 35  1  0  0  0
  3  5  2  0  0  0
  3 27  1  0  0  0
  4  5  1  0  0  0
  4  6  2  0  0  0
  4 18  1  0  0  0
  5 24  1  0  0  0
  6 10  1  0  0  0
  7 10  2  0  0  0
  7 23  1  0  0  0
  7 33  1  0  0  0
  8 21  1  0  0  0
  8 22  1  0  0  0
  8 36  1  0  0  0
  8 37  1  0  0  0
  9 21  1  0  0  0
  9 31  1  0  0  0
  9 38  1  0  0  0
  9 39  1  0  0  0
 10 40  1  0  0  0
 11 12  1  0  0  0
 11 14  2  0  0  0
 11 15  1  0  0  0
 12 17  1  0  0  0
 12 28  2  0  0  0
 13 28  1  0  0  0
 13 29  2  0  0  0
 13 56  1  0  0  0
 14 29  1  0  0  0
 14 31  1  0  0  0
 15 30  2  0  0  0
 15 41  1  0  0  0
 16 17  2  0  0  0
 16 18  1  0  0  0
 16 30  1  0  0  0
 17 26  1  0  0  0
 18 23  2  0  0  0
 19 20  1  0  0  0
 19 31  1  0  0  0
 19 42  1  0  0  0
 19 43  1  0  0  0
 20 22  1  0  0  0
 20 32  1  0  0  0
 20 44  1  0  0  0
 21 32  1  0  0  0
 21 45  1  0  0  0
 22 46  1  0  0  0
 22 47  1  0  0  0
 23 48  1  0  0  0
 24 25  3  0  0  0
 25 49  1  0  0  0
 32 50  1  0  0  0
 33 51  1  0  0  0
 52 57  2  0  0  0
 53 55  1  0  0  0
 53 56  1  0  0  0
 53 58  1  0  0  0
 54 57  1  0  0  0
 54 59  1  0  0  0
 54 60  1  0  0  0
 55 57  1  0  0  0
 55 61  1  0  0  0
 55 62  1  0  0  0
 56 63  1  0  0  0
 56 64  1  0  0  0
M  END
> <s_m_entry_id>
794

> <s_m_entry_name>
000000636.1

> <s_m_Source_Path>
/Users/zaksoul/Documents/3r_UNI/2nd_SEMESTER/BSC/FRAG_RECON/RESULTS/2

> <s_m_Source_File>
000000636.mol2

> <i_m_Source_File_Index>
1

$$$$
No_0_658
                    3D
 Schrodinger Suite 2022-4.
 64 69  0  0  1  0            999 V2000
   -5.4990    3.1940  -22.1290 C   0  0  0  0  0  0
   -5.7390    3.4040  -23.4660 C   0  0  0  0  0  0
   -4.2620    2.9730  -21.7620 C   0  0  0  0  0  0
   -3.3230    3.1770  -23.9020 C   0  0  0  0  0  0
   -3.1890    2.9060  -22.4830 C   0  0  0  0  0  0
   -4.6650    3.4080  -24.4510 C   0  0  0  0  0  0
   -3.8570    3.5030  -26.6280 C   0  0  0  0  0  0
    5.7590    2.9660  -21.1360 C   0  0  0  0  0  0
    5.6780    3.1610  -23.6840 C   0  0  0  0  0  0
   -4.8870    3.5570  -25.7890 C   0  0  0  0  0  0
    1.8790    3.5860  -23.7850 C   0  0  0  0  0  0
    1.0150    4.6610  -23.4830 C   0  0  0  0  0  0
    2.7560    5.8980  -22.7320 C   0  0  0  0  0  0
    3.2640    3.8150  -23.4330 C   0  0  0  0  0  0
    1.3860    2.4670  -24.4840 C   0  0  0  0  0  0
   -0.7690    3.2090  -24.4100 C   0  0  0  0  0  0
   -0.2970    4.4320  -23.7710 C   0  0  0  0  0  0
   -2.2120    3.1760  -24.8000 C   0  0  0  0  0  0
    3.9440    1.3320  -23.1800 C   0  0  0  0  0  0
    4.8610    0.9810  -22.0180 C   0  0  2  0  0  0
    6.4150    2.5840  -22.4810 C   0  0  2  0  0  0
    4.7810    1.9550  -20.8310 C   0  0  0  0  0  0
   -2.5080    3.3570  -26.2320 C   0  0  0  0  0  0
   -1.8470    2.5230  -21.8600 C   0  0  0  0  0  0
   -0.8180    2.1980  -21.3360 C   0  0  0  0  0  0
   -1.1810    5.4410  -23.4250 F   0  0  0  0  0  0
   -4.0780    2.7070  -20.3810 F   0  0  0  0  0  0
    1.4400    5.8220  -22.9140 N   0  0  0  0  0  0
    3.6880    4.9700  -22.9510 N   0  0  0  0  0  0
    0.0910    2.3420  -24.8240 N   0  0  0  0  0  0
    4.2200    2.8020  -23.6090 N   0  0  0  0  0  0
    6.2760    1.1050  -22.4640 N   0  0  1  0  0  0
   -3.9960    3.5440  -28.0210 O   0  0  0  0  0  0
   -6.3200    3.2151  -21.4214 H   0  0  0  0  0  0
   -6.7510    3.5737  -23.8154 H   0  0  0  0  0  0
    5.2582    3.9403  -21.2360 H   0  0  0  0  0  0
    6.5250    2.9842  -20.3468 H   0  0  0  0  0  0
    6.1096    2.7505  -24.6088 H   0  0  0  0  0  0
    5.7860    4.2557  -23.6901 H   0  0  0  0  0  0
   -5.8944    3.7165  -26.1562 H   0  0  0  0  0  0
    2.0587    1.6658  -24.7681 H   0  0  0  0  0  0
    2.8955    1.2341  -22.8621 H   0  0  0  0  0  0
    4.1498    0.6591  -24.0255 H   0  0  0  0  0  0
    4.6611   -0.0458  -21.6778 H   0  0  0  0  0  0
    7.4753    2.8766  -22.4951 H   0  0  0  0  0  0
    3.7811    2.4125  -20.8007 H   0  0  0  0  0  0
    5.0755    1.4305  -19.9101 H   0  0  0  0  0  0
   -1.7194    3.3791  -26.9754 H   0  0  0  0  0  0
    0.0878    1.9111  -20.8751 H   0  0  0  0  0  0
    6.9216    0.6122  -21.7521 H   0  0  0  0  0  0
   -3.1386    3.4925  -28.4269 H   0  0  0  0  0  0
    5.4630    9.6630  -22.7620 O   0  0  0  0  0  0
    4.6680    7.1300  -21.7050 N   0  0  1  0  0  0
    4.5530   10.5940  -20.9070 N   0  0  0  0  0  0
    5.0980    8.2760  -20.8320 C   0  0  0  0  0  0
    3.2590    7.2440  -22.2210 C   0  0  0  0  0  0
    5.0680    9.5740  -21.6090 C   0  0  0  0  0  0
    5.3171    7.0700  -22.5661 H   0  0  0  0  0  0
    4.2491   10.4500  -19.9652 H   0  0  0  0  0  0
    4.4740   11.4990  -21.3250 H   0  0  0  0  0  0
    6.1183    8.0929  -20.4639 H   0  0  0  0  0  0
    4.4222    8.3510  -19.9673 H   0  0  0  0  0  0
    3.2260    7.9810  -23.0370 H   0  0  0  0  0  0
    2.6011    7.5990  -21.4141 H   0  0  0  0  0  0
  1  2  2  0  0  0
  1  3  1  0  0  0
  1 34  1  0  0  0
  2  6  1  0  0  0
  2 35  1  0  0  0
  3  5  2  0  0  0
  3 27  1  0  0  0
  4  5  1  0  0  0
  4  6  2  0  0  0
  4 18  1  0  0  0
  5 24  1  0  0  0
  6 10  1  0  0  0
  7 10  2  0  0  0
  7 23  1  0  0  0
  7 33  1  0  0  0
  8 21  1  0  0  0
  8 22  1  0  0  0
  8 36  1  0  0  0
  8 37  1  0  0  0
  9 21  1  0  0  0
  9 31  1  0  0  0
  9 38  1  0  0  0
  9 39  1  0  0  0
 10 40  1  0  0  0
 11 12  1  0  0  0
 11 14  2  0  0  0
 11 15  1  0  0  0
 12 17  1  0  0  0
 12 28  2  0  0  0
 13 28  1  0  0  0
 13 29  2  0  0  0
 13 56  1  0  0  0
 14 29  1  0  0  0
 14 31  1  0  0  0
 15 30  2  0  0  0
 15 41  1  0  0  0
 16 17  2  0  0  0
 16 18  1  0  0  0
 16 30  1  0  0  0
 17 26  1  0  0  0
 18 23  2  0  0  0
 19 20  1  0  0  0
 19 31  1  0  0  0
 19 42  1  0  0  0
 19 43  1  0  0  0
 20 22  1  0  0  0
 20 32  1  0  0  0
 20 44  1  0  0  0
 21 32  1  0  0  0
 21 45  1  0  0  0
 22 46  1  0  0  0
 22 47  1  0  0  0
 23 48  1  0  0  0
 24 25  3  0  0  0
 25 49  1  0  0  0
 32 50  1  0  0  0
 33 51  1  0  0  0
 52 57  2  0  0  0
 53 55  1  0  0  0
 53 56  1  0  0  0
 53 58  1  0  0  0
 54 57  1  0  0  0
 54 59  1  0  0  0
 54 60  1  0  0  0
 55 57  1  0  0  0
 55 61  1  0  0  0
 55 62  1  0  0  0
 56 63  1  0  0  0
 56 64  1  0  0  0
M  END
> <s_m_entry_id>
795

> <s_m_entry_name>
000000637.1

> <s_m_Source_Path>
/Users/zaksoul/Documents/3r_UNI/2nd_SEMESTER/BSC/FRAG_RECON/RESULTS/2

> <s_m_Source_File>
000000637.mol2

> <i_m_Source_File_Index>
1

$$$$
No_0_659
                    3D
 Schrodinger Suite 2022-4.
 64 69  0  0  1  0            999 V2000
   -5.2510    3.4540  -21.9100 C   0  0  0  0  0  0
   -5.5080    3.6420  -23.2470 C   0  0  0  0  0  0
   -4.0140    3.2110  -21.5590 C   0  0  0  0  0  0
   -3.1060    3.3480  -23.7170 C   0  0  0  0  0  0
   -2.9550    3.1020  -22.2960 C   0  0  0  0  0  0
   -4.4510    3.6000  -24.2490 C   0  0  0  0  0  0
   -3.6790    3.6310  -26.4410 C   0  0  0  0  0  0
    6.0130    2.9700  -21.0970 C   0  0  0  0  0  0
    5.8940    3.1150  -23.6470 C   0  0  0  0  0  0
   -4.6930    3.7270  -25.5860 C   0  0  0  0  0  0
    2.1050    3.6310  -23.6950 C   0  0  0  0  0  0
    1.2730    4.7320  -23.4010 C   0  0  0  0  0  0
    3.0550    5.9420  -22.7050 C   0  0  0  0  0  0
    3.5010    3.8330  -23.3700 C   0  0  0  0  0  0
    1.5740    2.5100  -24.3620 C   0  0  0  0  0  0
   -0.5610    3.3060  -24.2680 C   0  0  0  0  0  0
   -0.0500    4.5300  -23.6630 C   0  0  0  0  0  0
   -2.0110    3.3010  -24.6340 C   0  0  0  0  0  0
    4.1250    1.3400  -23.0770 C   0  0  0  0  0  0
    5.0520    0.9900  -21.9230 C   0  0  2  0  0  0
    6.6370    2.5450  -22.4440 C   0  0  2  0  0  0
    5.0170    1.9900  -20.7550 C   0  0  0  0  0  0
   -2.3260    3.4590  -26.0640 C   0  0  0  0  0  0
   -1.6120    2.6990  -21.6870 C   0  0  0  0  0  0
   -0.5830    2.3590  -21.1730 C   0  0  0  0  0  0
   -0.9030    5.5670  -23.3240 F   0  0  0  0  0  0
   -3.8130    2.9680  -20.1760 F   0  0  0  0  0  0
    1.7360    5.8950  -22.8640 N   0  0  0  0  0  0
    3.9610    4.9870  -22.9190 N   0  0  0  0  0  0
    0.2710    2.4110  -24.6780 N   0  0  0  0  0  0
    4.4300    2.7930  -23.5410 N   0  0  0  0  0  0
    6.4620    1.0700  -22.3940 N   0  0  1  0  0  0
   -3.8400    3.6460  -27.8320 O   0  0  0  0  0  0
   -6.0594    3.5092  -21.1899 H   0  0  0  0  0  0
   -6.5214    3.8296  -23.5831 H   0  0  0  0  0  0
    5.5346    3.9541  -21.2090 H   0  0  0  0  0  0
    6.7928    2.9851  -20.3213 H   0  0  0  0  0  0
    6.2995    2.6752  -24.5701 H   0  0  0  0  0  0
    6.0283    4.2064  -23.6773 H   0  0  0  0  0  0
   -5.7019    3.9047  -25.9404 H   0  0  0  0  0  0
    2.2217    1.6865  -24.6402 H   0  0  0  0  0  0
    3.0800    1.2744  -22.7398 H   0  0  0  0  0  0
    4.2997    0.6443  -23.9110 H   0  0  0  0  0  0
    4.8340   -0.0244  -21.5576 H   0  0  0  0  0  0
    7.7036    2.8114  -22.4823 H   0  0  0  0  0  0
    4.0291    2.4724  -20.7187 H   0  0  0  0  0  0
    5.3136    1.4775  -19.8279 H   0  0  0  0  0  0
   -1.5501    3.4470  -26.8209 H   0  0  0  0  0  0
    0.3232    2.0599  -20.7209 H   0  0  0  0  0  0
    7.1084    0.5764  -21.6835 H   0  0  0  0  0  0
   -2.9910    3.5658  -28.2506 H   0  0  0  0  0  0
    5.4750    9.8770  -23.1030 O   0  0  0  0  0  0
    5.0970    7.2360  -22.0810 N   0  0  1  0  0  0
    5.0050   10.6290  -21.0180 N   0  0  0  0  0  0
    5.6690    8.3530  -21.2540 C   0  0  0  0  0  0
    3.6000    7.2850  -22.2300 C   0  0  0  0  0  0
    5.3820    9.6910  -21.9000 C   0  0  0  0  0  0
    5.5150    7.2730  -23.0761 H   0  0  0  0  0  0
    4.9500   10.4069  -20.0445 H   0  0  0  0  0  0
    4.7789   11.5504  -21.3341 H   0  0  0  0  0  0
    6.7566    8.2181  -21.1590 H   0  0  0  0  0  0
    5.2250    8.3290  -20.2479 H   0  0  0  0  0  0
    3.3291    8.0668  -22.9548 H   0  0  0  0  0  0
    3.1440    7.5440  -21.2630 H   0  0  0  0  0  0
  1  2  2  0  0  0
  1  3  1  0  0  0
  1 34  1  0  0  0
  2  6  1  0  0  0
  2 35  1  0  0  0
  3  5  2  0  0  0
  3 27  1  0  0  0
  4  5  1  0  0  0
  4  6  2  0  0  0
  4 18  1  0  0  0
  5 24  1  0  0  0
  6 10  1  0  0  0
  7 10  2  0  0  0
  7 23  1  0  0  0
  7 33  1  0  0  0
  8 21  1  0  0  0
  8 22  1  0  0  0
  8 36  1  0  0  0
  8 37  1  0  0  0
  9 21  1  0  0  0
  9 31  1  0  0  0
  9 38  1  0  0  0
  9 39  1  0  0  0
 10 40  1  0  0  0
 11 12  1  0  0  0
 11 14  2  0  0  0
 11 15  1  0  0  0
 12 17  1  0  0  0
 12 28  2  0  0  0
 13 28  1  0  0  0
 13 29  2  0  0  0
 13 56  1  0  0  0
 14 29  1  0  0  0
 14 31  1  0  0  0
 15 30  2  0  0  0
 15 41  1  0  0  0
 16 17  2  0  0  0
 16 18  1  0  0  0
 16 30  1  0  0  0
 17 26  1  0  0  0
 18 23  2  0  0  0
 19 20  1  0  0  0
 19 31  1  0  0  0
 19 42  1  0  0  0
 19 43  1  0  0  0
 20 22  1  0  0  0
 20 32  1  0  0  0
 20 44  1  0  0  0
 21 32  1  0  0  0
 21 45  1  0  0  0
 22 46  1  0  0  0
 22 47  1  0  0  0
 23 48  1  0  0  0
 24 25  3  0  0  0
 25 49  1  0  0  0
 32 50  1  0  0  0
 33 51  1  0  0  0
 52 57  2  0  0  0
 53 55  1  0  0  0
 53 56  1  0  0  0
 53 58  1  0  0  0
 54 57  1  0  0  0
 54 59  1  0  0  0
 54 60  1  0  0  0
 55 57  1  0  0  0
 55 61  1  0  0  0
 55 62  1  0  0  0
 56 63  1  0  0  0
 56 64  1  0  0  0
M  END
> <s_m_entry_id>
796

> <s_m_entry_name>
000000638.1

> <s_m_Source_Path>
/Users/zaksoul/Documents/3r_UNI/2nd_SEMESTER/BSC/FRAG_RECON/RESULTS/2

> <s_m_Source_File>
000000638.mol2

> <i_m_Source_File_Index>
1

$$$$
No_0_660
                    3D
 Schrodinger Suite 2022-4.
 64 69  0  0  1  0            999 V2000
   -5.2340    3.3020  -21.7580 C   0  0  0  0  0  0
   -5.4960    3.5220  -23.0890 C   0  0  0  0  0  0
   -3.9940    3.0550  -21.4180 C   0  0  0  0  0  0
   -3.0950    3.2480  -23.5750 C   0  0  0  0  0  0
   -2.9380    2.9680  -22.1610 C   0  0  0  0  0  0
   -4.4430    3.5080  -24.0960 C   0  0  0  0  0  0
   -3.6790    3.5960  -26.2890 C   0  0  0  0  0  0
    6.0350    2.8390  -20.9980 C   0  0  0  0  0  0
    5.9060    3.0460  -23.5440 C   0  0  0  0  0  0
   -4.6900    3.6670  -25.4290 C   0  0  0  0  0  0
    2.1150    3.5500  -23.5650 C   0  0  0  0  0  0
    1.2800    4.6400  -23.2410 C   0  0  0  0  0  0
    3.0610    5.8390  -22.5220 C   0  0  0  0  0  0
    3.5120    3.7490  -23.2400 C   0  0  0  0  0  0
    1.5850    2.4440  -24.2580 C   0  0  0  0  0  0
   -0.5520    3.2290  -24.1360 C   0  0  0  0  0  0
   -0.0420    4.4390  -23.5030 C   0  0  0  0  0  0
   -2.0030    3.2270  -24.4970 C   0  0  0  0  0  0
    4.1460    1.2510  -23.0110 C   0  0  0  0  0  0
    5.0790    0.8770  -21.8690 C   0  0  2  0  0  0
    6.6560    2.4490  -22.3580 C   0  0  2  0  0  0
    5.0440    1.8470  -20.6770 C   0  0  0  0  0  0
   -2.3240    3.4200  -25.9220 C   0  0  0  0  0  0
   -1.5910    2.5550  -21.5670 C   0  0  0  0  0  0
   -0.5590    2.2070  -21.0650 C   0  0  0  0  0  0
   -0.8980    5.4650  -23.1350 F   0  0  0  0  0  0
   -3.7870    2.7790  -20.0420 F   0  0  0  0  0  0
    1.7410    5.7910  -22.6770 N   0  0  0  0  0  0
    3.9700    4.8930  -22.7630 N   0  0  0  0  0  0
    0.2810    2.3470  -24.5710 N   0  0  0  0  0  0
    4.4430    2.7170  -23.4400 N   0  0  0  0  0  0
    6.4860    0.9730  -22.3430 N   0  0  1  0  0  0
   -3.8450    3.6450  -27.6790 O   0  0  0  0  0  0
   -6.0397    3.3371  -21.0336 H   0  0  0  0  0  0
   -6.5112    3.7136  -23.4170 H   0  0  0  0  0  0
    5.5535    3.8242  -21.0848 H   0  0  0  0  0  0
    6.8178    2.8380  -20.2252 H   0  0  0  0  0  0
    6.3098    2.6301  -24.4788 H   0  0  0  0  0  0
    6.0362    4.1383  -23.5480 H   0  0  0  0  0  0
   -5.7011    3.8497  -25.7744 H   0  0  0  0  0  0
    2.2352    1.6302  -24.5580 H   0  0  0  0  0  0
    3.1025    1.1733  -22.6719 H   0  0  0  0  0  0
    4.3196    0.5769  -23.8627 H   0  0  0  0  0  0
    4.8651   -0.1470  -21.5290 H   0  0  0  0  0  0
    7.7213    2.7206  -22.3933 H   0  0  0  0  0  0
    4.0543    2.3242  -20.6245 H   0  0  0  0  0  0
    5.3457    1.3132  -19.7638 H   0  0  0  0  0  0
   -1.5510    3.4290  -26.6819 H   0  0  0  0  0  0
    0.3501    1.9000  -20.6240 H   0  0  0  0  0  0
    7.1368    0.4643  -21.6473 H   0  0  0  0  0  0
   -2.9974    3.5777  -28.1028 H   0  0  0  0  0  0
    4.9320   10.0580  -22.9650 O   0  0  0  0  0  0
    5.0790    7.2880  -22.2820 N   0  0  1  0  0  0
    5.0060   10.4930  -20.7420 N   0  0  0  0  0  0
    5.7660    8.3600  -21.4810 C   0  0  0  0  0  0
    3.6020    7.1720  -22.0160 C   0  0  0  0  0  0
    5.1970    9.7200  -21.8210 C   0  0  0  0  0  0
    5.1961    7.4941  -23.3357 H   0  0  0  0  0  0
    5.2468   10.1512  -19.8336 H   0  0  0  0  0  0
    4.6239   11.4112  -20.8460 H   0  0  0  0  0  0
    6.8435    8.3480  -21.7019 H   0  0  0  0  0  0
    5.6260    8.1620  -20.4081 H   0  0  0  0  0  0
    3.0739    7.9961  -22.5180 H   0  0  0  0  0  0
    3.4170    7.2560  -20.9349 H   0  0  0  0  0  0
  1  2  2  0  0  0
  1  3  1  0  0  0
  1 34  1  0  0  0
  2  6  1  0  0  0
  2 35  1  0  0  0
  3  5  2  0  0  0
  3 27  1  0  0  0
  4  5  1  0  0  0
  4  6  2  0  0  0
  4 18  1  0  0  0
  5 24  1  0  0  0
  6 10  1  0  0  0
  7 10  2  0  0  0
  7 23  1  0  0  0
  7 33  1  0  0  0
  8 21  1  0  0  0
  8 22  1  0  0  0
  8 36  1  0  0  0
  8 37  1  0  0  0
  9 21  1  0  0  0
  9 31  1  0  0  0
  9 38  1  0  0  0
  9 39  1  0  0  0
 10 40  1  0  0  0
 11 12  1  0  0  0
 11 14  2  0  0  0
 11 15  1  0  0  0
 12 17  1  0  0  0
 12 28  2  0  0  0
 13 28  1  0  0  0
 13 29  2  0  0  0
 13 56  1  0  0  0
 14 29  1  0  0  0
 14 31  1  0  0  0
 15 30  2  0  0  0
 15 41  1  0  0  0
 16 17  2  0  0  0
 16 18  1  0  0  0
 16 30  1  0  0  0
 17 26  1  0  0  0
 18 23  2  0  0  0
 19 20  1  0  0  0
 19 31  1  0  0  0
 19 42  1  0  0  0
 19 43  1  0  0  0
 20 22  1  0  0  0
 20 32  1  0  0  0
 20 44  1  0  0  0
 21 32  1  0  0  0
 21 45  1  0  0  0
 22 46  1  0  0  0
 22 47  1  0  0  0
 23 48  1  0  0  0
 24 25  3  0  0  0
 25 49  1  0  0  0
 32 50  1  0  0  0
 33 51  1  0  0  0
 52 57  2  0  0  0
 53 55  1  0  0  0
 53 56  1  0  0  0
 53 58  1  0  0  0
 54 57  1  0  0  0
 54 59  1  0  0  0
 54 60  1  0  0  0
 55 57  1  0  0  0
 55 61  1  0  0  0
 55 62  1  0  0  0
 56 63  1  0  0  0
 56 64  1  0  0  0
M  END
> <s_m_entry_id>
797

> <s_m_entry_name>
000000639.1

> <s_m_Source_Path>
/Users/zaksoul/Documents/3r_UNI/2nd_SEMESTER/BSC/FRAG_RECON/RESULTS/2

> <s_m_Source_File>
000000639.mol2

> <i_m_Source_File_Index>
1

$$$$
No_0_661
                    3D
 Schrodinger Suite 2022-4.
 64 69  0  0  1  0            999 V2000
   -5.3360    3.5250  -21.8300 C   0  0  0  0  0  0
   -5.5980    3.7170  -23.1660 C   0  0  0  0  0  0
   -4.1010    3.2590  -21.4870 C   0  0  0  0  0  0
   -3.2050    3.3750  -23.6520 C   0  0  0  0  0  0
   -3.0490    3.1290  -22.2310 C   0  0  0  0  0  0
   -4.5490    3.6520  -24.1750 C   0  0  0  0  0  0
   -3.7900    3.6650  -26.3720 C   0  0  0  0  0  0
    5.9220    2.8240  -21.0910 C   0  0  0  0  0  0
    5.7890    2.9680  -23.6410 C   0  0  0  0  0  0
   -4.7970    3.7820  -25.5110 C   0  0  0  0  0  0
    2.0100    3.5570  -23.6640 C   0  0  0  0  0  0
    1.2010    4.6750  -23.3670 C   0  0  0  0  0  0
    3.0120    5.8510  -22.6840 C   0  0  0  0  0  0
    3.4120    3.7330  -23.3490 C   0  0  0  0  0  0
    1.4530    2.4460  -24.3260 C   0  0  0  0  0  0
   -0.6660    3.2830  -24.2190 C   0  0  0  0  0  0
   -0.1260    4.4980  -23.6190 C   0  0  0  0  0  0
   -2.1180    3.3050  -24.5760 C   0  0  0  0  0  0
    3.9900    1.2280  -23.0560 C   0  0  0  0  0  0
    4.9180    0.8620  -21.9080 C   0  0  2  0  0  0
    6.5280    2.3850  -22.4420 C   0  0  2  0  0  0
    4.9090    1.8640  -20.7410 C   0  0  0  0  0  0
   -2.4390    3.4680  -26.0040 C   0  0  0  0  0  0
   -1.7110    2.7010  -21.6300 C   0  0  0  0  0  0
   -0.6850    2.3420  -21.1230 C   0  0  0  0  0  0
   -0.9570    5.5520  -23.2760 F   0  0  0  0  0  0
   -3.8960    3.0140  -20.1050 F   0  0  0  0  0  0
    1.6900    5.8290  -22.8340 N   0  0  0  0  0  0
    3.8980    4.8780  -22.9030 N   0  0  0  0  0  0
    0.1460    2.3710  -24.6330 N   0  0  0  0  0  0
    4.3190    2.6750  -23.5240 N   0  0  0  0  0  0
    6.3260    0.9140  -22.3880 N   0  0  1  0  0  0
   -3.9610    3.6810  -27.7620 O   0  0  0  0  0  0
   -6.1385    3.5973  -21.1049 H   0  0  0  0  0  0
   -6.6098    3.9228  -23.4962 H   0  0  0  0  0  0
    5.4619    3.8169  -21.2020 H   0  0  0  0  0  0
    6.7073    2.8260  -20.3208 H   0  0  0  0  0  0
    6.1798    2.5187  -24.5659 H   0  0  0  0  0  0
    5.9445    4.0564  -23.6743 H   0  0  0  0  0  0
   -5.8050    3.9778  -25.8584 H   0  0  0  0  0  0
    2.0833    1.6100  -24.6070 H   0  0  0  0  0  0
    2.9461    1.1836  -22.7121 H   0  0  0  0  0  0
    4.1455    0.5281  -23.8902 H   0  0  0  0  0  0
    4.6818   -0.1472  -21.5396 H   0  0  0  0  0  0
    7.5992    2.6311  -22.4874 H   0  0  0  0  0  0
    3.9310    2.3656  -20.6986 H   0  0  0  0  0  0
    5.2025    1.3476  -19.8151 H   0  0  0  0  0  0
   -1.6683    3.4399  -26.7657 H   0  0  0  0  0  0
    0.2180    2.0260  -20.6760 H   0  0  0  0  0  0
    6.9666    0.4092  -21.6800 H   0  0  0  0  0  0
   -3.1167    3.5840  -28.1866 H   0  0  0  0  0  0
    4.5060   10.2080  -23.2190 O   0  0  0  0  0  0
    4.9520    7.4170  -22.8000 N   0  0  1  0  0  0
    5.0710   10.5080  -21.0450 N   0  0  0  0  0  0
    5.7490    8.4810  -22.0980 C   0  0  0  0  0  0
    3.5850    7.1840  -22.2150 C   0  0  0  0  0  0
    5.0460    9.8180  -22.1950 C   0  0  0  0  0  0
    4.8110    7.6950  -23.8340 H   0  0  0  0  0  0
    5.5323   10.1277  -20.2434 H   0  0  0  0  0  0
    4.6269   11.4022  -20.9890 H   0  0  0  0  0  0
    6.7453    8.5560  -22.5581 H   0  0  0  0  0  0
    5.8721    8.2079  -21.0396 H   0  0  0  0  0  0
    2.9120    7.9989  -22.5200 H   0  0  0  0  0  0
    3.6510    7.1880  -21.1170 H   0  0  0  0  0  0
  1  2  2  0  0  0
  1  3  1  0  0  0
  1 34  1  0  0  0
  2  6  1  0  0  0
  2 35  1  0  0  0
  3  5  2  0  0  0
  3 27  1  0  0  0
  4  5  1  0  0  0
  4  6  2  0  0  0
  4 18  1  0  0  0
  5 24  1  0  0  0
  6 10  1  0  0  0
  7 10  2  0  0  0
  7 23  1  0  0  0
  7 33  1  0  0  0
  8 21  1  0  0  0
  8 22  1  0  0  0
  8 36  1  0  0  0
  8 37  1  0  0  0
  9 21  1  0  0  0
  9 31  1  0  0  0
  9 38  1  0  0  0
  9 39  1  0  0  0
 10 40  1  0  0  0
 11 12  1  0  0  0
 11 14  2  0  0  0
 11 15  1  0  0  0
 12 17  1  0  0  0
 12 28  2  0  0  0
 13 28  1  0  0  0
 13 29  2  0  0  0
 13 56  1  0  0  0
 14 29  1  0  0  0
 14 31  1  0  0  0
 15 30  2  0  0  0
 15 41  1  0  0  0
 16 17  2  0  0  0
 16 18  1  0  0  0
 16 30  1  0  0  0
 17 26  1  0  0  0
 18 23  2  0  0  0
 19 20  1  0  0  0
 19 31  1  0  0  0
 19 42  1  0  0  0
 19 43  1  0  0  0
 20 22  1  0  0  0
 20 32  1  0  0  0
 20 44  1  0  0  0
 21 32  1  0  0  0
 21 45  1  0  0  0
 22 46  1  0  0  0
 22 47  1  0  0  0
 23 48  1  0  0  0
 24 25  3  0  0  0
 25 49  1  0  0  0
 32 50  1  0  0  0
 33 51  1  0  0  0
 52 57  2  0  0  0
 53 55  1  0  0  0
 53 56  1  0  0  0
 53 58  1  0  0  0
 54 57  1  0  0  0
 54 59  1  0  0  0
 54 60  1  0  0  0
 55 57  1  0  0  0
 55 61  1  0  0  0
 55 62  1  0  0  0
 56 63  1  0  0  0
 56 64  1  0  0  0
M  END
> <s_m_entry_id>
798

> <s_m_entry_name>
000000640.1

> <s_m_Source_Path>
/Users/zaksoul/Documents/3r_UNI/2nd_SEMESTER/BSC/FRAG_RECON/RESULTS/2

> <s_m_Source_File>
000000640.mol2

> <i_m_Source_File_Index>
1

$$$$
No_0_662
                    3D
 Schrodinger Suite 2022-4.
 64 69  0  0  1  0            999 V2000
   -5.3800    3.6700  -21.6960 C   0  0  0  0  0  0
   -5.6530    3.9140  -23.0210 C   0  0  0  0  0  0
   -4.1420    3.3930  -21.3740 C   0  0  0  0  0  0
   -3.2630    3.5970  -23.5390 C   0  0  0  0  0  0
   -3.0960    3.2950  -22.1300 C   0  0  0  0  0  0
   -4.6110    3.8920  -24.0400 C   0  0  0  0  0  0
   -3.8700    3.9950  -26.2400 C   0  0  0  0  0  0
    5.8850    2.9660  -21.0720 C   0  0  0  0  0  0
    5.7320    3.2110  -23.6130 C   0  0  0  0  0  0
   -4.8700    4.0750  -25.3670 C   0  0  0  0  0  0
    1.9520    3.7930  -23.5840 C   0  0  0  0  0  0
    1.1430    4.8950  -23.2350 C   0  0  0  0  0  0
    2.9560    6.0470  -22.5200 C   0  0  0  0  0  0
    3.3560    3.9580  -23.2720 C   0  0  0  0  0  0
    1.3910    2.7070  -24.2850 C   0  0  0  0  0  0
   -0.7280    3.5340  -24.1280 C   0  0  0  0  0  0
   -0.1860    4.7250  -23.4850 C   0  0  0  0  0  0
   -2.1830    3.5670  -24.4730 C   0  0  0  0  0  0
    3.9410    1.4460  -23.0840 C   0  0  0  0  0  0
    4.8780    1.0360  -21.9590 C   0  0  2  0  0  0
    6.4820    2.5830  -22.4440 C   0  0  2  0  0  0
    4.8770    1.9910  -20.7530 C   0  0  0  0  0  0
   -2.5160    3.7860  -25.8910 C   0  0  0  0  0  0
   -1.7520    2.8470  -21.5570 C   0  0  0  0  0  0
   -0.7210    2.4700  -21.0720 C   0  0  0  0  0  0
   -1.0160    5.7630  -23.0940 F   0  0  0  0  0  0
   -3.9250    3.0940  -20.0040 F   0  0  0  0  0  0
    1.6340    6.0280  -22.6610 N   0  0  0  0  0  0
    3.8420    5.0860  -22.7850 N   0  0  0  0  0  0
    0.0820    2.6420  -24.5850 N   0  0  0  0  0  0
    4.2630    2.9100  -23.4970 N   0  0  0  0  0  0
    6.2820    1.1100  -22.4470 N   0  0  1  0  0  0
   -4.0510    4.0660  -27.6270 O   0  0  0  0  0  0
   -6.1769    3.7112  -20.9623 H   0  0  0  0  0  0
   -6.6676    4.1308  -23.3351 H   0  0  0  0  0  0
    5.4220    3.9615  -21.1396 H   0  0  0  0  0  0
    6.6761    2.9388  -20.3082 H   0  0  0  0  0  0
    6.1164    2.8004  -24.5583 H   0  0  0  0  0  0
    5.8843    4.3004  -23.6039 H   0  0  0  0  0  0
   -5.8807    4.2828  -25.6992 H   0  0  0  0  0  0
    2.0214    1.8849  -24.6042 H   0  0  0  0  0  0
    2.9000    1.3845  -22.7340 H   0  0  0  0  0  0
    4.0913    0.7801  -23.9466 H   0  0  0  0  0  0
    4.6468    0.0125  -21.6289 H   0  0  0  0  0  0
    7.5525    2.8324  -22.4874 H   0  0  0  0  0  0
    3.8979    2.4876  -20.6834 H   0  0  0  0  0  0
    5.1777    1.4380  -19.8509 H   0  0  0  0  0  0
   -1.7515    3.7900  -26.6595 H   0  0  0  0  0  0
    0.1863    2.1379  -20.6458 H   0  0  0  0  0  0
    6.9303    0.5793  -21.7655 H   0  0  0  0  0  0
   -3.2098    3.9878  -28.0615 H   0  0  0  0  0  0
    3.9740   10.5660  -22.7350 O   0  0  0  0  0  0
    4.6990    7.8050  -22.8410 N   0  0  1  0  0  0
    5.0170   10.6450  -20.7250 N   0  0  0  0  0  0
    5.5640    8.8480  -22.1890 C   0  0  0  0  0  0
    3.5300    7.3620  -22.0030 C   0  0  0  0  0  0
    4.7680   10.1080  -21.9280 C   0  0  0  0  0  0
    4.2970    8.1960  -23.7640 H   0  0  0  0  0  0
    5.6812   10.2159  -20.1128 H   0  0  0  0  0  0
    4.5383   11.4755  -20.4402 H   0  0  0  0  0  0
    6.4150    9.0810  -22.8460 H   0  0  0  0  0  0
    5.9541    8.4569  -21.2378 H   0  0  0  0  0  0
    2.7498    8.1372  -22.0250 H   0  0  0  0  0  0
    3.8550    7.2340  -20.9599 H   0  0  0  0  0  0
  1  2  2  0  0  0
  1  3  1  0  0  0
  1 34  1  0  0  0
  2  6  1  0  0  0
  2 35  1  0  0  0
  3  5  2  0  0  0
  3 27  1  0  0  0
  4  5  1  0  0  0
  4  6  2  0  0  0
  4 18  1  0  0  0
  5 24  1  0  0  0
  6 10  1  0  0  0
  7 10  2  0  0  0
  7 23  1  0  0  0
  7 33  1  0  0  0
  8 21  1  0  0  0
  8 22  1  0  0  0
  8 36  1  0  0  0
  8 37  1  0  0  0
  9 21  1  0  0  0
  9 31  1  0  0  0
  9 38  1  0  0  0
  9 39  1  0  0  0
 10 40  1  0  0  0
 11 12  1  0  0  0
 11 14  2  0  0  0
 11 15  1  0  0  0
 12 17  1  0  0  0
 12 28  2  0  0  0
 13 28  1  0  0  0
 13 29  2  0  0  0
 13 56  1  0  0  0
 14 29  1  0  0  0
 14 31  1  0  0  0
 15 30  2  0  0  0
 15 41  1  0  0  0
 16 17  2  0  0  0
 16 18  1  0  0  0
 16 30  1  0  0  0
 17 26  1  0  0  0
 18 23  2  0  0  0
 19 20  1  0  0  0
 19 31  1  0  0  0
 19 42  1  0  0  0
 19 43  1  0  0  0
 20 22  1  0  0  0
 20 32  1  0  0  0
 20 44  1  0  0  0
 21 32  1  0  0  0
 21 45  1  0  0  0
 22 46  1  0  0  0
 22 47  1  0  0  0
 23 48  1  0  0  0
 24 25  3  0  0  0
 25 49  1  0  0  0
 32 50  1  0  0  0
 33 51  1  0  0  0
 52 57  2  0  0  0
 53 55  1  0  0  0
 53 56  1  0  0  0
 53 58  1  0  0  0
 54 57  1  0  0  0
 54 59  1  0  0  0
 54 60  1  0  0  0
 55 57  1  0  0  0
 55 61  1  0  0  0
 55 62  1  0  0  0
 56 63  1  0  0  0
 56 64  1  0  0  0
M  END
> <s_m_entry_id>
799

> <s_m_entry_name>
000000641.1

> <s_m_Source_Path>
/Users/zaksoul/Documents/3r_UNI/2nd_SEMESTER/BSC/FRAG_RECON/RESULTS/2

> <s_m_Source_File>
000000641.mol2

> <i_m_Source_File_Index>
1

$$$$
No_0_663
                    3D
 Schrodinger Suite 2022-4.
 64 69  0  0  1  0            999 V2000
   -5.3360    3.4250  -21.7130 C   0  0  0  0  0  0
   -5.5900    3.6390  -23.0470 C   0  0  0  0  0  0
   -4.0960    3.1990  -21.3610 C   0  0  0  0  0  0
   -3.1800    3.4050  -23.5100 C   0  0  0  0  0  0
   -3.0310    3.1300  -22.0940 C   0  0  0  0  0  0
   -4.5270    3.6410  -24.0430 C   0  0  0  0  0  0
   -3.7440    3.7390  -26.2300 C   0  0  0  0  0  0
    5.9310    3.1570  -20.8470 C   0  0  0  0  0  0
    5.8230    3.3590  -23.3940 C   0  0  0  0  0  0
   -4.7640    3.7940  -25.3790 C   0  0  0  0  0  0
    2.0240    3.7970  -23.4510 C   0  0  0  0  0  0
    1.1670    4.8730  -23.1370 C   0  0  0  0  0  0
    2.9200    6.1040  -22.4030 C   0  0  0  0  0  0
    3.4140    4.0200  -23.1140 C   0  0  0  0  0  0
    1.5200    2.6810  -24.1470 C   0  0  0  0  0  0
   -0.6320    3.4290  -24.0470 C   0  0  0  0  0  0
   -0.1490    4.6490  -23.4110 C   0  0  0  0  0  0
   -2.0800    3.4020  -24.4210 C   0  0  0  0  0  0
    4.0890    1.5350  -22.8740 C   0  0  0  0  0  0
    5.0170    1.1780  -21.7240 C   0  0  2  0  0  0
    6.5710    2.7770  -22.2000 C   0  0  2  0  0  0
    4.9540    2.1490  -20.5330 C   0  0  0  0  0  0
   -2.3900    3.5870  -25.8490 C   0  0  0  0  0  0
   -1.6830    2.7410  -21.4870 C   0  0  0  0  0  0
   -0.6500    2.4110  -20.9750 C   0  0  0  0  0  0
   -1.0260    5.6610  -23.0530 F   0  0  0  0  0  0
   -3.8970    2.9290  -19.9820 F   0  0  0  0  0  0
    1.6030    6.0320  -22.5700 N   0  0  0  0  0  0
    3.8470    5.1730  -22.6340 N   0  0  0  0  0  0
    0.2210    2.5610  -24.4730 N   0  0  0  0  0  0
    4.3650    3.0040  -23.3030 N   0  0  0  0  0  0
    6.4270    1.2980  -22.1840 N   0  0  1  0  0  0
   -3.8990    3.7830  -27.6210 O   0  0  0  0  0  0
   -6.1490    3.4461  -20.9963 H   0  0  0  0  0  0
   -6.6057    3.8116  -23.3842 H   0  0  0  0  0  0
    5.4335    4.1338  -20.9388 H   0  0  0  0  0  0
    6.7062    3.1711  -20.0667 H   0  0  0  0  0  0
    6.2420    2.9491  -24.3248 H   0  0  0  0  0  0
    5.9341    4.4534  -23.3980 H   0  0  0  0  0  0
   -5.7748    3.9586  -25.7343 H   0  0  0  0  0  0
    2.1865    1.8780  -24.4401 H   0  0  0  0  0  0
    3.0437    1.4391  -22.5451 H   0  0  0  0  0  0
    4.2828    0.8628  -23.7229 H   0  0  0  0  0  0
    4.8173    0.1514  -21.3831 H   0  0  0  0  0  0
    7.6321    3.0658  -22.2252 H   0  0  0  0  0  0
    3.9562    2.6101  -20.4906 H   0  0  0  0  0  0
    5.2568    1.6212  -19.6166 H   0  0  0  0  0  0
   -1.6102    3.6091  -26.6017 H   0  0  0  0  0  0
    0.2598    2.1211  -20.5241 H   0  0  0  0  0  0
    7.0803    0.8019  -21.4815 H   0  0  0  0  0  0
   -3.0463    3.7306  -28.0365 H   0  0  0  0  0  0
    3.0390   10.7310  -22.1300 O   0  0  0  0  0  0
    4.0950    8.2230  -23.0000 N   0  0  1  0  0  0
    4.7580   10.8130  -20.6560 N   0  0  0  0  0  0
    4.9680    9.3510  -22.5240 C   0  0  0  0  0  0
    3.4340    7.4460  -21.8940 C   0  0  0  0  0  0
    4.1470   10.3700  -21.7640 C   0  0  0  0  0  0
    3.3076    8.6167  -23.6256 H   0  0  0  0  0  0
    5.6677   10.4741  -20.4161 H   0  0  0  0  0  0
    4.3034   11.4824  -20.0685 H   0  0  0  0  0  0
    5.4448    9.8358  -23.3887 H   0  0  0  0  0  0
    5.7558    8.9521  -21.8681 H   0  0  0  0  0  0
    2.5945    8.0296  -21.4883 H   0  0  0  0  0  0
    4.1563    7.2779  -21.0816 H   0  0  0  0  0  0
  1  2  2  0  0  0
  1  3  1  0  0  0
  1 34  1  0  0  0
  2  6  1  0  0  0
  2 35  1  0  0  0
  3  5  2  0  0  0
  3 27  1  0  0  0
  4  5  1  0  0  0
  4  6  2  0  0  0
  4 18  1  0  0  0
  5 24  1  0  0  0
  6 10  1  0  0  0
  7 10  2  0  0  0
  7 23  1  0  0  0
  7 33  1  0  0  0
  8 21  1  0  0  0
  8 22  1  0  0  0
  8 36  1  0  0  0
  8 37  1  0  0  0
  9 21  1  0  0  0
  9 31  1  0  0  0
  9 38  1  0  0  0
  9 39  1  0  0  0
 10 40  1  0  0  0
 11 12  1  0  0  0
 11 14  2  0  0  0
 11 15  1  0  0  0
 12 17  1  0  0  0
 12 28  2  0  0  0
 13 28  1  0  0  0
 13 29  2  0  0  0
 13 56  1  0  0  0
 14 29  1  0  0  0
 14 31  1  0  0  0
 15 30  2  0  0  0
 15 41  1  0  0  0
 16 17  2  0  0  0
 16 18  1  0  0  0
 16 30  1  0  0  0
 17 26  1  0  0  0
 18 23  2  0  0  0
 19 20  1  0  0  0
 19 31  1  0  0  0
 19 42  1  0  0  0
 19 43  1  0  0  0
 20 22  1  0  0  0
 20 32  1  0  0  0
 20 44  1  0  0  0
 21 32  1  0  0  0
 21 45  1  0  0  0
 22 46  1  0  0  0
 22 47  1  0  0  0
 23 48  1  0  0  0
 24 25  3  0  0  0
 25 49  1  0  0  0
 32 50  1  0  0  0
 33 51  1  0  0  0
 52 57  2  0  0  0
 53 55  1  0  0  0
 53 56  1  0  0  0
 53 58  1  0  0  0
 54 57  1  0  0  0
 54 59  1  0  0  0
 54 60  1  0  0  0
 55 57  1  0  0  0
 55 61  1  0  0  0
 55 62  1  0  0  0
 56 63  1  0  0  0
 56 64  1  0  0  0
M  END
> <s_m_entry_id>
800

> <s_m_entry_name>
000000642.1

> <s_m_Source_Path>
/Users/zaksoul/Documents/3r_UNI/2nd_SEMESTER/BSC/FRAG_RECON/RESULTS/2

> <s_m_Source_File>
000000642.mol2

> <i_m_Source_File_Index>
1

$$$$
No_0_664
                    3D
 Schrodinger Suite 2022-4.
 64 69  0  0  1  0            999 V2000
   -5.2580    3.9060  -22.0840 C   0  0  0  0  0  0
   -5.4800    4.1480  -23.4190 C   0  0  0  0  0  0
   -4.0330    3.6270  -21.7150 C   0  0  0  0  0  0
   -3.0730    3.8260  -23.8450 C   0  0  0  0  0  0
   -2.9600    3.5260  -22.4310 C   0  0  0  0  0  0
   -4.4010    4.1230  -24.3970 C   0  0  0  0  0  0
   -3.5770    4.2210  -26.5690 C   0  0  0  0  0  0
    5.9740    3.1830  -21.0360 C   0  0  0  0  0  0
    5.9170    3.4240  -23.5810 C   0  0  0  0  0  0
   -4.6090    4.3040  -25.7340 C   0  0  0  0  0  0
    2.1400    4.0120  -23.6950 C   0  0  0  0  0  0
    1.3210    5.1170  -23.3790 C   0  0  0  0  0  0
    3.1080    6.2670  -22.5980 C   0  0  0  0  0  0
    3.5320    4.1760  -23.3310 C   0  0  0  0  0  0
    1.6040    2.9270  -24.4150 C   0  0  0  0  0  0
   -0.5180    3.7580  -24.3400 C   0  0  0  0  0  0
    0.0020    4.9490  -23.6780 C   0  0  0  0  0  0
   -1.9590    3.7930  -24.7380 C   0  0  0  0  0  0
    4.1040    1.6630  -23.1180 C   0  0  0  0  0  0
    4.9980    1.2530  -21.9570 C   0  0  2  0  0  0
    6.6220    2.7960  -22.3840 C   0  0  2  0  0  0
    4.9530    2.2090  -20.7530 C   0  0  0  0  0  0
   -2.2380    4.0110  -26.1690 C   0  0  0  0  0  0
   -1.6390    3.0760  -21.8080 C   0  0  0  0  0  0
   -0.6280    2.6980  -21.2840 C   0  0  0  0  0  0
   -0.8410    5.9890  -23.3200 F   0  0  0  0  0  0
   -3.8690    3.3290  -20.3370 F   0  0  0  0  0  0
    1.7920    6.2500  -22.7880 N   0  0  0  0  0  0
    4.0010    5.3040  -22.8270 N   0  0  0  0  0  0
    0.3070    2.8630  -24.7640 N   0  0  0  0  0  0
    4.4450    3.1260  -23.5200 N   0  0  0  0  0  0
    6.4200    1.3240  -22.3930 N   0  0  1  0  0  0
   -3.7060    4.2910  -27.9620 O   0  0  0  0  0  0
   -6.0817    3.9501  -21.3807 H   0  0  0  0  0  0
   -6.4819    4.3668  -23.7704 H   0  0  0  0  0  0
    5.5166    4.1796  -21.1228 H   0  0  0  0  0  0
    6.7363    3.1547  -20.2434 H   0  0  0  0  0  0
    6.3359    3.0112  -24.5106 H   0  0  0  0  0  0
    6.0714    4.5130  -23.5679 H   0  0  0  0  0  0
   -5.6062    4.5127  -26.1042 H   0  0  0  0  0  0
    2.2442    2.1031  -24.7090 H   0  0  0  0  0  0
    3.0505    1.6035  -22.8072 H   0  0  0  0  0  0
    4.2857    0.9949  -23.9728 H   0  0  0  0  0  0
    4.7527    0.2302  -21.6349 H   0  0  0  0  0  0
    7.6936    3.0442  -22.3880 H   0  0  0  0  0  0
    3.9734    2.7084  -20.7217 H   0  0  0  0  0  0
    5.2194    1.6569  -19.8396 H   0  0  0  0  0  0
   -1.4449    4.0120  -26.9079 H   0  0  0  0  0  0
    0.2621    2.3660  -20.8229 H   0  0  0  0  0  0
    7.0401    0.7926  -21.6863 H   0  0  0  0  0  0
   -2.8492    4.2098  -28.3642 H   0  0  0  0  0  0
    3.1010   10.8420  -21.8460 O   0  0  0  0  0  0
    4.0460    8.5040  -23.1880 N   0  0  1  0  0  0
    5.0890   10.8820  -20.7590 N   0  0  0  0  0  0
    4.9550    9.6290  -22.7800 C   0  0  0  0  0  0
    3.6650    7.5810  -22.0610 C   0  0  0  0  0  0
    4.2750   10.5160  -21.7590 C   0  0  0  0  0  0
    3.1290    8.9090  -23.5900 H   0  0  0  0  0  0
    6.0417   10.5781  -20.7520 H   0  0  0  0  0  0
    4.7441   11.4609  -20.0201 H   0  0  0  0  0  0
    5.2189   10.2257  -23.6656 H   0  0  0  0  0  0
    5.8793    9.2159  -22.3499 H   0  0  0  0  0  0
    2.9079    8.0681  -21.4289 H   0  0  0  0  0  0
    4.5495    7.3769  -21.4397 H   0  0  0  0  0  0
  1  2  2  0  0  0
  1  3  1  0  0  0
  1 34  1  0  0  0
  2  6  1  0  0  0
  2 35  1  0  0  0
  3  5  2  0  0  0
  3 27  1  0  0  0
  4  5  1  0  0  0
  4  6  2  0  0  0
  4 18  1  0  0  0
  5 24  1  0  0  0
  6 10  1  0  0  0
  7 10  2  0  0  0
  7 23  1  0  0  0
  7 33  1  0  0  0
  8 21  1  0  0  0
  8 22  1  0  0  0
  8 36  1  0  0  0
  8 37  1  0  0  0
  9 21  1  0  0  0
  9 31  1  0  0  0
  9 38  1  0  0  0
  9 39  1  0  0  0
 10 40  1  0  0  0
 11 12  1  0  0  0
 11 14  2  0  0  0
 11 15  1  0  0  0
 12 17  1  0  0  0
 12 28  2  0  0  0
 13 28  1  0  0  0
 13 29  2  0  0  0
 13 56  1  0  0  0
 14 29  1  0  0  0
 14 31  1  0  0  0
 15 30  2  0  0  0
 15 41  1  0  0  0
 16 17  2  0  0  0
 16 18  1  0  0  0
 16 30  1  0  0  0
 17 26  1  0  0  0
 18 23  2  0  0  0
 19 20  1  0  0  0
 19 31  1  0  0  0
 19 42  1  0  0  0
 19 43  1  0  0  0
 20 22  1  0  0  0
 20 32  1  0  0  0
 20 44  1  0  0  0
 21 32  1  0  0  0
 21 45  1  0  0  0
 22 46  1  0  0  0
 22 47  1  0  0  0
 23 48  1  0  0  0
 24 25  3  0  0  0
 25 49  1  0  0  0
 32 50  1  0  0  0
 33 51  1  0  0  0
 52 57  2  0  0  0
 53 55  1  0  0  0
 53 56  1  0  0  0
 53 58  1  0  0  0
 54 57  1  0  0  0
 54 59  1  0  0  0
 54 60  1  0  0  0
 55 57  1  0  0  0
 55 61  1  0  0  0
 55 62  1  0  0  0
 56 63  1  0  0  0
 56 64  1  0  0  0
M  END
> <s_m_entry_id>
801

> <s_m_entry_name>
000000643.1

> <s_m_Source_Path>
/Users/zaksoul/Documents/3r_UNI/2nd_SEMESTER/BSC/FRAG_RECON/RESULTS/2

> <s_m_Source_File>
000000643.mol2

> <i_m_Source_File_Index>
1

$$$$
No_0_665
                    3D
 Schrodinger Suite 2022-4.
 64 69  0  0  1  0            999 V2000
   -5.0960    3.6420  -22.0930 C   0  0  0  0  0  0
   -5.3150    3.8660  -23.4310 C   0  0  0  0  0  0
   -3.8730    3.3600  -21.7180 C   0  0  0  0  0  0
   -2.9100    3.5240  -23.8500 C   0  0  0  0  0  0
   -2.7990    3.2430  -22.4320 C   0  0  0  0  0  0
   -4.2350    3.8200  -24.4080 C   0  0  0  0  0  0
   -3.4080    3.8820  -26.5800 C   0  0  0  0  0  0
    6.1310    2.8650  -21.0220 C   0  0  0  0  0  0
    6.0780    3.0700  -23.5700 C   0  0  0  0  0  0
   -4.4410    3.9840  -25.7480 C   0  0  0  0  0  0
    2.3050    3.6800  -23.6960 C   0  0  0  0  0  0
    1.4920    4.7940  -23.3970 C   0  0  0  0  0  0
    3.2850    5.9440  -22.6310 C   0  0  0  0  0  0
    3.6970    3.8400  -23.3340 C   0  0  0  0  0  0
    1.7630    2.5880  -24.4020 C   0  0  0  0  0  0
   -0.3540    3.4330  -24.3410 C   0  0  0  0  0  0
    0.1720    4.6300  -23.6950 C   0  0  0  0  0  0
   -1.7940    3.4710  -24.7410 C   0  0  0  0  0  0
    4.2540    1.3270  -23.0830 C   0  0  0  0  0  0
    5.1440    0.9280  -21.9160 C   0  0  2  0  0  0
    6.7770    2.4550  -22.3630 C   0  0  2  0  0  0
    5.1030    1.9020  -20.7260 C   0  0  0  0  0  0
   -2.0700    3.6690  -26.1750 C   0  0  0  0  0  0
   -1.4820    2.7940  -21.8000 C   0  0  0  0  0  0
   -0.4740    2.4170  -21.2700 C   0  0  0  0  0  0
   -0.6640    5.6800  -23.3530 F   0  0  0  0  0  0
   -3.7120    3.0820  -20.3370 F   0  0  0  0  0  0
    1.9690    5.9320  -22.8220 N   0  0  0  0  0  0
    4.1730    4.9720  -22.8450 N   0  0  0  0  0  0
    0.4660    2.5270  -24.7510 N   0  0  0  0  0  0
    4.6040    2.7820  -23.5060 N   0  0  0  0  0  0
    6.5670    0.9840  -22.3510 N   0  0  1  0  0  0
   -3.5350    3.9330  -27.9730 O   0  0  0  0  0  0
   -5.9202    3.7002  -21.3913 H   0  0  0  0  0  0
   -6.3149    4.0858  -23.7874 H   0  0  0  0  0  0
    5.6790    3.8628  -21.1229 H   0  0  0  0  0  0
    6.8918    2.8438  -20.2279 H   0  0  0  0  0  0
    6.4956    2.6413  -24.4930 H   0  0  0  0  0  0
    6.2385    4.1582  -23.5720 H   0  0  0  0  0  0
   -5.4366    4.1940  -26.1217 H   0  0  0  0  0  0
    2.3979    1.7555  -24.6828 H   0  0  0  0  0  0
    3.1996    1.2786  -22.7732 H   0  0  0  0  0  0
    4.4325    0.6461  -23.9283 H   0  0  0  0  0  0
    4.8916   -0.0885  -21.5799 H   0  0  0  0  0  0
    7.8502    2.6961  -22.3691 H   0  0  0  0  0  0
    4.1265    2.4079  -20.7018 H   0  0  0  0  0  0
    5.3653    1.3612  -19.8048 H   0  0  0  0  0  0
   -1.2760    3.6549  -26.9128 H   0  0  0  0  0  0
    0.4136    2.0862  -20.8032 H   0  0  0  0  0  0
    7.1828    0.4591  -21.6357 H   0  0  0  0  0  0
   -2.6785    3.8410  -28.3736 H   0  0  0  0  0  0
    3.0290   10.2790  -21.0040 O   0  0  0  0  0  0
    3.5660    8.3840  -23.0740 N   0  0  1  0  0  0
    5.2690   10.5850  -20.8610 N   0  0  0  0  0  0
    4.4090    9.6100  -22.8560 C   0  0  0  0  0  0
    3.8490    7.2620  -22.1120 C   0  0  0  0  0  0
    4.1490   10.1930  -21.4840 C   0  0  0  0  0  0
    2.5226    8.6401  -22.9640 H   0  0  0  0  0  0
    6.1549   10.4850  -21.3140 H   0  0  0  0  0  0
    5.2190   10.9769  -19.9423 H   0  0  0  0  0  0
    4.1710   10.3598  -23.6248 H   0  0  0  0  0  0
    5.4723    9.3432  -22.9459 H   0  0  0  0  0  0
    3.3989    7.4951  -21.1357 H   0  0  0  0  0  0
    4.9357    7.1650  -21.9720 H   0  0  0  0  0  0
  1  2  2  0  0  0
  1  3  1  0  0  0
  1 34  1  0  0  0
  2  6  1  0  0  0
  2 35  1  0  0  0
  3  5  2  0  0  0
  3 27  1  0  0  0
  4  5  1  0  0  0
  4  6  2  0  0  0
  4 18  1  0  0  0
  5 24  1  0  0  0
  6 10  1  0  0  0
  7 10  2  0  0  0
  7 23  1  0  0  0
  7 33  1  0  0  0
  8 21  1  0  0  0
  8 22  1  0  0  0
  8 36  1  0  0  0
  8 37  1  0  0  0
  9 21  1  0  0  0
  9 31  1  0  0  0
  9 38  1  0  0  0
  9 39  1  0  0  0
 10 40  1  0  0  0
 11 12  1  0  0  0
 11 14  2  0  0  0
 11 15  1  0  0  0
 12 17  1  0  0  0
 12 28  2  0  0  0
 13 28  1  0  0  0
 13 29  2  0  0  0
 13 56  1  0  0  0
 14 29  1  0  0  0
 14 31  1  0  0  0
 15 30  2  0  0  0
 15 41  1  0  0  0
 16 17  2  0  0  0
 16 18  1  0  0  0
 16 30  1  0  0  0
 17 26  1  0  0  0
 18 23  2  0  0  0
 19 20  1  0  0  0
 19 31  1  0  0  0
 19 42  1  0  0  0
 19 43  1  0  0  0
 20 22  1  0  0  0
 20 32  1  0  0  0
 20 44  1  0  0  0
 21 32  1  0  0  0
 21 45  1  0  0  0
 22 46  1  0  0  0
 22 47  1  0  0  0
 23 48  1  0  0  0
 24 25  3  0  0  0
 25 49  1  0  0  0
 32 50  1  0  0  0
 33 51  1  0  0  0
 52 57  2  0  0  0
 53 55  1  0  0  0
 53 56  1  0  0  0
 53 58  1  0  0  0
 54 57  1  0  0  0
 54 59  1  0  0  0
 54 60  1  0  0  0
 55 57  1  0  0  0
 55 61  1  0  0  0
 55 62  1  0  0  0
 56 63  1  0  0  0
 56 64  1  0  0  0
M  END
> <s_m_entry_id>
802

> <s_m_entry_name>
000000644.1

> <s_m_Source_Path>
/Users/zaksoul/Documents/3r_UNI/2nd_SEMESTER/BSC/FRAG_RECON/RESULTS/2

> <s_m_Source_File>
000000644.mol2

> <i_m_Source_File_Index>
1

$$$$
No_0_666
                    3D
 Schrodinger Suite 2022-4.
 64 69  0  0  1  0            999 V2000
   -4.9640    3.8780  -22.0280 C   0  0  0  0  0  0
   -5.2030    4.0630  -23.3690 C   0  0  0  0  0  0
   -3.7440    3.5690  -21.6680 C   0  0  0  0  0  0
   -2.8200    3.6250  -23.8230 C   0  0  0  0  0  0
   -2.6890    3.3900  -22.3980 C   0  0  0  0  0  0
   -4.1460    3.9470  -24.3650 C   0  0  0  0  0  0
   -3.3640    3.9050  -26.5530 C   0  0  0  0  0  0
    6.2510    2.7610  -21.1520 C   0  0  0  0  0  0
    6.1520    2.8790  -23.7040 C   0  0  0  0  0  0
   -4.3740    4.0700  -25.7050 C   0  0  0  0  0  0
    2.3990    3.6110  -23.7780 C   0  0  0  0  0  0
    1.6290    4.7620  -23.5020 C   0  0  0  0  0  0
    3.4750    5.8760  -22.8130 C   0  0  0  0  0  0
    3.8030    3.7370  -23.4480 C   0  0  0  0  0  0
    1.8070    2.5140  -24.4330 C   0  0  0  0  0  0
   -0.2790    3.4310  -24.3600 C   0  0  0  0  0  0
    0.2990    4.6310  -23.7680 C   0  0  0  0  0  0
   -1.7260    3.5030  -24.7330 C   0  0  0  0  0  0
    4.2820    1.2160  -23.1190 C   0  0  0  0  0  0
    5.1820    0.8290  -21.9570 C   0  0  2  0  0  0
    6.8550    2.2840  -22.4900 C   0  0  2  0  0  0
    5.1990    1.8450  -20.8020 C   0  0  0  0  0  0
   -2.0250    3.6610  -26.1670 C   0  0  0  0  0  0
   -1.3740    2.9200  -21.7770 C   0  0  0  0  0  0
   -0.3680    2.5280  -21.2530 C   0  0  0  0  0  0
   -0.4950    5.7200  -23.4470 F   0  0  0  0  0  0
   -3.5630    3.3330  -20.2800 F   0  0  0  0  0  0
    2.1560    5.9020  -22.9780 N   0  0  0  0  0  0
    4.3260    4.8690  -23.0100 N   0  0  0  0  0  0
    0.5020    2.4840  -24.7540 N   0  0  0  0  0  0
    4.6710    2.6430  -23.6010 N   0  0  0  0  0  0
    6.5970    0.8220  -22.4210 N   0  0  1  0  0  0
   -3.5180    3.9110  -27.9450 O   0  0  0  0  0  0
   -5.7703    3.9895  -21.3121 H   0  0  0  0  0  0
   -6.2028    4.3029  -23.7123 H   0  0  0  0  0  0
    5.8305    3.7695  -21.2791 H   0  0  0  0  0  0
    7.0267    2.7428  -20.3723 H   0  0  0  0  0  0
    6.5355    2.4047  -24.6194 H   0  0  0  0  0  0
    6.3477    3.9605  -23.7484 H   0  0  0  0  0  0
   -5.3698    4.2999  -26.0664 H   0  0  0  0  0  0
    2.4079    1.6512  -24.6968 H   0  0  0  0  0  0
    3.2333    1.2150  -22.7869 H   0  0  0  0  0  0
    4.4202    0.5007  -23.9432 H   0  0  0  0  0  0
    4.9044   -0.1662  -21.5795 H   0  0  0  0  0  0
    7.9354    2.4878  -22.5253 H   0  0  0  0  0  0
    4.2399    2.3831  -20.7768 H   0  0  0  0  0  0
    5.4622    1.3286  -19.8671 H   0  0  0  0  0  0
   -1.2480    3.5947  -26.9199 H   0  0  0  0  0  0
    0.5178    2.1837  -20.7926 H   0  0  0  0  0  0
    7.2098    0.3012  -21.7002 H   0  0  0  0  0  0
   -2.6729    3.7764  -28.3576 H   0  0  0  0  0  0
    3.6550    9.8090  -20.3630 O   0  0  0  0  0  0
    3.2570    8.3630  -22.7940 N   0  0  1  0  0  0
    5.6220   10.5160  -21.2390 N   0  0  0  0  0  0
    3.9720    9.6840  -22.7430 C   0  0  0  0  0  0
    4.0930    7.1920  -22.3530 C   0  0  0  0  0  0
    4.3840   10.0090  -21.3230 C   0  0  0  0  0  0
    2.3921    8.3960  -22.1481 H   0  0  0  0  0  0
    6.1629   10.6530  -22.0689 H   0  0  0  0  0  0
    6.0040   10.7580  -20.3471 H   0  0  0  0  0  0
    3.3081   10.4749  -23.1220 H   0  0  0  0  0  0
    4.8658    9.6420  -23.3828 H   0  0  0  0  0  0
    4.1760    7.1950  -21.2561 H   0  0  0  0  0  0
    5.1060    7.2870  -22.7710 H   0  0  0  0  0  0
  1  2  2  0  0  0
  1  3  1  0  0  0
  1 34  1  0  0  0
  2  6  1  0  0  0
  2 35  1  0  0  0
  3  5  2  0  0  0
  3 27  1  0  0  0
  4  5  1  0  0  0
  4  6  2  0  0  0
  4 18  1  0  0  0
  5 24  1  0  0  0
  6 10  1  0  0  0
  7 10  2  0  0  0
  7 23  1  0  0  0
  7 33  1  0  0  0
  8 21  1  0  0  0
  8 22  1  0  0  0
  8 36  1  0  0  0
  8 37  1  0  0  0
  9 21  1  0  0  0
  9 31  1  0  0  0
  9 38  1  0  0  0
  9 39  1  0  0  0
 10 40  1  0  0  0
 11 12  1  0  0  0
 11 14  2  0  0  0
 11 15  1  0  0  0
 12 17  1  0  0  0
 12 28  2  0  0  0
 13 28  1  0  0  0
 13 29  2  0  0  0
 13 56  1  0  0  0
 14 29  1  0  0  0
 14 31  1  0  0  0
 15 30  2  0  0  0
 15 41  1  0  0  0
 16 17  2  0  0  0
 16 18  1  0  0  0
 16 30  1  0  0  0
 17 26  1  0  0  0
 18 23  2  0  0  0
 19 20  1  0  0  0
 19 31  1  0  0  0
 19 42  1  0  0  0
 19 43  1  0  0  0
 20 22  1  0  0  0
 20 32  1  0  0  0
 20 44  1  0  0  0
 21 32  1  0  0  0
 21 45  1  0  0  0
 22 46  1  0  0  0
 22 47  1  0  0  0
 23 48  1  0  0  0
 24 25  3  0  0  0
 25 49  1  0  0  0
 32 50  1  0  0  0
 33 51  1  0  0  0
 52 57  2  0  0  0
 53 55  1  0  0  0
 53 56  1  0  0  0
 53 58  1  0  0  0
 54 57  1  0  0  0
 54 59  1  0  0  0
 54 60  1  0  0  0
 55 57  1  0  0  0
 55 61  1  0  0  0
 55 62  1  0  0  0
 56 63  1  0  0  0
 56 64  1  0  0  0
M  END
> <s_m_entry_id>
803

> <s_m_entry_name>
000000645.1

> <s_m_Source_Path>
/Users/zaksoul/Documents/3r_UNI/2nd_SEMESTER/BSC/FRAG_RECON/RESULTS/2

> <s_m_Source_File>
000000645.mol2

> <i_m_Source_File_Index>
1

$$$$
No_0_667
                    3D
 Schrodinger Suite 2022-4.
 63 68  0  0  1  0            999 V2000
   -5.0340    3.6380  -22.1260 C   0  0  0  0  0  0
   -5.2910    3.8080  -23.4650 C   0  0  0  0  0  0
   -3.8020    3.3740  -21.7740 C   0  0  0  0  0  0
   -2.8970    3.4510  -23.9360 C   0  0  0  0  0  0
   -2.7470    3.2290  -22.5110 C   0  0  0  0  0  0
   -4.2380    3.7230  -24.4690 C   0  0  0  0  0  0
   -3.4720    3.6970  -26.6630 C   0  0  0  0  0  0
    6.2190    2.9190  -21.3330 C   0  0  0  0  0  0
    6.0960    3.0200  -23.8850 C   0  0  0  0  0  0
   -4.4810    3.8310  -25.8080 C   0  0  0  0  0  0
    2.3190    3.6190  -23.9330 C   0  0  0  0  0  0
    1.5120    4.7440  -23.6570 C   0  0  0  0  0  0
    3.3230    5.9260  -22.9870 C   0  0  0  0  0  0
    3.7200    3.7960  -23.6150 C   0  0  0  0  0  0
    1.7610    2.4990  -24.5780 C   0  0  0  0  0  0
   -0.3560    3.3430  -24.4920 C   0  0  0  0  0  0
    0.1850    4.5660  -23.9110 C   0  0  0  0  0  0
   -1.8070    3.3630  -24.8550 C   0  0  0  0  0  0
    4.2900    1.2960  -23.2780 C   0  0  0  0  0  0
    5.2120    0.9470  -22.1200 C   0  0  2  0  0  0
    6.8290    2.4560  -22.6740 C   0  0  2  0  0  0
    5.2020    1.9680  -20.9700 C   0  0  0  0  0  0
   -2.1220    3.5030  -26.2870 C   0  0  0  0  0  0
   -1.4120    2.8070  -21.8980 C   0  0  0  0  0  0
   -0.3890    2.4540  -21.3810 C   0  0  0  0  0  0
   -0.6440    5.6280  -23.5890 F   0  0  0  0  0  0
   -3.6020    3.1520  -20.3870 F   0  0  0  0  0  0
    2.0020    5.9050  -23.1420 N   0  0  0  0  0  0
    4.2070    4.9480  -23.1860 N   0  0  0  0  0  0
    0.4550    2.4220  -24.8880 N   0  0  0  0  0  0
    4.6250    2.7330  -23.7690 N   0  0  0  0  0  0
    6.6220    0.9860  -22.5960 N   0  0  1  0  0  0
   -3.6370    3.6910  -28.0540 O   0  0  0  0  0  0
   -5.8386    3.7243  -21.4047 H   0  0  0  0  0  0
   -6.3010    4.0108  -23.8023 H   0  0  0  0  0  0
    5.7626    3.9115  -21.4622 H   0  0  0  0  0  0
    7.0013    2.9321  -20.5598 H   0  0  0  0  0  0
    6.4885    2.5548  -24.8013 H   0  0  0  0  0  0
    6.2535    4.1074  -23.9365 H   0  0  0  0  0  0
   -5.4869    4.0248  -26.1624 H   0  0  0  0  0  0
    2.3897    1.6564  -24.8421 H   0  0  0  0  0  0
    3.2448    1.2597  -22.9370 H   0  0  0  0  0  0
    4.4464    0.5814  -24.0995 H   0  0  0  0  0  0
    4.9720   -0.0554  -21.7358 H   0  0  0  0  0  0
    7.9013    2.6971  -22.7194 H   0  0  0  0  0  0
    4.2250    2.4726  -20.9407 H   0  0  0  0  0  0
    5.4905    1.4656  -20.0349 H   0  0  0  0  0  0
   -1.3491    3.4598  -27.0458 H   0  0  0  0  0  0
    0.5118    2.1431  -20.9261 H   0  0  0  0  0  0
    7.2593    0.4920  -21.8775 H   0  0  0  0  0  0
   -2.7913    3.5842  -28.4734 H   0  0  0  0  0  0
    6.1570    7.4870  -20.5920 O   0  5  0  0  0  0
    6.2680    9.6050  -19.7490 O   0  0  0  0  0  0
    3.5610    7.5490  -21.0980 N   0  3  0  0  0  0
    3.8980    7.2650  -22.5390 C   0  0  0  0  0  0
    4.1680    8.8010  -20.5290 C   0  0  0  0  0  0
    5.6450    8.6170  -20.2730 C   0  0  0  0  0  0
    3.8322    6.7605  -20.5316 H   0  0  0  0  0  0
    2.5593    7.5860  -20.9919 H   0  0  0  0  0  0
    4.9908    7.2550  -22.6640 H   0  0  0  0  0  0
    3.4959    8.0681  -23.1741 H   0  0  0  0  0  0
    3.6619    9.0581  -19.5868 H   0  0  0  0  0  0
    4.0190    9.6330  -21.2330 H   0  0  0  0  0  0
  1  2  2  0  0  0
  1  3  1  0  0  0
  1 34  1  0  0  0
  2  6  1  0  0  0
  2 35  1  0  0  0
  3  5  2  0  0  0
  3 27  1  0  0  0
  4  5  1  0  0  0
  4  6  2  0  0  0
  4 18  1  0  0  0
  5 24  1  0  0  0
  6 10  1  0  0  0
  7 10  2  0  0  0
  7 23  1  0  0  0
  7 33  1  0  0  0
  8 21  1  0  0  0
  8 22  1  0  0  0
  8 36  1  0  0  0
  8 37  1  0  0  0
  9 21  1  0  0  0
  9 31  1  0  0  0
  9 38  1  0  0  0
  9 39  1  0  0  0
 10 40  1  0  0  0
 11 12  1  0  0  0
 11 14  2  0  0  0
 11 15  1  0  0  0
 12 17  1  0  0  0
 12 28  2  0  0  0
 13 28  1  0  0  0
 13 29  2  0  0  0
 13 55  1  0  0  0
 14 29  1  0  0  0
 14 31  1  0  0  0
 15 30  2  0  0  0
 15 41  1  0  0  0
 16 17  2  0  0  0
 16 18  1  0  0  0
 16 30  1  0  0  0
 17 26  1  0  0  0
 18 23  2  0  0  0
 19 20  1  0  0  0
 19 31  1  0  0  0
 19 42  1  0  0  0
 19 43  1  0  0  0
 20 22  1  0  0  0
 20 32  1  0  0  0
 20 44  1  0  0  0
 21 32  1  0  0  0
 21 45  1  0  0  0
 22 46  1  0  0  0
 22 47  1  0  0  0
 23 48  1  0  0  0
 24 25  3  0  0  0
 25 49  1  0  0  0
 32 50  1  0  0  0
 33 51  1  0  0  0
 52 57  1  0  0  0
 53 57  2  0  0  0
 54 55  1  0  0  0
 54 56  1  0  0  0
 54 58  1  0  0  0
 54 59  1  0  0  0
 55 60  1  0  0  0
 55 61  1  0  0  0
 56 57  1  0  0  0
 56 62  1  0  0  0
 56 63  1  0  0  0
M  CHG  2  52  -1  54   1
M  END
> <s_m_entry_id>
804

> <s_m_entry_name>
000000646.1

> <s_m_Source_Path>
/Users/zaksoul/Documents/3r_UNI/2nd_SEMESTER/BSC/FRAG_RECON/RESULTS/2

> <s_m_Source_File>
000000646.mol2

> <i_m_Source_File_Index>
1

$$$$
No_0_668
                    3D
 Schrodinger Suite 2022-4.
 63 68  0  0  1  0            999 V2000
   -5.3390    3.5690  -21.7330 C   0  0  0  0  0  0
   -5.6220    3.7540  -23.0650 C   0  0  0  0  0  0
   -4.0950    3.3270  -21.4060 C   0  0  0  0  0  0
   -3.2300    3.4590  -23.5810 C   0  0  0  0  0  0
   -3.0510    3.2170  -22.1620 C   0  0  0  0  0  0
   -4.5850    3.7090  -24.0870 C   0  0  0  0  0  0
   -3.8550    3.7350  -26.2940 C   0  0  0  0  0  0
    5.9390    3.0900  -21.1370 C   0  0  0  0  0  0
    5.7700    3.2290  -23.6850 C   0  0  0  0  0  0
   -4.8520    3.8330  -25.4200 C   0  0  0  0  0  0
    1.9810    3.7440  -23.6610 C   0  0  0  0  0  0
    1.1540    4.8460  -23.3530 C   0  0  0  0  0  0
    2.9490    6.0580  -22.6950 C   0  0  0  0  0  0
    3.3830    3.9470  -23.3630 C   0  0  0  0  0  0
    1.4370    2.6220  -24.3150 C   0  0  0  0  0  0
   -0.6960    3.4170  -24.1810 C   0  0  0  0  0  0
   -0.1730    4.6420  -23.5890 C   0  0  0  0  0  0
   -2.1530    3.4100  -24.5190 C   0  0  0  0  0  0
    4.0140    1.4550  -23.0760 C   0  0  0  0  0  0
    4.9630    1.1080  -21.9390 C   0  0  2  0  0  0
    6.5370    2.6620  -22.4950 C   0  0  2  0  0  0
    4.9500    2.1110  -20.7730 C   0  0  0  0  0  0
   -2.4960    3.5650  -25.9430 C   0  0  0  0  0  0
   -1.6960    2.8160  -21.5790 C   0  0  0  0  0  0
   -0.6570    2.4780  -21.0840 C   0  0  0  0  0  0
   -1.0200    5.6800  -23.2360 F   0  0  0  0  0  0
   -3.8670    3.0880  -20.0260 F   0  0  0  0  0  0
    1.6270    6.0090  -22.8280 N   0  0  0  0  0  0
    3.8510    5.1030  -22.9240 N   0  0  0  0  0  0
    0.1280    2.5210  -24.6050 N   0  0  0  0  0  0
    4.3080    2.9070  -23.5500 N   0  0  0  0  0  0
    6.3640    1.1870  -22.4380 N   0  0  1  0  0  0
   -4.0430    3.7470  -27.6820 O   0  0  0  0  0  0
   -6.1335    3.6262  -20.9977 H   0  0  0  0  0  0
   -6.6418    3.9397  -23.3822 H   0  0  0  0  0  0
    5.4587    4.0739  -21.2430 H   0  0  0  0  0  0
    6.7337    3.1082  -20.3766 H   0  0  0  0  0  0
    6.1585    2.7870  -24.6144 H   0  0  0  0  0  0
    5.9033    4.3203  -23.7203 H   0  0  0  0  0  0
   -5.8676    4.0096  -25.7552 H   0  0  0  0  0  0
    2.0801    1.7983  -24.6030 H   0  0  0  0  0  0
    2.9756    1.3904  -22.7188 H   0  0  0  0  0  0
    4.1725    0.7575  -23.9117 H   0  0  0  0  0  0
    4.7520    0.0944  -21.5675 H   0  0  0  0  0  0
    7.6025    2.9286  -22.5546 H   0  0  0  0  0  0
    3.9627    2.5930  -20.7185 H   0  0  0  0  0  0
    5.2648    1.6005  -19.8509 H   0  0  0  0  0  0
   -1.7346    3.5510  -26.7144 H   0  0  0  0  0  0
    0.2580    2.1800  -20.6490 H   0  0  0  0  0  0
    7.0241    0.6959  -21.7383 H   0  0  0  0  0  0
   -3.2022    3.6658  -28.1167 H   0  0  0  0  0  0
    6.1470    7.6830  -20.8690 O   0  5  0  0  0  0
    6.2850    9.7060  -19.8210 O   0  0  0  0  0  0
    3.5120    7.5020  -20.7310 N   0  3  0  0  0  0
    3.5020    7.4020  -22.2340 C   0  0  0  0  0  0
    4.1330    8.7520  -20.1720 C   0  0  0  0  0  0
    5.6370    8.7110  -20.3000 C   0  0  0  0  0  0
    3.9811    6.6968  -20.3469 H   0  0  0  0  0  0
    2.5692    7.4150  -20.3851 H   0  0  0  0  0  0
    4.5259    7.5270  -22.6160 H   0  0  0  0  0  0
    2.8870    8.2131  -22.6510 H   0  0  0  0  0  0
    3.8580    8.8550  -19.1119 H   0  0  0  0  0  0
    3.7429    9.6272  -20.7122 H   0  0  0  0  0  0
  1  2  2  0  0  0
  1  3  1  0  0  0
  1 34  1  0  0  0
  2  6  1  0  0  0
  2 35  1  0  0  0
  3  5  2  0  0  0
  3 27  1  0  0  0
  4  5  1  0  0  0
  4  6  2  0  0  0
  4 18  1  0  0  0
  5 24  1  0  0  0
  6 10  1  0  0  0
  7 10  2  0  0  0
  7 23  1  0  0  0
  7 33  1  0  0  0
  8 21  1  0  0  0
  8 22  1  0  0  0
  8 36  1  0  0  0
  8 37  1  0  0  0
  9 21  1  0  0  0
  9 31  1  0  0  0
  9 38  1  0  0  0
  9 39  1  0  0  0
 10 40  1  0  0  0
 11 12  1  0  0  0
 11 14  2  0  0  0
 11 15  1  0  0  0
 12 17  1  0  0  0
 12 28  2  0  0  0
 13 28  1  0  0  0
 13 29  2  0  0  0
 13 55  1  0  0  0
 14 29  1  0  0  0
 14 31  1  0  0  0
 15 30  2  0  0  0
 15 41  1  0  0  0
 16 17  2  0  0  0
 16 18  1  0  0  0
 16 30  1  0  0  0
 17 26  1  0  0  0
 18 23  2  0  0  0
 19 20  1  0  0  0
 19 31  1  0  0  0
 19 42  1  0  0  0
 19 43  1  0  0  0
 20 22  1  0  0  0
 20 32  1  0  0  0
 20 44  1  0  0  0
 21 32  1  0  0  0
 21 45  1  0  0  0
 22 46  1  0  0  0
 22 47  1  0  0  0
 23 48  1  0  0  0
 24 25  3  0  0  0
 25 49  1  0  0  0
 32 50  1  0  0  0
 33 51  1  0  0  0
 52 57  1  0  0  0
 53 57  2  0  0  0
 54 55  1  0  0  0
 54 56  1  0  0  0
 54 58  1  0  0  0
 54 59  1  0  0  0
 55 60  1  0  0  0
 55 61  1  0  0  0
 56 57  1  0  0  0
 56 62  1  0  0  0
 56 63  1  0  0  0
M  CHG  2  52  -1  54   1
M  END
> <s_m_entry_id>
805

> <s_m_entry_name>
000000647.1

> <s_m_Source_Path>
/Users/zaksoul/Documents/3r_UNI/2nd_SEMESTER/BSC/FRAG_RECON/RESULTS/2

> <s_m_Source_File>
000000647.mol2

> <i_m_Source_File_Index>
1

$$$$
No_0_669
                    3D
 Schrodinger Suite 2022-4.
 63 68  0  0  1  0            999 V2000
   -5.2360    3.5940  -21.7660 C   0  0  0  0  0  0
   -5.5190    3.7740  -23.0990 C   0  0  0  0  0  0
   -3.9910    3.3550  -21.4380 C   0  0  0  0  0  0
   -3.1260    3.4820  -23.6150 C   0  0  0  0  0  0
   -2.9460    3.2460  -22.1950 C   0  0  0  0  0  0
   -4.4820    3.7280  -24.1210 C   0  0  0  0  0  0
   -3.7520    3.7480  -26.3280 C   0  0  0  0  0  0
    6.0440    3.1420  -21.1710 C   0  0  0  0  0  0
    5.8740    3.2720  -23.7200 C   0  0  0  0  0  0
   -4.7500    3.8460  -25.4540 C   0  0  0  0  0  0
    2.0840    3.7790  -23.6960 C   0  0  0  0  0  0
    1.2550    4.8800  -23.3920 C   0  0  0  0  0  0
    3.0470    6.0980  -22.7380 C   0  0  0  0  0  0
    3.4860    3.9860  -23.4000 C   0  0  0  0  0  0
    1.5420    2.6530  -24.3460 C   0  0  0  0  0  0
   -0.5920    3.4440  -24.2150 C   0  0  0  0  0  0
   -0.0720    4.6720  -23.6270 C   0  0  0  0  0  0
   -2.0490    3.4320  -24.5520 C   0  0  0  0  0  0
    4.1220    1.4960  -23.1040 C   0  0  0  0  0  0
    5.0720    1.1560  -21.9670 C   0  0  2  0  0  0
    6.6420    2.7110  -22.5280 C   0  0  2  0  0  0
    5.0570    2.1620  -20.8040 C   0  0  0  0  0  0
   -2.3930    3.5820  -25.9770 C   0  0  0  0  0  0
   -1.5910    2.8490  -21.6100 C   0  0  0  0  0  0
   -0.5510    2.5150  -21.1150 C   0  0  0  0  0  0
   -0.9210    5.7100  -23.2770 F   0  0  0  0  0  0
   -3.7620    3.1210  -20.0580 F   0  0  0  0  0  0
    1.7250    6.0460  -22.8710 N   0  0  0  0  0  0
    3.9510    5.1440  -22.9640 N   0  0  0  0  0  0
    0.2340    2.5480  -24.6360 N   0  0  0  0  0  0
    4.4130    2.9470  -23.5830 N   0  0  0  0  0  0
    6.4730    1.2360  -22.4660 N   0  0  1  0  0  0
   -3.9410    3.7550  -27.7160 O   0  0  0  0  0  0
   -6.0300    3.6512  -21.0302 H   0  0  0  0  0  0
   -6.5394    3.9566  -23.4161 H   0  0  0  0  0  0
    5.5609    4.1242  -21.2799 H   0  0  0  0  0  0
    6.8386    3.1642  -20.4107 H   0  0  0  0  0  0
    6.2637    2.8278  -24.6478 H   0  0  0  0  0  0
    6.0053    4.3635  -23.7584 H   0  0  0  0  0  0
   -5.7662    4.0187  -25.7894 H   0  0  0  0  0  0
    2.1872    1.8302  -24.6320 H   0  0  0  0  0  0
    3.0840    1.4304  -22.7459 H   0  0  0  0  0  0
    4.2825    0.7966  -23.9377 H   0  0  0  0  0  0
    4.8632    0.1433  -21.5918 H   0  0  0  0  0  0
    7.7070    2.9795  -22.5886 H   0  0  0  0  0  0
    4.0689    2.6424  -20.7505 H   0  0  0  0  0  0
    5.3727    1.6556  -19.8800 H   0  0  0  0  0  0
   -1.6316    3.5670  -26.7484 H   0  0  0  0  0  0
    0.3645    2.2212  -20.6783 H   0  0  0  0  0  0
    7.1338    0.7484  -21.7646 H   0  0  0  0  0  0
   -3.1002    3.6738  -28.1507 H   0  0  0  0  0  0
    6.4610    7.8530  -21.5250 O   0  5  0  0  0  0
    6.6970    9.7880  -20.3390 O   0  0  0  0  0  0
    3.9490    7.4230  -20.8170 N   0  3  0  0  0  0
    3.5970    7.4450  -22.2820 C   0  0  0  0  0  0
    4.5940    8.6750  -20.2910 C   0  0  0  0  0  0
    6.0260    8.7810  -20.7570 C   0  0  0  0  0  0
    4.5490    6.6349  -20.6300 H   0  0  0  0  0  0
    3.1206    7.2229  -20.2787 H   0  0  0  0  0  0
    4.4930    7.6930  -22.8700 H   0  0  0  0  0  0
    2.8475    8.2285  -22.4671 H   0  0  0  0  0  0
    4.5670    8.6660  -19.1914 H   0  0  0  0  0  0
    4.0296    9.5526  -20.6392 H   0  0  0  0  0  0
  1  2  2  0  0  0
  1  3  1  0  0  0
  1 34  1  0  0  0
  2  6  1  0  0  0
  2 35  1  0  0  0
  3  5  2  0  0  0
  3 27  1  0  0  0
  4  5  1  0  0  0
  4  6  2  0  0  0
  4 18  1  0  0  0
  5 24  1  0  0  0
  6 10  1  0  0  0
  7 10  2  0  0  0
  7 23  1  0  0  0
  7 33  1  0  0  0
  8 21  1  0  0  0
  8 22  1  0  0  0
  8 36  1  0  0  0
  8 37  1  0  0  0
  9 21  1  0  0  0
  9 31  1  0  0  0
  9 38  1  0  0  0
  9 39  1  0  0  0
 10 40  1  0  0  0
 11 12  1  0  0  0
 11 14  2  0  0  0
 11 15  1  0  0  0
 12 17  1  0  0  0
 12 28  2  0  0  0
 13 28  1  0  0  0
 13 29  2  0  0  0
 13 55  1  0  0  0
 14 29  1  0  0  0
 14 31  1  0  0  0
 15 30  2  0  0  0
 15 41  1  0  0  0
 16 17  2  0  0  0
 16 18  1  0  0  0
 16 30  1  0  0  0
 17 26  1  0  0  0
 18 23  2  0  0  0
 19 20  1  0  0  0
 19 31  1  0  0  0
 19 42  1  0  0  0
 19 43  1  0  0  0
 20 22  1  0  0  0
 20 32  1  0  0  0
 20 44  1  0  0  0
 21 32  1  0  0  0
 21 45  1  0  0  0
 22 46  1  0  0  0
 22 47  1  0  0  0
 23 48  1  0  0  0
 24 25  3  0  0  0
 25 49  1  0  0  0
 32 50  1  0  0  0
 33 51  1  0  0  0
 52 57  1  0  0  0
 53 57  2  0  0  0
 54 55  1  0  0  0
 54 56  1  0  0  0
 54 58  1  0  0  0
 54 59  1  0  0  0
 55 60  1  0  0  0
 55 61  1  0  0  0
 56 57  1  0  0  0
 56 62  1  0  0  0
 56 63  1  0  0  0
M  CHG  2  52  -1  54   1
M  END
> <s_m_entry_id>
806

> <s_m_entry_name>
000000648.1

> <s_m_Source_Path>
/Users/zaksoul/Documents/3r_UNI/2nd_SEMESTER/BSC/FRAG_RECON/RESULTS/2

> <s_m_Source_File>
000000648.mol2

> <i_m_Source_File_Index>
1

$$$$
No_0_670
                    3D
 Schrodinger Suite 2022-4.
 63 68  0  0  1  0            999 V2000
   -5.1870    3.7960  -22.0950 C   0  0  0  0  0  0
   -5.4430    3.9660  -23.4350 C   0  0  0  0  0  0
   -3.9510    3.5500  -21.7410 C   0  0  0  0  0  0
   -3.0430    3.6500  -23.9010 C   0  0  0  0  0  0
   -2.8930    3.4250  -22.4770 C   0  0  0  0  0  0
   -4.3870    3.9020  -24.4360 C   0  0  0  0  0  0
   -3.6150    3.8970  -26.6290 C   0  0  0  0  0  0
    6.0750    3.2590  -21.2800 C   0  0  0  0  0  0
    5.9550    3.3680  -23.8320 C   0  0  0  0  0  0
   -4.6290    4.0120  -25.7750 C   0  0  0  0  0  0
    2.1700    3.9050  -23.8850 C   0  0  0  0  0  0
    1.3430    5.0150  -23.6070 C   0  0  0  0  0  0
    3.1330    6.2250  -22.9290 C   0  0  0  0  0  0
    3.5670    4.1040  -23.5640 C   0  0  0  0  0  0
    1.6310    2.7780  -24.5360 C   0  0  0  0  0  0
   -0.4990    3.5870  -24.4520 C   0  0  0  0  0  0
    0.0200    4.8160  -23.8650 C   0  0  0  0  0  0
   -1.9490    3.5840  -24.8180 C   0  0  0  0  0  0
    4.1770    1.6120  -23.2350 C   0  0  0  0  0  0
    5.1030    1.2730  -22.0760 C   0  0  2  0  0  0
    6.6960    2.8110  -22.6210 C   0  0  2  0  0  0
    5.0730    2.2900  -20.9230 C   0  0  0  0  0  0
   -2.2640    3.7240  -26.2500 C   0  0  0  0  0  0
   -1.5520    3.0240  -21.8620 C   0  0  0  0  0  0
   -0.5240    2.6850  -21.3440 C   0  0  0  0  0  0
   -0.8270    5.8630  -23.5410 F   0  0  0  0  0  0
   -3.7500    3.3270  -20.3540 F   0  0  0  0  0  0
    1.8130    6.1820  -23.0870 N   0  0  0  0  0  0
    4.0340    5.2610  -23.1300 N   0  0  0  0  0  0
    0.3280    2.6800  -24.8500 N   0  0  0  0  0  0
    4.4890    3.0560  -23.7200 N   0  0  0  0  0  0
    6.5130    1.3380  -22.5490 N   0  0  1  0  0  0
   -3.7780    3.8930  -28.0200 O   0  0  0  0  0  0
   -5.9948    3.8662  -21.3755 H   0  0  0  0  0  0
   -6.4556    4.1537  -23.7732 H   0  0  0  0  0  0
    5.6025    4.2443  -21.4062 H   0  0  0  0  0  0
    6.8552    3.2822  -20.5049 H   0  0  0  0  0  0
    6.3577    2.9118  -24.7484 H   0  0  0  0  0  0
    6.0963    4.4579  -23.8784 H   0  0  0  0  0  0
   -5.6372    4.1897  -26.1315 H   0  0  0  0  0  0
    2.2743    1.9470  -24.8019 H   0  0  0  0  0  0
    3.1320    1.5565  -22.8961 H   0  0  0  0  0  0
    4.3475    0.9027  -24.0583 H   0  0  0  0  0  0
    4.8779    0.2654  -21.6964 H   0  0  0  0  0  0
    7.7642    3.0705  -22.6624 H   0  0  0  0  0  0
    4.0879    2.7785  -20.8927 H   0  0  0  0  0  0
    5.3676    1.7896  -19.9888 H   0  0  0  0  0  0
   -1.4883    3.6959  -27.0067 H   0  0  0  0  0  0
    0.3807    2.3878  -20.8876 H   0  0  0  0  0  0
    7.1564    0.8517  -21.8307 H   0  0  0  0  0  0
   -2.9294    3.8020  -28.4374 H   0  0  0  0  0  0
    6.6120    8.1020  -22.1680 O   0  5  0  0  0  0
    6.9480    9.9710  -20.9020 O   0  0  0  0  0  0
    4.2770    7.4800  -21.0920 N   0  3  0  0  0  0
    3.6850    7.5710  -22.4750 C   0  0  0  0  0  0
    4.9390    8.7330  -20.5900 C   0  0  0  0  0  0
    6.2670    8.9530  -21.2750 C   0  0  0  0  0  0
    4.9377    6.7193  -21.0620 H   0  0  0  0  0  0
    3.5610    7.1980  -20.4410 H   0  0  0  0  0  0
    4.4577    7.9079  -23.1817 H   0  0  0  0  0  0
    2.8778    8.3182  -22.4780 H   0  0  0  0  0  0
    5.0960    8.6540  -19.5041 H   0  0  0  0  0  0
    4.2828    9.5953  -20.7791 H   0  0  0  0  0  0
  1  2  2  0  0  0
  1  3  1  0  0  0
  1 34  1  0  0  0
  2  6  1  0  0  0
  2 35  1  0  0  0
  3  5  2  0  0  0
  3 27  1  0  0  0
  4  5  1  0  0  0
  4  6  2  0  0  0
  4 18  1  0  0  0
  5 24  1  0  0  0
  6 10  1  0  0  0
  7 10  2  0  0  0
  7 23  1  0  0  0
  7 33  1  0  0  0
  8 21  1  0  0  0
  8 22  1  0  0  0
  8 36  1  0  0  0
  8 37  1  0  0  0
  9 21  1  0  0  0
  9 31  1  0  0  0
  9 38  1  0  0  0
  9 39  1  0  0  0
 10 40  1  0  0  0
 11 12  1  0  0  0
 11 14  2  0  0  0
 11 15  1  0  0  0
 12 17  1  0  0  0
 12 28  2  0  0  0
 13 28  1  0  0  0
 13 29  2  0  0  0
 13 55  1  0  0  0
 14 29  1  0  0  0
 14 31  1  0  0  0
 15 30  2  0  0  0
 15 41  1  0  0  0
 16 17  2  0  0  0
 16 18  1  0  0  0
 16 30  1  0  0  0
 17 26  1  0  0  0
 18 23  2  0  0  0
 19 20  1  0  0  0
 19 31  1  0  0  0
 19 42  1  0  0  0
 19 43  1  0  0  0
 20 22  1  0  0  0
 20 32  1  0  0  0
 20 44  1  0  0  0
 21 32  1  0  0  0
 21 45  1  0  0  0
 22 46  1  0  0  0
 22 47  1  0  0  0
 23 48  1  0  0  0
 24 25  3  0  0  0
 25 49  1  0  0  0
 32 50  1  0  0  0
 33 51  1  0  0  0
 52 57  1  0  0  0
 53 57  2  0  0  0
 54 55  1  0  0  0
 54 56  1  0  0  0
 54 58  1  0  0  0
 54 59  1  0  0  0
 55 60  1  0  0  0
 55 61  1  0  0  0
 56 57  1  0  0  0
 56 62  1  0  0  0
 56 63  1  0  0  0
M  CHG  2  52  -1  54   1
M  END
> <s_m_entry_id>
807

> <s_m_entry_name>
000000649.1

> <s_m_Source_Path>
/Users/zaksoul/Documents/3r_UNI/2nd_SEMESTER/BSC/FRAG_RECON/RESULTS/2

> <s_m_Source_File>
000000649.mol2

> <i_m_Source_File_Index>
1

$$$$
No_0_671
                    3D
 Schrodinger Suite 2022-4.
 63 68  0  0  1  0            999 V2000
   -5.1810    3.6090  -21.8530 C   0  0  0  0  0  0
   -5.4520    3.8050  -23.1860 C   0  0  0  0  0  0
   -3.9420    3.3510  -21.5190 C   0  0  0  0  0  0
   -3.0590    3.4860  -23.6870 C   0  0  0  0  0  0
   -2.8930    3.2340  -22.2690 C   0  0  0  0  0  0
   -4.4090    3.7540  -24.2010 C   0  0  0  0  0  0
   -3.6630    3.7850  -26.4030 C   0  0  0  0  0  0
    6.0870    3.0010  -21.1820 C   0  0  0  0  0  0
    5.9380    3.1560  -23.7310 C   0  0  0  0  0  0
   -4.6650    3.8890  -25.5350 C   0  0  0  0  0  0
    2.1540    3.7130  -23.7290 C   0  0  0  0  0  0
    1.3370    4.8230  -23.4210 C   0  0  0  0  0  0
    3.1410    6.0110  -22.7430 C   0  0  0  0  0  0
    3.5570    3.8990  -23.4210 C   0  0  0  0  0  0
    1.6030    2.6010  -24.3930 C   0  0  0  0  0  0
   -0.5220    3.4190  -24.2700 C   0  0  0  0  0  0
    0.0100    4.6350  -23.6670 C   0  0  0  0  0  0
   -1.9770    3.4300  -24.6180 C   0  0  0  0  0  0
    4.1570    1.3990  -23.1440 C   0  0  0  0  0  0
    5.0950    1.0350  -22.0030 C   0  0  2  0  0  0
    6.6890    2.5740  -22.5390 C   0  0  2  0  0  0
    5.0840    2.0310  -20.8310 C   0  0  0  0  0  0
   -2.3080    3.5970  -26.0440 C   0  0  0  0  0  0
   -1.5470    2.8150  -21.6780 C   0  0  0  0  0  0
   -0.5150    2.4620  -21.1780 C   0  0  0  0  0  0
   -0.8280    5.6800  -23.3140 F   0  0  0  0  0  0
   -3.7260    3.1020  -20.1390 F   0  0  0  0  0  0
    1.8200    5.9780  -22.8860 N   0  0  0  0  0  0
    4.0350    5.0470  -22.9720 N   0  0  0  0  0  0
    0.2950    2.5160  -24.6930 N   0  0  0  0  0  0
    4.4710    2.8500  -23.6070 N   0  0  0  0  0  0
    6.5000    1.1010  -22.4910 N   0  0  1  0  0  0
   -3.8410    3.8060  -27.7920 O   0  0  0  0  0  0
   -5.9796    3.6712  -21.1226 H   0  0  0  0  0  0
   -6.4675    4.0037  -23.5091 H   0  0  0  0  0  0
    5.6179    3.9906  -21.2849 H   0  0  0  0  0  0
    6.8763    3.0060  -20.4159 H   0  0  0  0  0  0
    6.3275    2.7150  -24.6604 H   0  0  0  0  0  0
    6.0833    4.2460  -23.7593 H   0  0  0  0  0  0
   -5.6765    4.0776  -25.8762 H   0  0  0  0  0  0
    2.2385    1.7718  -24.6821 H   0  0  0  0  0  0
    3.1157    1.3435  -22.7939 H   0  0  0  0  0  0
    4.3144    0.7047  -23.9826 H   0  0  0  0  0  0
    4.8700    0.0218  -21.6387 H   0  0  0  0  0  0
    7.7578    2.8293  -22.5885 H   0  0  0  0  0  0
    4.1018    2.5236  -20.7805 H   0  0  0  0  0  0
    5.3877    1.5123  -19.9097 H   0  0  0  0  0  0
   -1.5411    3.5789  -26.8099 H   0  0  0  0  0  0
    0.3934    2.1519  -20.7378 H   0  0  0  0  0  0
    7.1492    0.5983  -21.7894 H   0  0  0  0  0  0
   -2.9984    3.7179  -28.2217 H   0  0  0  0  0  0
    6.5150    8.2050  -22.8280 O   0  5  0  0  0  0
    7.1070    9.9190  -21.4430 O   0  0  0  0  0  0
    4.7310    7.1520  -21.1840 N   0  3  0  0  0  0
    3.7060    7.3460  -22.2710 C   0  0  0  0  0  0
    5.4220    8.4030  -20.7190 C   0  0  0  0  0  0
    6.4230    8.8800  -21.7440 C   0  0  0  0  0  0
    5.4209    6.4851  -21.4929 H   0  0  0  0  0  0
    4.2979    6.6969  -20.3958 H   0  0  0  0  0  0
    4.1689    7.8689  -23.1209 H   0  0  0  0  0  0
    2.8878    7.9772  -21.8939 H   0  0  0  0  0  0
    5.9379    8.2040  -19.7681 H   0  0  0  0  0  0
    4.6740    9.1900  -20.5430 H   0  0  0  0  0  0
  1  2  2  0  0  0
  1  3  1  0  0  0
  1 34  1  0  0  0
  2  6  1  0  0  0
  2 35  1  0  0  0
  3  5  2  0  0  0
  3 27  1  0  0  0
  4  5  1  0  0  0
  4  6  2  0  0  0
  4 18  1  0  0  0
  5 24  1  0  0  0
  6 10  1  0  0  0
  7 10  2  0  0  0
  7 23  1  0  0  0
  7 33  1  0  0  0
  8 21  1  0  0  0
  8 22  1  0  0  0
  8 36  1  0  0  0
  8 37  1  0  0  0
  9 21  1  0  0  0
  9 31  1  0  0  0
  9 38  1  0  0  0
  9 39  1  0  0  0
 10 40  1  0  0  0
 11 12  1  0  0  0
 11 14  2  0  0  0
 11 15  1  0  0  0
 12 17  1  0  0  0
 12 28  2  0  0  0
 13 28  1  0  0  0
 13 29  2  0  0  0
 13 55  1  0  0  0
 14 29  1  0  0  0
 14 31  1  0  0  0
 15 30  2  0  0  0
 15 41  1  0  0  0
 16 17  2  0  0  0
 16 18  1  0  0  0
 16 30  1  0  0  0
 17 26  1  0  0  0
 18 23  2  0  0  0
 19 20  1  0  0  0
 19 31  1  0  0  0
 19 42  1  0  0  0
 19 43  1  0  0  0
 20 22  1  0  0  0
 20 32  1  0  0  0
 20 44  1  0  0  0
 21 32  1  0  0  0
 21 45  1  0  0  0
 22 46  1  0  0  0
 22 47  1  0  0  0
 23 48  1  0  0  0
 24 25  3  0  0  0
 25 49  1  0  0  0
 32 50  1  0  0  0
 33 51  1  0  0  0
 52 57  1  0  0  0
 53 57  2  0  0  0
 54 55  1  0  0  0
 54 56  1  0  0  0
 54 58  1  0  0  0
 54 59  1  0  0  0
 55 60  1  0  0  0
 55 61  1  0  0  0
 56 57  1  0  0  0
 56 62  1  0  0  0
 56 63  1  0  0  0
M  CHG  2  52  -1  54   1
M  END
> <s_m_entry_id>
808

> <s_m_entry_name>
000000650.1

> <s_m_Source_Path>
/Users/zaksoul/Documents/3r_UNI/2nd_SEMESTER/BSC/FRAG_RECON/RESULTS/2

> <s_m_Source_File>
000000650.mol2

> <i_m_Source_File_Index>
1

$$$$
No_0_672
                    3D
 Schrodinger Suite 2022-4.
 63 68  0  0  1  0            999 V2000
   -5.2930    3.2600  -21.7490 C   0  0  0  0  0  0
   -5.5550    3.4820  -23.0810 C   0  0  0  0  0  0
   -4.0500    3.0320  -21.4070 C   0  0  0  0  0  0
   -3.1480    3.2480  -23.5610 C   0  0  0  0  0  0
   -2.9900    2.9660  -22.1480 C   0  0  0  0  0  0
   -4.4990    3.4890  -24.0840 C   0  0  0  0  0  0
   -3.7310    3.5980  -26.2750 C   0  0  0  0  0  0
    5.9810    2.9760  -20.9630 C   0  0  0  0  0  0
    5.8550    3.1920  -23.5070 C   0  0  0  0  0  0
   -4.7450    3.6500  -25.4170 C   0  0  0  0  0  0
    2.0560    3.6350  -23.5360 C   0  0  0  0  0  0
    1.2020    4.7100  -23.2100 C   0  0  0  0  0  0
    2.9620    5.9340  -22.4810 C   0  0  0  0  0  0
    3.4490    3.8550  -23.2070 C   0  0  0  0  0  0
    1.5460    2.5230  -24.2350 C   0  0  0  0  0  0
   -0.6040    3.2730  -24.1150 C   0  0  0  0  0  0
   -0.1160    4.4890  -23.4760 C   0  0  0  0  0  0
   -2.0540    3.2490  -24.4800 C   0  0  0  0  0  0
    4.1220    1.3670  -22.9860 C   0  0  0  0  0  0
    5.0580    1.0030  -21.8440 C   0  0  2  0  0  0
    6.6110    2.6030  -22.3220 C   0  0  2  0  0  0
    5.0040    1.9670  -20.6470 C   0  0  0  0  0  0
   -2.3750    3.4430  -25.9050 C   0  0  0  0  0  0
   -1.6390    2.5720  -21.5520 C   0  0  0  0  0  0
   -0.6020    2.2380  -21.0490 C   0  0  0  0  0  0
   -0.9890    5.4990  -23.1060 F   0  0  0  0  0  0
   -3.8420    2.7530  -20.0320 F   0  0  0  0  0  0
    1.6430    5.8650  -22.6400 N   0  0  0  0  0  0
    3.8860    5.0040  -22.7230 N   0  0  0  0  0  0
    0.2450    2.4070  -24.5520 N   0  0  0  0  0  0
    4.3970    2.8390  -23.4090 N   0  0  0  0  0  0
    6.4650    1.1240  -22.3140 N   0  0  1  0  0  0
   -3.8950    3.6510  -27.6650 O   0  0  0  0  0  0
   -6.1013    3.2791  -21.0270 H   0  0  0  0  0  0
   -6.5726    3.6586  -23.4102 H   0  0  0  0  0  0
    5.4828    3.9532  -21.0457 H   0  0  0  0  0  0
    6.7613    2.9851  -20.1877 H   0  0  0  0  0  0
    6.2675    2.7875  -24.4431 H   0  0  0  0  0  0
    5.9671    4.2863  -23.5060 H   0  0  0  0  0  0
   -5.7580    3.8165  -25.7650 H   0  0  0  0  0  0
    2.2096    1.7209  -24.5372 H   0  0  0  0  0  0
    3.0790    1.2711  -22.6498 H   0  0  0  0  0  0
    4.3098    0.6997  -23.8401 H   0  0  0  0  0  0
    4.8602   -0.0255  -21.5079 H   0  0  0  0  0  0
    7.6720    2.8917  -22.3533 H   0  0  0  0  0  0
    4.0071    2.4291  -20.5965 H   0  0  0  0  0  0
    5.3128    1.4341  -19.7356 H   0  0  0  0  0  0
   -1.6002    3.4681  -26.6627 H   0  0  0  0  0  0
    0.3109    1.9440  -20.6070 H   0  0  0  0  0  0
    7.1220    0.6230  -21.6185 H   0  0  0  0  0  0
   -3.0452    3.5986  -28.0864 H   0  0  0  0  0  0
    5.9940    8.5330  -22.9840 O   0  5  0  0  0  0
    6.7040   10.1550  -21.5440 O   0  0  0  0  0  0
    4.7360    7.0980  -21.1540 N   0  3  0  0  0  0
    3.4800    7.2740  -21.9680 C   0  0  0  0  0  0
    5.3840    8.3710  -20.6860 C   0  0  0  0  0  0
    6.0780    9.0740  -21.8270 C   0  0  0  0  0  0
    5.4029    6.5591  -21.6839 H   0  0  0  0  0  0
    4.5371    6.5122  -20.3582 H   0  0  0  0  0  0
    3.6870    7.9370  -22.8210 H   0  0  0  0  0  0
    2.7070    7.7540  -21.3500 H   0  0  0  0  0  0
    6.1160    8.1400  -19.8980 H   0  0  0  0  0  0
    4.6191    9.0350  -20.2570 H   0  0  0  0  0  0
  1  2  2  0  0  0
  1  3  1  0  0  0
  1 34  1  0  0  0
  2  6  1  0  0  0
  2 35  1  0  0  0
  3  5  2  0  0  0
  3 27  1  0  0  0
  4  5  1  0  0  0
  4  6  2  0  0  0
  4 18  1  0  0  0
  5 24  1  0  0  0
  6 10  1  0  0  0
  7 10  2  0  0  0
  7 23  1  0  0  0
  7 33  1  0  0  0
  8 21  1  0  0  0
  8 22  1  0  0  0
  8 36  1  0  0  0
  8 37  1  0  0  0
  9 21  1  0  0  0
  9 31  1  0  0  0
  9 38  1  0  0  0
  9 39  1  0  0  0
 10 40  1  0  0  0
 11 12  1  0  0  0
 11 14  2  0  0  0
 11 15  1  0  0  0
 12 17  1  0  0  0
 12 28  2  0  0  0
 13 28  1  0  0  0
 13 29  2  0  0  0
 13 55  1  0  0  0
 14 29  1  0  0  0
 14 31  1  0  0  0
 15 30  2  0  0  0
 15 41  1  0  0  0
 16 17  2  0  0  0
 16 18  1  0  0  0
 16 30  1  0  0  0
 17 26  1  0  0  0
 18 23  2  0  0  0
 19 20  1  0  0  0
 19 31  1  0  0  0
 19 42  1  0  0  0
 19 43  1  0  0  0
 20 22  1  0  0  0
 20 32  1  0  0  0
 20 44  1  0  0  0
 21 32  1  0  0  0
 21 45  1  0  0  0
 22 46  1  0  0  0
 22 47  1  0  0  0
 23 48  1  0  0  0
 24 25  3  0  0  0
 25 49  1  0  0  0
 32 50  1  0  0  0
 33 51  1  0  0  0
 52 57  1  0  0  0
 53 57  2  0  0  0
 54 55  1  0  0  0
 54 56  1  0  0  0
 54 58  1  0  0  0
 54 59  1  0  0  0
 55 60  1  0  0  0
 55 61  1  0  0  0
 56 57  1  0  0  0
 56 62  1  0  0  0
 56 63  1  0  0  0
M  CHG  2  52  -1  54   1
M  END
> <s_m_entry_id>
809

> <s_m_entry_name>
000000651.1

> <s_m_Source_Path>
/Users/zaksoul/Documents/3r_UNI/2nd_SEMESTER/BSC/FRAG_RECON/RESULTS/2

> <s_m_Source_File>
000000651.mol2

> <i_m_Source_File_Index>
1

$$$$
No_0_673
                    3D
 Schrodinger Suite 2022-4.
 63 68  0  0  1  0            999 V2000
   -4.9730    3.8700  -21.7700 C   0  0  0  0  0  0
   -5.2540    4.0740  -23.1010 C   0  0  0  0  0  0
   -3.7300    3.6200  -21.4460 C   0  0  0  0  0  0
   -2.8620    3.7780  -23.6190 C   0  0  0  0  0  0
   -2.6850    3.5170  -22.2030 C   0  0  0  0  0  0
   -4.2160    4.0400  -24.1220 C   0  0  0  0  0  0
   -3.4850    4.0930  -26.3280 C   0  0  0  0  0  0
    6.3030    3.3460  -21.1750 C   0  0  0  0  0  0
    6.1370    3.5200  -23.7200 C   0  0  0  0  0  0
   -4.4820    4.1830  -25.4530 C   0  0  0  0  0  0
    2.3500    4.0470  -23.6910 C   0  0  0  0  0  0
    1.5260    5.1480  -23.3690 C   0  0  0  0  0  0
    3.3250    6.3440  -22.6930 C   0  0  0  0  0  0
    3.7520    4.2420  -23.3900 C   0  0  0  0  0  0
    1.8020    2.9360  -24.3610 C   0  0  0  0  0  0
   -0.3280    3.7360  -24.2170 C   0  0  0  0  0  0
    0.1980    4.9510  -23.6090 C   0  0  0  0  0  0
   -1.7850    3.7380  -24.5560 C   0  0  0  0  0  0
    4.3740    1.7440  -23.1360 C   0  0  0  0  0  0
    5.3220    1.3790  -22.0040 C   0  0  2  0  0  0
    6.9010    2.9350  -22.5380 C   0  0  2  0  0  0
    5.3110    2.3650  -20.8240 C   0  0  0  0  0  0
   -2.1260    3.9140  -25.9790 C   0  0  0  0  0  0
   -1.3320    3.1030  -21.6240 C   0  0  0  0  0  0
   -0.2940    2.7550  -21.1340 C   0  0  0  0  0  0
   -0.6450    5.9870  -23.2420 F   0  0  0  0  0  0
   -3.5030    3.3610  -20.0690 F   0  0  0  0  0  0
    2.0020    6.3020  -22.8280 N   0  0  0  0  0  0
    4.2240    5.3900  -22.9350 N   0  0  0  0  0  0
    0.4930    2.8430  -24.6530 N   0  0  0  0  0  0
    4.6740    3.2010  -23.5900 N   0  0  0  0  0  0
    6.7230    1.4600  -22.5010 N   0  0  1  0  0  0
   -3.6720    4.1250  -27.7150 O   0  0  0  0  0  0
   -5.7672    3.9202  -21.0340 H   0  0  0  0  0  0
   -6.2732    4.2678  -23.4153 H   0  0  0  0  0  0
    5.8266    4.3332  -21.2669 H   0  0  0  0  0  0
    7.0973    3.3510  -20.4140 H   0  0  0  0  0  0
    6.5244    3.0893  -24.6551 H   0  0  0  0  0  0
    6.2743    4.6112  -23.7412 H   0  0  0  0  0  0
   -5.4971    4.3666  -25.7860 H   0  0  0  0  0  0
    2.4430    2.1145  -24.6599 H   0  0  0  0  0  0
    3.3351    1.6774  -22.7806 H   0  0  0  0  0  0
    4.5314    1.0580  -23.9814 H   0  0  0  0  0  0
    5.1071    0.3610  -21.6469 H   0  0  0  0  0  0
    7.9676    3.1984  -22.5925 H   0  0  0  0  0  0
    4.3256    2.8502  -20.7645 H   0  0  0  0  0  0
    5.6238    1.8412  -19.9087 H   0  0  0  0  0  0
   -1.3640    3.9080  -26.7500 H   0  0  0  0  0  0
    0.6193    2.4479  -20.7019 H   0  0  0  0  0  0
    7.3802    0.9566  -21.8074 H   0  0  0  0  0  0
   -2.8318    4.0468  -28.1514 H   0  0  0  0  0  0
    5.9970    9.1810  -23.7020 O   0  5  0  0  0  0
    6.9530   10.7500  -22.3490 O   0  0  0  0  0  0
    5.3070    7.5410  -21.7450 N   0  3  0  0  0  0
    3.8820    7.6810  -22.2140 C   0  0  0  0  0  0
    5.9820    8.8230  -21.3450 C   0  0  0  0  0  0
    6.3350    9.6490  -22.5590 C   0  0  0  0  0  0
    5.8512    7.0878  -22.4623 H   0  0  0  0  0  0
    5.3420    6.8918  -20.9747 H   0  0  0  0  0  0
    3.8370    8.4119  -23.0349 H   0  0  0  0  0  0
    3.2609    8.0620  -21.3899 H   0  0  0  0  0  0
    6.8970    8.5940  -20.7790 H   0  0  0  0  0  0
    5.3122    9.4008  -20.6912 H   0  0  0  0  0  0
  1  2  2  0  0  0
  1  3  1  0  0  0
  1 34  1  0  0  0
  2  6  1  0  0  0
  2 35  1  0  0  0
  3  5  2  0  0  0
  3 27  1  0  0  0
  4  5  1  0  0  0
  4  6  2  0  0  0
  4 18  1  0  0  0
  5 24  1  0  0  0
  6 10  1  0  0  0
  7 10  2  0  0  0
  7 23  1  0  0  0
  7 33  1  0  0  0
  8 21  1  0  0  0
  8 22  1  0  0  0
  8 36  1  0  0  0
  8 37  1  0  0  0
  9 21  1  0  0  0
  9 31  1  0  0  0
  9 38  1  0  0  0
  9 39  1  0  0  0
 10 40  1  0  0  0
 11 12  1  0  0  0
 11 14  2  0  0  0
 11 15  1  0  0  0
 12 17  1  0  0  0
 12 28  2  0  0  0
 13 28  1  0  0  0
 13 29  2  0  0  0
 13 55  1  0  0  0
 14 29  1  0  0  0
 14 31  1  0  0  0
 15 30  2  0  0  0
 15 41  1  0  0  0
 16 17  2  0  0  0
 16 18  1  0  0  0
 16 30  1  0  0  0
 17 26  1  0  0  0
 18 23  2  0  0  0
 19 20  1  0  0  0
 19 31  1  0  0  0
 19 42  1  0  0  0
 19 43  1  0  0  0
 20 22  1  0  0  0
 20 32  1  0  0  0
 20 44  1  0  0  0
 21 32  1  0  0  0
 21 45  1  0  0  0
 22 46  1  0  0  0
 22 47  1  0  0  0
 23 48  1  0  0  0
 24 25  3  0  0  0
 25 49  1  0  0  0
 32 50  1  0  0  0
 33 51  1  0  0  0
 52 57  1  0  0  0
 53 57  2  0  0  0
 54 55  1  0  0  0
 54 56  1  0  0  0
 54 58  1  0  0  0
 54 59  1  0  0  0
 55 60  1  0  0  0
 55 61  1  0  0  0
 56 57  1  0  0  0
 56 62  1  0  0  0
 56 63  1  0  0  0
M  CHG  2  52  -1  54   1
M  END
> <s_m_entry_id>
810

> <s_m_entry_name>
000000652.1

> <s_m_Source_Path>
/Users/zaksoul/Documents/3r_UNI/2nd_SEMESTER/BSC/FRAG_RECON/RESULTS/2

> <s_m_Source_File>
000000652.mol2

> <i_m_Source_File_Index>
1

$$$$
No_0_674
                    3D
 Schrodinger Suite 2022-4.
 63 68  0  0  1  0            999 V2000
   -4.9910    3.8910  -21.7620 C   0  0  0  0  0  0
   -5.2850    4.1060  -23.0880 C   0  0  0  0  0  0
   -3.7430    3.6530  -21.4490 C   0  0  0  0  0  0
   -2.8930    3.8460  -23.6270 C   0  0  0  0  0  0
   -2.7020    3.5710  -22.2160 C   0  0  0  0  0  0
   -4.2540    4.0970  -24.1170 C   0  0  0  0  0  0
   -3.5400    4.1840  -26.3280 C   0  0  0  0  0  0
    6.2950    3.5030  -21.2540 C   0  0  0  0  0  0
    6.1070    3.7040  -23.7970 C   0  0  0  0  0  0
   -4.5320    4.2510  -25.4450 C   0  0  0  0  0  0
    2.3140    4.1820  -23.7340 C   0  0  0  0  0  0
    1.4790    5.2680  -23.3940 C   0  0  0  0  0  0
    3.2670    6.4800  -22.7170 C   0  0  0  0  0  0
    3.7160    4.3910  -23.4410 C   0  0  0  0  0  0
    1.7760    3.0720  -24.4120 C   0  0  0  0  0  0
   -0.3630    3.8430  -24.2440 C   0  0  0  0  0  0
    0.1520    5.0580  -23.6250 C   0  0  0  0  0  0
   -1.8220    3.8310  -24.5730 C   0  0  0  0  0  0
    4.3710    1.8990  -23.2200 C   0  0  0  0  0  0
    5.3320    1.5330  -22.0990 C   0  0  2  0  0  0
    6.8870    3.1150  -22.6260 C   0  0  2  0  0  0
    5.3170    2.5060  -20.9080 C   0  0  0  0  0  0
   -2.1770    4.0180  -25.9900 C   0  0  0  0  0  0
   -1.3400    3.1690  -21.6510 C   0  0  0  0  0  0
   -0.2950    2.8280  -21.1720 C   0  0  0  0  0  0
   -0.7020    6.0790  -23.2410 F   0  0  0  0  0  0
   -3.5030    3.3810  -20.0770 F   0  0  0  0  0  0
    1.9450    6.4230  -22.8430 N   0  0  0  0  0  0
    4.1770    5.5400  -22.9760 N   0  0  0  0  0  0
    0.4660    2.9650  -24.6960 N   0  0  0  0  0  0
    4.6490    3.3650  -23.6590 N   0  0  0  0  0  0
    6.7280    1.6370  -22.6040 N   0  0  1  0  0  0
   -3.7380    4.2290  -27.7130 O   0  0  0  0  0  0
   -5.7809    3.9221  -21.0203 H   0  0  0  0  0  0
   -6.3087    4.2907  -23.3931 H   0  0  0  0  0  0
    5.8047    4.4846  -21.3317 H   0  0  0  0  0  0
    7.0947    3.5101  -20.4987 H   0  0  0  0  0  0
    6.4925    3.2882  -24.7396 H   0  0  0  0  0  0
    6.2301    4.7970  -23.8061 H   0  0  0  0  0  0
   -5.5518    4.4257  -25.7682 H   0  0  0  0  0  0
    2.4241    2.2614  -24.7250 H   0  0  0  0  0  0
    3.3359    1.8152  -22.8574 H   0  0  0  0  0  0
    4.5304    1.2239  -24.0737 H   0  0  0  0  0  0
    5.1322    0.5088  -21.7509 H   0  0  0  0  0  0
    7.9497    3.3925  -22.6855 H   0  0  0  0  0  0
    4.3258    2.9774  -20.8353 H   0  0  0  0  0  0
    5.6430    1.9762  -20.0008 H   0  0  0  0  0  0
   -1.4206    4.0310  -26.7664 H   0  0  0  0  0  0
    0.6255    2.5282  -20.7502 H   0  0  0  0  0  0
    7.3975    1.1344  -21.9217 H   0  0  0  0  0  0
   -2.8996    4.1666  -28.1554 H   0  0  0  0  0  0
    4.7940    9.9450  -24.0830 O   0  5  0  0  0  0
    6.0630   11.4630  -22.9460 O   0  0  0  0  0  0
    5.2960    7.9210  -22.4570 N   0  3  0  0  0  0
    3.8110    7.8180  -22.2270 C   0  0  0  0  0  0
    5.9140    9.2440  -22.0990 C   0  0  0  0  0  0
    5.5610   10.2980  -23.1200 C   0  0  0  0  0  0
    5.4990    7.7080  -23.4211 H   0  0  0  0  0  0
    5.7637    7.1865  -21.9493 H   0  0  0  0  0  0
    3.3011    8.6368  -22.7558 H   0  0  0  0  0  0
    3.5990    7.9280  -21.1532 H   0  0  0  0  0  0
    7.0074    9.1351  -22.0480 H   0  0  0  0  0  0
    5.5559    9.5591  -21.1078 H   0  0  0  0  0  0
  1  2  2  0  0  0
  1  3  1  0  0  0
  1 34  1  0  0  0
  2  6  1  0  0  0
  2 35  1  0  0  0
  3  5  2  0  0  0
  3 27  1  0  0  0
  4  5  1  0  0  0
  4  6  2  0  0  0
  4 18  1  0  0  0
  5 24  1  0  0  0
  6 10  1  0  0  0
  7 10  2  0  0  0
  7 23  1  0  0  0
  7 33  1  0  0  0
  8 21  1  0  0  0
  8 22  1  0  0  0
  8 36  1  0  0  0
  8 37  1  0  0  0
  9 21  1  0  0  0
  9 31  1  0  0  0
  9 38  1  0  0  0
  9 39  1  0  0  0
 10 40  1  0  0  0
 11 12  1  0  0  0
 11 14  2  0  0  0
 11 15  1  0  0  0
 12 17  1  0  0  0
 12 28  2  0  0  0
 13 28  1  0  0  0
 13 29  2  0  0  0
 13 55  1  0  0  0
 14 29  1  0  0  0
 14 31  1  0  0  0
 15 30  2  0  0  0
 15 41  1  0  0  0
 16 17  2  0  0  0
 16 18  1  0  0  0
 16 30  1  0  0  0
 17 26  1  0  0  0
 18 23  2  0  0  0
 19 20  1  0  0  0
 19 31  1  0  0  0
 19 42  1  0  0  0
 19 43  1  0  0  0
 20 22  1  0  0  0
 20 32  1  0  0  0
 20 44  1  0  0  0
 21 32  1  0  0  0
 21 45  1  0  0  0
 22 46  1  0  0  0
 22 47  1  0  0  0
 23 48  1  0  0  0
 24 25  3  0  0  0
 25 49  1  0  0  0
 32 50  1  0  0  0
 33 51  1  0  0  0
 52 57  1  0  0  0
 53 57  2  0  0  0
 54 55  1  0  0  0
 54 56  1  0  0  0
 54 58  1  0  0  0
 54 59  1  0  0  0
 55 60  1  0  0  0
 55 61  1  0  0  0
 56 57  1  0  0  0
 56 62  1  0  0  0
 56 63  1  0  0  0
M  CHG  2  52  -1  54   1
M  END
> <s_m_entry_id>
811

> <s_m_entry_name>
000000653.1

> <s_m_Source_Path>
/Users/zaksoul/Documents/3r_UNI/2nd_SEMESTER/BSC/FRAG_RECON/RESULTS/2

> <s_m_Source_File>
000000653.mol2

> <i_m_Source_File_Index>
1

$$$$
No_0_675
                    3D
 Schrodinger Suite 2022-4.
 63 68  0  0  1  0            999 V2000
   -5.1250    3.6030  -21.6930 C   0  0  0  0  0  0
   -5.4180    3.8570  -23.0120 C   0  0  0  0  0  0
   -3.8790    3.3420  -21.3890 C   0  0  0  0  0  0
   -3.0310    3.5820  -23.5620 C   0  0  0  0  0  0
   -2.8410    3.2680  -22.1590 C   0  0  0  0  0  0
   -4.3890    3.8620  -24.0440 C   0  0  0  0  0  0
   -3.6770    3.9990  -26.2520 C   0  0  0  0  0  0
    6.1560    3.0660  -21.2160 C   0  0  0  0  0  0
    5.9670    3.3350  -23.7520 C   0  0  0  0  0  0
   -4.6670    4.0550  -25.3660 C   0  0  0  0  0  0
    2.1800    3.8580  -23.6700 C   0  0  0  0  0  0
    1.3590    4.9450  -23.3000 C   0  0  0  0  0  0
    3.1630    6.1170  -22.5950 C   0  0  0  0  0  0
    3.5850    4.0420  -23.3740 C   0  0  0  0  0  0
    1.6270    2.7720  -24.3760 C   0  0  0  0  0  0
   -0.5020    3.5650  -24.1840 C   0  0  0  0  0  0
    0.0290    4.7570  -23.5340 C   0  0  0  0  0  0
   -1.9620    3.5790  -24.5100 C   0  0  0  0  0  0
    4.2100    1.5370  -23.2200 C   0  0  0  0  0  0
    5.1680    1.1300  -22.1100 C   0  0  2  0  0  0
    6.7420    2.7060  -22.5990 C   0  0  2  0  0  0
    5.1670    2.0710  -20.8940 C   0  0  0  0  0  0
   -2.3150    3.8080  -25.9220 C   0  0  0  0  0  0
   -1.4830    2.8340  -21.6080 C   0  0  0  0  0  0
   -0.4410    2.4680  -21.1400 C   0  0  0  0  0  0
   -0.8120    5.7780  -23.1220 F   0  0  0  0  0  0
   -3.6410    3.0310  -20.0250 F   0  0  0  0  0  0
    1.8390    6.0790  -22.7190 N   0  0  0  0  0  0
    4.0600    5.1720  -22.8800 N   0  0  0  0  0  0
    0.3160    2.6890  -24.6600 N   0  0  0  0  0  0
    4.5060    3.0100  -23.6210 N   0  0  0  0  0  0
    6.5650    1.2300  -22.6160 N   0  0  1  0  0  0
   -3.8770    4.0820  -27.6360 O   0  0  0  0  0  0
   -5.9131    3.6251  -20.9491 H   0  0  0  0  0  0
   -6.4396    4.0617  -23.3111 H   0  0  0  0  0  0
    5.6775    4.0552  -21.2665 H   0  0  0  0  0  0
    6.9570    3.0428  -20.4624 H   0  0  0  0  0  0
    6.3466    2.9403  -24.7060 H   0  0  0  0  0  0
    6.1033    4.4264  -23.7328 H   0  0  0  0  0  0
   -5.6851    4.2498  -25.6833 H   0  0  0  0  0  0
    2.2651    1.9623  -24.7111 H   0  0  0  0  0  0
    3.1745    1.4563  -22.8577 H   0  0  0  0  0  0
    4.3604    0.8827  -24.0914 H   0  0  0  0  0  0
    4.9570    0.0993  -21.7890 H   0  0  0  0  0  0
    7.8078    2.9725  -22.6535 H   0  0  0  0  0  0
    4.1818    2.5525  -20.8072 H   0  0  0  0  0  0
    5.4880    1.5137  -20.0016 H   0  0  0  0  0  0
   -1.5598    3.8311  -26.6993 H   0  0  0  0  0  0
    0.4766    2.1461  -20.7282 H   0  0  0  0  0  0
    7.2290    0.7018  -21.9477 H   0  0  0  0  0  0
   -3.0400    4.0216  -28.0812 H   0  0  0  0  0  0
    3.9990    9.8720  -23.7790 O   0  5  0  0  0  0
    5.4210   11.3660  -22.8030 O   0  0  0  0  0  0
    5.0760    7.7270  -22.6670 N   0  3  0  0  0  0
    3.7240    7.4340  -22.0700 C   0  0  0  0  0  0
    5.6720    9.0550  -22.2900 C   0  0  0  0  0  0
    4.9750   10.1840  -23.0110 C   0  0  0  0  0  0
    5.0180    7.6610  -23.6712 H   0  0  0  0  0  0
    5.7172    6.9908  -22.4159 H   0  0  0  0  0  0
    3.0300    8.2510  -22.3170 H   0  0  0  0  0  0
    3.8100    7.3860  -20.9744 H   0  0  0  0  0  0
    6.7418    9.0620  -22.5459 H   0  0  0  0  0  0
    5.5800    9.2030  -21.2039 H   0  0  0  0  0  0
  1  2  2  0  0  0
  1  3  1  0  0  0
  1 34  1  0  0  0
  2  6  1  0  0  0
  2 35  1  0  0  0
  3  5  2  0  0  0
  3 27  1  0  0  0
  4  5  1  0  0  0
  4  6  2  0  0  0
  4 18  1  0  0  0
  5 24  1  0  0  0
  6 10  1  0  0  0
  7 10  2  0  0  0
  7 23  1  0  0  0
  7 33  1  0  0  0
  8 21  1  0  0  0
  8 22  1  0  0  0
  8 36  1  0  0  0
  8 37  1  0  0  0
  9 21  1  0  0  0
  9 31  1  0  0  0
  9 38  1  0  0  0
  9 39  1  0  0  0
 10 40  1  0  0  0
 11 12  1  0  0  0
 11 14  2  0  0  0
 11 15  1  0  0  0
 12 17  1  0  0  0
 12 28  2  0  0  0
 13 28  1  0  0  0
 13 29  2  0  0  0
 13 55  1  0  0  0
 14 29  1  0  0  0
 14 31  1  0  0  0
 15 30  2  0  0  0
 15 41  1  0  0  0
 16 17  2  0  0  0
 16 18  1  0  0  0
 16 30  1  0  0  0
 17 26  1  0  0  0
 18 23  2  0  0  0
 19 20  1  0  0  0
 19 31  1  0  0  0
 19 42  1  0  0  0
 19 43  1  0  0  0
 20 22  1  0  0  0
 20 32  1  0  0  0
 20 44  1  0  0  0
 21 32  1  0  0  0
 21 45  1  0  0  0
 22 46  1  0  0  0
 22 47  1  0  0  0
 23 48  1  0  0  0
 24 25  3  0  0  0
 25 49  1  0  0  0
 32 50  1  0  0  0
 33 51  1  0  0  0
 52 57  1  0  0  0
 53 57  2  0  0  0
 54 55  1  0  0  0
 54 56  1  0  0  0
 54 58  1  0  0  0
 54 59  1  0  0  0
 55 60  1  0  0  0
 55 61  1  0  0  0
 56 57  1  0  0  0
 56 62  1  0  0  0
 56 63  1  0  0  0
M  CHG  2  52  -1  54   1
M  END
> <s_m_entry_id>
812

> <s_m_entry_name>
000000654.1

> <s_m_Source_Path>
/Users/zaksoul/Documents/3r_UNI/2nd_SEMESTER/BSC/FRAG_RECON/RESULTS/2

> <s_m_Source_File>
000000654.mol2

> <i_m_Source_File_Index>
1

$$$$
No_0_676
                    3D
 Schrodinger Suite 2022-4.
 63 68  0  0  1  0            999 V2000
   -5.3810    3.8300  -21.7770 C   0  0  0  0  0  0
   -5.5980    4.0270  -23.1200 C   0  0  0  0  0  0
   -4.1600    3.5560  -21.3950 C   0  0  0  0  0  0
   -3.1930    3.6740  -23.5280 C   0  0  0  0  0  0
   -3.0850    3.4230  -22.1040 C   0  0  0  0  0  0
   -4.5170    3.9600  -24.0940 C   0  0  0  0  0  0
   -3.6870    3.9770  -26.2650 C   0  0  0  0  0  0
    5.8420    3.0680  -20.6710 C   0  0  0  0  0  0
    5.7940    3.2200  -23.2230 C   0  0  0  0  0  0
   -4.7200    4.0960  -25.4370 C   0  0  0  0  0  0
    2.0210    3.8300  -23.3690 C   0  0  0  0  0  0
    1.2090    4.9510  -23.0940 C   0  0  0  0  0  0
    3.0020    6.1150  -22.3480 C   0  0  0  0  0  0
    3.4130    3.9970  -23.0070 C   0  0  0  0  0  0
    1.4800    2.7240  -24.0520 C   0  0  0  0  0  0
   -0.6360    3.5710  -24.0120 C   0  0  0  0  0  0
   -0.1110    4.7810  -23.3910 C   0  0  0  0  0  0
   -2.0760    3.6020  -24.4160 C   0  0  0  0  0  0
    3.9680    1.4880  -22.7030 C   0  0  0  0  0  0
    4.8560    1.1140  -21.5270 C   0  0  2  0  0  0
    6.4910    2.6300  -22.0030 C   0  0  2  0  0  0
    4.8140    2.1120  -20.3570 C   0  0  0  0  0  0
   -2.3490    3.7710  -25.8540 C   0  0  0  0  0  0
   -1.7690    2.9860  -21.4610 C   0  0  0  0  0  0
   -0.7620    2.6200  -20.9210 C   0  0  0  0  0  0
   -0.9470    5.8390  -23.0710 F   0  0  0  0  0  0
   -4.0010    3.3060  -20.0070 F   0  0  0  0  0  0
    1.6860    6.1000  -22.5420 N   0  0  0  0  0  0
    3.8890    5.1380  -22.5410 N   0  0  0  0  0  0
    0.1840    2.6560  -24.4020 N   0  0  0  0  0  0
    4.3200    2.9340  -23.1560 N   0  0  0  0  0  0
    6.2790    1.1600  -21.9600 N   0  0  1  0  0  0
   -3.8110    3.9980  -27.6600 O   0  0  0  0  0  0
   -6.2068    3.9042  -21.0787 H   0  0  0  0  0  0
   -6.5973    4.2397  -23.4822 H   0  0  0  0  0  0
    5.3918    4.0642  -20.7931 H   0  0  0  0  0  0
    6.6019    3.0630  -19.8757 H   0  0  0  0  0  0
    6.2128    2.7720  -24.1362 H   0  0  0  0  0  0
    5.9555    4.3078  -23.2472 H   0  0  0  0  0  0
   -5.7149    4.2988  -25.8165 H   0  0  0  0  0  0
    2.1148    1.8856  -24.3148 H   0  0  0  0  0  0
    2.9130    1.4476  -22.3941 H   0  0  0  0  0  0
    4.1476    0.7907  -23.5345 H   0  0  0  0  0  0
    4.6027    0.1049  -21.1698 H   0  0  0  0  0  0
    7.5644    2.8701  -22.0121 H   0  0  0  0  0  0
    3.8376    2.6184  -20.3459 H   0  0  0  0  0  0
    5.0735    1.5900  -19.4241 H   0  0  0  0  0  0
   -1.5537    3.7409  -26.5900 H   0  0  0  0  0  0
    0.1243    2.2979  -20.4458 H   0  0  0  0  0  0
    6.8938    0.6489  -21.2340 H   0  0  0  0  0  0
   -2.9533    3.8980  -28.0561 H   0  0  0  0  0  0
    3.3940    9.9660  -23.4510 O   0  5  0  0  0  0
    4.8740   11.5090  -22.6520 O   0  0  0  0  0  0
    4.7740    7.8530  -22.6580 N   0  3  0  0  0  0
    3.5660    7.4430  -21.8560 C   0  0  0  0  0  0
    5.3470    9.2010  -22.3170 C   0  0  0  0  0  0
    4.4690   10.3100  -22.8450 C   0  0  0  0  0  0
    4.5461    7.8270  -23.6396 H   0  0  0  0  0  0
    5.4915    7.1515  -22.5619 H   0  0  0  0  0  0
    2.7927    8.2213  -21.9350 H   0  0  0  0  0  0
    3.8451    7.3530  -20.7958 H   0  0  0  0  0  0
    6.3532    9.2920  -22.7521 H   0  0  0  0  0  0
    5.4370    9.2940  -21.2246 H   0  0  0  0  0  0
  1  2  2  0  0  0
  1  3  1  0  0  0
  1 34  1  0  0  0
  2  6  1  0  0  0
  2 35  1  0  0  0
  3  5  2  0  0  0
  3 27  1  0  0  0
  4  5  1  0  0  0
  4  6  2  0  0  0
  4 18  1  0  0  0
  5 24  1  0  0  0
  6 10  1  0  0  0
  7 10  2  0  0  0
  7 23  1  0  0  0
  7 33  1  0  0  0
  8 21  1  0  0  0
  8 22  1  0  0  0
  8 36  1  0  0  0
  8 37  1  0  0  0
  9 21  1  0  0  0
  9 31  1  0  0  0
  9 38  1  0  0  0
  9 39  1  0  0  0
 10 40  1  0  0  0
 11 12  1  0  0  0
 11 14  2  0  0  0
 11 15  1  0  0  0
 12 17  1  0  0  0
 12 28  2  0  0  0
 13 28  1  0  0  0
 13 29  2  0  0  0
 13 55  1  0  0  0
 14 29  1  0  0  0
 14 31  1  0  0  0
 15 30  2  0  0  0
 15 41  1  0  0  0
 16 17  2  0  0  0
 16 18  1  0  0  0
 16 30  1  0  0  0
 17 26  1  0  0  0
 18 23  2  0  0  0
 19 20  1  0  0  0
 19 31  1  0  0  0
 19 42  1  0  0  0
 19 43  1  0  0  0
 20 22  1  0  0  0
 20 32  1  0  0  0
 20 44  1  0  0  0
 21 32  1  0  0  0
 21 45  1  0  0  0
 22 46  1  0  0  0
 22 47  1  0  0  0
 23 48  1  0  0  0
 24 25  3  0  0  0
 25 49  1  0  0  0
 32 50  1  0  0  0
 33 51  1  0  0  0
 52 57  1  0  0  0
 53 57  2  0  0  0
 54 55  1  0  0  0
 54 56  1  0  0  0
 54 58  1  0  0  0
 54 59  1  0  0  0
 55 60  1  0  0  0
 55 61  1  0  0  0
 56 57  1  0  0  0
 56 62  1  0  0  0
 56 63  1  0  0  0
M  CHG  2  52  -1  54   1
M  END
> <s_m_entry_id>
813

> <s_m_entry_name>
000000655.1

> <s_m_Source_Path>
/Users/zaksoul/Documents/3r_UNI/2nd_SEMESTER/BSC/FRAG_RECON/RESULTS/2

> <s_m_Source_File>
000000655.mol2

> <i_m_Source_File_Index>
1

$$$$
No_0_677
                    3D
 Schrodinger Suite 2022-4.
 65 70  0  0  1  0            999 V2000
   -4.9850    3.4600  -21.7830 C   0  0  0  0  0  0
   -5.2990    3.6170  -23.1120 C   0  0  0  0  0  0
   -3.7290    3.2510  -21.4780 C   0  0  0  0  0  0
   -2.9120    3.3660  -23.6730 C   0  0  0  0  0  0
   -2.6980    3.1520  -22.2550 C   0  0  0  0  0  0
   -4.2830    3.5780  -24.1550 C   0  0  0  0  0  0
   -3.5990    3.5840  -26.3760 C   0  0  0  0  0  0
    6.3110    3.2410  -21.4180 C   0  0  0  0  0  0
    6.0870    3.3340  -23.9640 C   0  0  0  0  0  0
   -4.5800    3.6740  -25.4830 C   0  0  0  0  0  0
    2.2880    3.7660  -23.8670 C   0  0  0  0  0  0
    1.4430    4.8540  -23.5600 C   0  0  0  0  0  0
    3.2240    6.1160  -22.9590 C   0  0  0  0  0  0
    3.6910    4.0050  -23.6030 C   0  0  0  0  0  0
    1.7560    2.6210  -24.4920 C   0  0  0  0  0  0
   -0.3910    3.3700  -24.3260 C   0  0  0  0  0  0
    0.1170    4.6170  -23.7650 C   0  0  0  0  0  0
   -1.8540    3.3260  -24.6330 C   0  0  0  0  0  0
    4.3840    1.5320  -23.2900 C   0  0  0  0  0  0
    5.3640    1.2250  -22.1680 C   0  0  2  0  0  0
    6.8900    2.8040  -22.7820 C   0  0  2  0  0  0
    5.3520    2.2460  -21.0180 C   0  0  0  0  0  0
   -2.2300    3.4500  -26.0520 C   0  0  0  0  0  0
   -1.3230    2.7900  -21.6940 C   0  0  0  0  0  0
   -0.2660    2.4830  -21.2160 C   0  0  0  0  0  0
   -0.7460    5.6410  -23.4100 F   0  0  0  0  0  0
   -3.4670    3.0390  -20.1000 F   0  0  0  0  0  0
    1.9010    6.0360  -23.0640 N   0  0  0  0  0  0
    4.1420    5.1770  -23.1920 N   0  0  0  0  0  0
    0.4440    2.4860  -24.7530 N   0  0  0  0  0  0
    4.6360    2.9820  -23.7930 N   0  0  0  0  0  0
    6.7520    1.3270  -22.6970 N   0  0  1  0  0  0
   -3.8170    3.5690  -27.7600 O   0  0  0  0  0  0
   -5.7651    3.5112  -21.0320 H   0  0  0  0  0  0
   -6.3293    3.7745  -23.4099 H   0  0  0  0  0  0
    5.8067    4.2123  -21.5289 H   0  0  0  0  0  0
    7.1211    3.2894  -20.6755 H   0  0  0  0  0  0
    6.4655    2.8859  -24.8946 H   0  0  0  0  0  0
    6.1949    4.4273  -24.0195 H   0  0  0  0  0  0
   -5.6064    3.8215  -25.7990 H   0  0  0  0  0  0
    2.4112    1.8072  -24.7810 H   0  0  0  0  0  0
    3.3551    1.4503  -22.9097 H   0  0  0  0  0  0
    4.5404    0.8245  -24.1176 H   0  0  0  0  0  0
    5.1833    0.2135  -21.7753 H   0  0  0  0  0  0
    7.9477    3.0937  -22.8678 H   0  0  0  0  0  0
    4.3557    2.7073  -20.9504 H   0  0  0  0  0  0
    5.6981    1.7586  -20.0946 H   0  0  0  0  0  0
   -1.4844    3.4400  -26.8388 H   0  0  0  0  0  0
    0.6640    2.2130  -20.7950 H   0  0  0  0  0  0
    7.4375    0.8618  -22.0041 H   0  0  0  0  0  0
   -2.9839    3.4988  -28.2112 H   0  0  0  0  0  0
    6.5890    8.6140  -21.0910 O   0  0  0  0  0  0
    3.7910    7.5940  -21.0310 N   0  3  0  0  0  0
    4.2160    8.9390  -20.5010 C   0  0  0  0  0  0
    3.7560    7.4790  -22.5320 C   0  0  0  0  0  0
    5.6810    8.9450  -20.0300 C   0  0  0  0  0  0
    7.4801    8.6280  -20.7620 H   0  0  0  0  0  0
    2.8844    7.3598  -20.6578 H   0  0  0  0  0  0
    4.3980    6.8820  -20.6560 H   0  0  0  0  0  0
    3.5611    9.2260  -19.6651 H   0  0  0  0  0  0
    4.0800    9.6998  -21.2838 H   0  0  0  0  0  0
    4.7703    7.6190  -22.9341 H   0  0  0  0  0  0
    3.1123    8.2697  -22.9448 H   0  0  0  0  0  0
    5.9330    9.9382  -19.6299 H   0  0  0  0  0  0
    5.8040    8.2258  -19.2068 H   0  0  0  0  0  0
  1  2  2  0  0  0
  1  3  1  0  0  0
  1 34  1  0  0  0
  2  6  1  0  0  0
  2 35  1  0  0  0
  3  5  2  0  0  0
  3 27  1  0  0  0
  4  5  1  0  0  0
  4  6  2  0  0  0
  4 18  1  0  0  0
  5 24  1  0  0  0
  6 10  1  0  0  0
  7 10  2  0  0  0
  7 23  1  0  0  0
  7 33  1  0  0  0
  8 21  1  0  0  0
  8 22  1  0  0  0
  8 36  1  0  0  0
  8 37  1  0  0  0
  9 21  1  0  0  0
  9 31  1  0  0  0
  9 38  1  0  0  0
  9 39  1  0  0  0
 10 40  1  0  0  0
 11 12  1  0  0  0
 11 14  2  0  0  0
 11 15  1  0  0  0
 12 17  1  0  0  0
 12 28  2  0  0  0
 13 28  1  0  0  0
 13 29  2  0  0  0
 13 55  1  0  0  0
 14 29  1  0  0  0
 14 31  1  0  0  0
 15 30  2  0  0  0
 15 41  1  0  0  0
 16 17  2  0  0  0
 16 18  1  0  0  0
 16 30  1  0  0  0
 17 26  1  0  0  0
 18 23  2  0  0  0
 19 20  1  0  0  0
 19 31  1  0  0  0
 19 42  1  0  0  0
 19 43  1  0  0  0
 20 22  1  0  0  0
 20 32  1  0  0  0
 20 44  1  0  0  0
 21 32  1  0  0  0
 21 45  1  0  0  0
 22 46  1  0  0  0
 22 47  1  0  0  0
 23 48  1  0  0  0
 24 25  3  0  0  0
 25 49  1  0  0  0
 32 50  1  0  0  0
 33 51  1  0  0  0
 52 56  1  0  0  0
 52 57  1  0  0  0
 53 54  1  0  0  0
 53 55  1  0  0  0
 53 58  1  0  0  0
 53 59  1  0  0  0
 54 56  1  0  0  0
 54 60  1  0  0  0
 54 61  1  0  0  0
 55 62  1  0  0  0
 55 63  1  0  0  0
 56 64  1  0  0  0
 56 65  1  0  0  0
M  CHG  1  53   1
M  END
> <s_m_entry_id>
814

> <s_m_entry_name>
000000656.1

> <s_m_Source_Path>
/Users/zaksoul/Documents/3r_UNI/2nd_SEMESTER/BSC/FRAG_RECON/RESULTS/2

> <s_m_Source_File>
000000656.mol2

> <i_m_Source_File_Index>
1

$$$$
No_0_678
                    3D
 Schrodinger Suite 2022-4.
 65 70  0  0  1  0            999 V2000
   -5.3280    3.5810  -21.9070 C   0  0  0  0  0  0
   -5.5920    3.7740  -23.2420 C   0  0  0  0  0  0
   -4.0900    3.3240  -21.5660 C   0  0  0  0  0  0
   -3.1970    3.4530  -23.7300 C   0  0  0  0  0  0
   -3.0380    3.2040  -22.3100 C   0  0  0  0  0  0
   -4.5430    3.7210  -24.2520 C   0  0  0  0  0  0
   -3.7860    3.7460  -26.4490 C   0  0  0  0  0  0
    5.9360    2.9680  -21.1780 C   0  0  0  0  0  0
    5.8000    3.1170  -23.7270 C   0  0  0  0  0  0
   -4.7930    3.8520  -25.5870 C   0  0  0  0  0  0
    2.0170    3.6770  -23.7460 C   0  0  0  0  0  0
    1.1990    4.7870  -23.4450 C   0  0  0  0  0  0
    3.0010    5.9760  -22.7600 C   0  0  0  0  0  0
    3.4180    3.8630  -23.4310 C   0  0  0  0  0  0
    1.4680    2.5630  -24.4110 C   0  0  0  0  0  0
   -0.6570    3.3830  -24.3000 C   0  0  0  0  0  0
   -0.1270    4.6000  -23.6970 C   0  0  0  0  0  0
   -2.1100    3.3940  -24.6550 C   0  0  0  0  0  0
    4.0160    1.3620  -23.1450 C   0  0  0  0  0  0
    4.9470    1.0010  -21.9990 C   0  0  2  0  0  0
    6.5450    2.5380  -22.5300 C   0  0  2  0  0  0
    4.9310    1.9990  -20.8290 C   0  0  0  0  0  0
   -2.4330    3.5580  -26.0830 C   0  0  0  0  0  0
   -1.6960    2.7850  -21.7120 C   0  0  0  0  0  0
   -0.6660    2.4330  -21.2060 C   0  0  0  0  0  0
   -0.9660    5.6470  -23.3510 F   0  0  0  0  0  0
   -3.8820    3.0770  -20.1840 F   0  0  0  0  0  0
    1.6800    5.9430  -22.9100 N   0  0  0  0  0  0
    3.8940    5.0110  -22.9820 N   0  0  0  0  0  0
    0.1620    2.4780  -24.7170 N   0  0  0  0  0  0
    4.3330    2.8120  -23.6100 N   0  0  0  0  0  0
    6.3550    1.0650  -22.4800 N   0  0  1  0  0  0
   -3.9580    3.7640  -27.8390 O   0  0  0  0  0  0
   -6.1304    3.6453  -21.1810 H   0  0  0  0  0  0
   -6.6055    3.9727  -23.5711 H   0  0  0  0  0  0
    5.4688    3.9580  -21.2860 H   0  0  0  0  0  0
    6.7218    2.9741  -20.4083 H   0  0  0  0  0  0
    6.1937    2.6739  -24.6536 H   0  0  0  0  0  0
    5.9463    4.2068  -23.7573 H   0  0  0  0  0  0
   -5.8026    4.0417  -25.9332 H   0  0  0  0  0  0
    2.1046    1.7326  -24.6942 H   0  0  0  0  0  0
    2.9726    1.3085  -22.8009 H   0  0  0  0  0  0
    4.1764    0.6658  -23.9814 H   0  0  0  0  0  0
    4.7199   -0.0114  -21.6336 H   0  0  0  0  0  0
    7.6143    2.7922  -22.5754 H   0  0  0  0  0  0
    3.9489    2.4926  -20.7856 H   0  0  0  0  0  0
    5.2296    1.4825  -19.9049 H   0  0  0  0  0  0
   -1.6631    3.5379  -26.8459 H   0  0  0  0  0  0
    0.2401    2.1230  -20.7610 H   0  0  0  0  0  0
    7.0001    0.5633  -21.7739 H   0  0  0  0  0  0
   -3.1132    3.6750  -28.2644 H   0  0  0  0  0  0
    6.5250    8.9070  -22.5600 O   0  0  0  0  0  0
    4.5810    7.1090  -21.1970 N   0  3  0  0  0  0
    5.1340    8.3740  -20.5940 C   0  0  0  0  0  0
    3.5640    7.3120  -22.2880 C   0  0  0  0  0  0
    6.5330    8.7170  -21.1380 C   0  0  0  0  0  0
    7.4029    9.1160  -22.8570 H   0  0  0  0  0  0
    4.1789    6.5409  -20.4679 H   0  0  0  0  0  0
    5.3409    6.5480  -21.5490 H   0  0  0  0  0  0
    5.1840    8.2670  -19.5004 H   0  0  0  0  0  0
    4.4469    9.2082  -20.7990 H   0  0  0  0  0  0
    4.0349    7.8309  -23.1359 H   0  0  0  0  0  0
    2.7448    7.9431  -21.9129 H   0  0  0  0  0  0
    6.9022    9.6304  -20.6488 H   0  0  0  0  0  0
    7.2339    7.9091  -20.8810 H   0  0  0  0  0  0
  1  2  2  0  0  0
  1  3  1  0  0  0
  1 34  1  0  0  0
  2  6  1  0  0  0
  2 35  1  0  0  0
  3  5  2  0  0  0
  3 27  1  0  0  0
  4  5  1  0  0  0
  4  6  2  0  0  0
  4 18  1  0  0  0
  5 24  1  0  0  0
  6 10  1  0  0  0
  7 10  2  0  0  0
  7 23  1  0  0  0
  7 33  1  0  0  0
  8 21  1  0  0  0
  8 22  1  0  0  0
  8 36  1  0  0  0
  8 37  1  0  0  0
  9 21  1  0  0  0
  9 31  1  0  0  0
  9 38  1  0  0  0
  9 39  1  0  0  0
 10 40  1  0  0  0
 11 12  1  0  0  0
 11 14  2  0  0  0
 11 15  1  0  0  0
 12 17  1  0  0  0
 12 28  2  0  0  0
 13 28  1  0  0  0
 13 29  2  0  0  0
 13 55  1  0  0  0
 14 29  1  0  0  0
 14 31  1  0  0  0
 15 30  2  0  0  0
 15 41  1  0  0  0
 16 17  2  0  0  0
 16 18  1  0  0  0
 16 30  1  0  0  0
 17 26  1  0  0  0
 18 23  2  0  0  0
 19 20  1  0  0  0
 19 31  1  0  0  0
 19 42  1  0  0  0
 19 43  1  0  0  0
 20 22  1  0  0  0
 20 32  1  0  0  0
 20 44  1  0  0  0
 21 32  1  0  0  0
 21 45  1  0  0  0
 22 46  1  0  0  0
 22 47  1  0  0  0
 23 48  1  0  0  0
 24 25  3  0  0  0
 25 49  1  0  0  0
 32 50  1  0  0  0
 33 51  1  0  0  0
 52 56  1  0  0  0
 52 57  1  0  0  0
 53 54  1  0  0  0
 53 55  1  0  0  0
 53 58  1  0  0  0
 53 59  1  0  0  0
 54 56  1  0  0  0
 54 60  1  0  0  0
 54 61  1  0  0  0
 55 62  1  0  0  0
 55 63  1  0  0  0
 56 64  1  0  0  0
 56 65  1  0  0  0
M  CHG  1  53   1
M  END
> <s_m_entry_id>
815

> <s_m_entry_name>
000000657.1

> <s_m_Source_Path>
/Users/zaksoul/Documents/3r_UNI/2nd_SEMESTER/BSC/FRAG_RECON/RESULTS/2

> <s_m_Source_File>
000000657.mol2

> <i_m_Source_File_Index>
1

$$$$
No_0_679
                    3D
 Schrodinger Suite 2022-4.
 65 70  0  0  1  0            999 V2000
   -5.2980    3.6180  -22.1410 C   0  0  0  0  0  0
   -5.5530    3.8060  -23.4790 C   0  0  0  0  0  0
   -4.0670    3.3390  -21.7930 C   0  0  0  0  0  0
   -3.1630    3.4350  -23.9550 C   0  0  0  0  0  0
   -3.0140    3.1940  -22.5320 C   0  0  0  0  0  0
   -4.5020    3.7250  -24.4840 C   0  0  0  0  0  0
   -3.7360    3.7190  -26.6780 C   0  0  0  0  0  0
    5.9490    2.7930  -21.3620 C   0  0  0  0  0  0
    5.8260    2.9260  -23.9120 C   0  0  0  0  0  0
   -4.7440    3.8520  -25.8210 C   0  0  0  0  0  0
    2.0550    3.5580  -23.9510 C   0  0  0  0  0  0
    1.2570    4.6870  -23.6610 C   0  0  0  0  0  0
    3.0790    5.8450  -22.9780 C   0  0  0  0  0  0
    3.4570    3.7190  -23.6320 C   0  0  0  0  0  0
    1.4870    2.4510  -24.6100 C   0  0  0  0  0  0
   -0.6220    3.3120  -24.5130 C   0  0  0  0  0  0
   -0.0710    4.5230  -23.9180 C   0  0  0  0  0  0
   -2.0730    3.3490  -24.8750 C   0  0  0  0  0  0
    4.0060    1.2100  -23.3250 C   0  0  0  0  0  0
    4.9250    0.8390  -22.1720 C   0  0  2  0  0  0
    6.5550    2.3410  -22.7080 C   0  0  2  0  0  0
    4.9240    1.8460  -21.0100 C   0  0  0  0  0  0
   -2.3880    3.5090  -26.3050 C   0  0  0  0  0  0
   -1.6830    2.7540  -21.9250 C   0  0  0  0  0  0
   -0.6620    2.3850  -21.4130 C   0  0  0  0  0  0
   -0.8910    5.5880  -23.5820 F   0  0  0  0  0  0
   -3.8690    3.0990  -20.4090 F   0  0  0  0  0  0
    1.7580    5.8370  -23.1330 N   0  0  0  0  0  0
    3.9540    4.8620  -23.1890 N   0  0  0  0  0  0
    0.1800    2.3890  -24.9210 N   0  0  0  0  0  0
    4.3530    2.6500  -23.7990 N   0  0  0  0  0  0
    6.3360    0.8720  -22.6480 N   0  0  1  0  0  0
   -3.9010    3.7310  -28.0690 O   0  0  0  0  0  0
   -6.1022    3.7033  -21.4191 H   0  0  0  0  0  0
   -6.5612    4.0227  -23.8131 H   0  0  0  0  0  0
    5.5010    3.7909  -21.4780 H   0  0  0  0  0  0
    6.7318    2.7900  -20.5892 H   0  0  0  0  0  0
    6.2144    2.4690  -24.8341 H   0  0  0  0  0  0
    5.9935    4.0125  -23.9503 H   0  0  0  0  0  0
   -5.7482    4.0579  -26.1735 H   0  0  0  0  0  0
    2.1082    1.6060  -24.8840 H   0  0  0  0  0  0
    2.9607    1.1787  -22.9840 H   0  0  0  0  0  0
    4.1564    0.5046  -24.1555 H   0  0  0  0  0  0
    4.6767   -0.1662  -21.8006 H   0  0  0  0  0  0
    7.6291    2.5742  -22.7514 H   0  0  0  0  0  0
    3.9516    2.3590  -20.9736 H   0  0  0  0  0  0
    5.2085    1.3305  -20.0809 H   0  0  0  0  0  0
   -1.6156    3.4679  -27.0644 H   0  0  0  0  0  0
    0.2361    2.0609  -20.9619 H   0  0  0  0  0  0
    6.9692    0.3640  -21.9357 H   0  0  0  0  0  0
   -3.0563    3.6221  -28.4899 H   0  0  0  0  0  0
    6.4060    8.9910  -23.2730 O   0  0  0  0  0  0
    4.9110    6.9530  -21.6970 N   0  3  0  0  0  0
    5.5220    8.1990  -21.1100 C   0  0  0  0  0  0
    3.6660    7.1740  -22.5140 C   0  0  0  0  0  0
    6.7430    8.6840  -21.9120 C   0  0  0  0  0  0
    7.1827    9.2863  -23.7334 H   0  0  0  0  0  0
    4.7130    6.2979  -20.9569 H   0  0  0  0  0  0
    5.5987    6.4782  -22.2607 H   0  0  0  0  0  0
    5.8211    8.0039  -20.0696 H   0  0  0  0  0  0
    4.7648    8.9962  -21.0780 H   0  0  0  0  0  0
    3.9072    7.7945  -23.3897 H   0  0  0  0  0  0
    2.9212    7.7109  -21.9082 H   0  0  0  0  0  0
    7.1662    9.5775  -21.4297 H   0  0  0  0  0  0
    7.5237    7.9093  -21.8950 H   0  0  0  0  0  0
  1  2  2  0  0  0
  1  3  1  0  0  0
  1 34  1  0  0  0
  2  6  1  0  0  0
  2 35  1  0  0  0
  3  5  2  0  0  0
  3 27  1  0  0  0
  4  5  1  0  0  0
  4  6  2  0  0  0
  4 18  1  0  0  0
  5 24  1  0  0  0
  6 10  1  0  0  0
  7 10  2  0  0  0
  7 23  1  0  0  0
  7 33  1  0  0  0
  8 21  1  0  0  0
  8 22  1  0  0  0
  8 36  1  0  0  0
  8 37  1  0  0  0
  9 21  1  0  0  0
  9 31  1  0  0  0
  9 38  1  0  0  0
  9 39  1  0  0  0
 10 40  1  0  0  0
 11 12  1  0  0  0
 11 14  2  0  0  0
 11 15  1  0  0  0
 12 17  1  0  0  0
 12 28  2  0  0  0
 13 28  1  0  0  0
 13 29  2  0  0  0
 13 55  1  0  0  0
 14 29  1  0  0  0
 14 31  1  0  0  0
 15 30  2  0  0  0
 15 41  1  0  0  0
 16 17  2  0  0  0
 16 18  1  0  0  0
 16 30  1  0  0  0
 17 26  1  0  0  0
 18 23  2  0  0  0
 19 20  1  0  0  0
 19 31  1  0  0  0
 19 42  1  0  0  0
 19 43  1  0  0  0
 20 22  1  0  0  0
 20 32  1  0  0  0
 20 44  1  0  0  0
 21 32  1  0  0  0
 21 45  1  0  0  0
 22 46  1  0  0  0
 22 47  1  0  0  0
 23 48  1  0  0  0
 24 25  3  0  0  0
 25 49  1  0  0  0
 32 50  1  0  0  0
 33 51  1  0  0  0
 52 56  1  0  0  0
 52 57  1  0  0  0
 53 54  1  0  0  0
 53 55  1  0  0  0
 53 58  1  0  0  0
 53 59  1  0  0  0
 54 56  1  0  0  0
 54 60  1  0  0  0
 54 61  1  0  0  0
 55 62  1  0  0  0
 55 63  1  0  0  0
 56 64  1  0  0  0
 56 65  1  0  0  0
M  CHG  1  53   1
M  END
> <s_m_entry_id>
816

> <s_m_entry_name>
000000658.1

> <s_m_Source_Path>
/Users/zaksoul/Documents/3r_UNI/2nd_SEMESTER/BSC/FRAG_RECON/RESULTS/2

> <s_m_Source_File>
000000658.mol2

> <i_m_Source_File_Index>
1

$$$$
No_0_680
                    3D
 Schrodinger Suite 2022-4.
 65 70  0  0  1  0            999 V2000
   -5.2790    3.2970  -22.1750 C   0  0  0  0  0  0
   -5.5250    3.5070  -23.5110 C   0  0  0  0  0  0
   -4.0400    3.0780  -21.8150 C   0  0  0  0  0  0
   -3.1110    3.2820  -23.9590 C   0  0  0  0  0  0
   -2.9700    3.0120  -22.5410 C   0  0  0  0  0  0
   -4.4570    3.5110  -24.5010 C   0  0  0  0  0  0
   -3.6610    3.6070  -26.6830 C   0  0  0  0  0  0
    5.9840    3.0830  -21.2410 C   0  0  0  0  0  0
    5.8900    3.2770  -23.7890 C   0  0  0  0  0  0
   -4.6860    3.6600  -25.8380 C   0  0  0  0  0  0
    2.0900    3.6980  -23.8700 C   0  0  0  0  0  0
    1.2260    4.7710  -23.5630 C   0  0  0  0  0  0
    2.9700    6.0110  -22.8220 C   0  0  0  0  0  0
    3.4770    3.9280  -23.5250 C   0  0  0  0  0  0
    1.5950    2.5780  -24.5660 C   0  0  0  0  0  0
   -0.5600    3.3170  -24.4800 C   0  0  0  0  0  0
   -0.0870    4.5410  -23.8450 C   0  0  0  0  0  0
   -2.0060    3.2820  -24.8640 C   0  0  0  0  0  0
    4.1610    1.4460  -23.2750 C   0  0  0  0  0  0
    5.0840    1.0970  -22.1170 C   0  0  2  0  0  0
    6.6340    2.7010  -22.5890 C   0  0  2  0  0  0
    5.0100    2.0710  -20.9300 C   0  0  0  0  0  0
   -2.3090    3.4620  -26.2940 C   0  0  0  0  0  0
   -1.6240    2.6310  -21.9250 C   0  0  0  0  0  0
   -0.5920    2.3070  -21.4060 C   0  0  0  0  0  0
   -0.9700    5.5490  -23.4950 F   0  0  0  0  0  0
   -3.8480    2.8120  -20.4340 F   0  0  0  0  0  0
    1.6540    5.9340  -22.9980 N   0  0  0  0  0  0
    3.9020    5.0840  -23.0450 N   0  0  0  0  0  0
    0.2990    2.4510  -24.8990 N   0  0  0  0  0  0
    4.4330    2.9160  -23.7060 N   0  0  0  0  0  0
    6.4970    1.2220  -22.5700 N   0  0  1  0  0  0
   -3.8070    3.6470  -28.0750 O   0  0  0  0  0  0
   -6.0963    3.3171  -21.4632 H   0  0  0  0  0  0
   -6.5392    3.6745  -23.8551 H   0  0  0  0  0  0
    5.4823    4.0571  -21.3379 H   0  0  0  0  0  0
    6.7546    3.1022  -20.4563 H   0  0  0  0  0  0
    6.3170    2.8661  -24.7157 H   0  0  0  0  0  0
    5.9970    4.3718  -23.7951 H   0  0  0  0  0  0
   -5.6953    3.8185  -26.2002 H   0  0  0  0  0  0
    2.2672    1.7774  -24.8529 H   0  0  0  0  0  0
    3.1144    1.3471  -22.9510 H   0  0  0  0  0  0
    4.3629    0.7726  -24.1210 H   0  0  0  0  0  0
    4.8873    0.0699  -21.7760 H   0  0  0  0  0  0
    7.6936    2.9957  -22.6082 H   0  0  0  0  0  0
    4.0097    2.5272  -20.8947 H   0  0  0  0  0  0
    5.3096    1.5475  -20.0101 H   0  0  0  0  0  0
   -1.5243    3.4851  -27.0415 H   0  0  0  0  0  0
    0.3160    2.0210  -20.9490 H   0  0  0  0  0  0
    7.1473    0.7300  -21.8619 H   0  0  0  0  0  0
   -2.9519    3.5965  -28.4857 H   0  0  0  0  0  0
    5.7310    9.6350  -23.3660 O   0  0  0  0  0  0
    4.8870    7.2430  -21.8060 N   0  3  0  0  0  0
    5.4510    8.4990  -21.1950 C   0  0  0  0  0  0
    3.4740    7.3580  -22.3140 C   0  0  0  0  0  0
    6.3950    9.2430  -22.1570 C   0  0  0  0  0  0
    6.3438   10.0898  -23.9318 H   0  0  0  0  0  0
    4.9400    6.4933  -21.1343 H   0  0  0  0  0  0
    5.4872    6.9379  -22.5562 H   0  0  0  0  0  0
    5.9949    8.2451  -20.2732 H   0  0  0  0  0  0
    4.6269    9.1661  -20.9020 H   0  0  0  0  0  0
    3.4370    8.0943  -23.1304 H   0  0  0  0  0  0
    2.8207    7.7112  -21.5026 H   0  0  0  0  0  0
    6.7999   10.1347  -21.6561 H   0  0  0  0  0  0
    7.2510    8.5970  -22.4020 H   0  0  0  0  0  0
  1  2  2  0  0  0
  1  3  1  0  0  0
  1 34  1  0  0  0
  2  6  1  0  0  0
  2 35  1  0  0  0
  3  5  2  0  0  0
  3 27  1  0  0  0
  4  5  1  0  0  0
  4  6  2  0  0  0
  4 18  1  0  0  0
  5 24  1  0  0  0
  6 10  1  0  0  0
  7 10  2  0  0  0
  7 23  1  0  0  0
  7 33  1  0  0  0
  8 21  1  0  0  0
  8 22  1  0  0  0
  8 36  1  0  0  0
  8 37  1  0  0  0
  9 21  1  0  0  0
  9 31  1  0  0  0
  9 38  1  0  0  0
  9 39  1  0  0  0
 10 40  1  0  0  0
 11 12  1  0  0  0
 11 14  2  0  0  0
 11 15  1  0  0  0
 12 17  1  0  0  0
 12 28  2  0  0  0
 13 28  1  0  0  0
 13 29  2  0  0  0
 13 55  1  0  0  0
 14 29  1  0  0  0
 14 31  1  0  0  0
 15 30  2  0  0  0
 15 41  1  0  0  0
 16 17  2  0  0  0
 16 18  1  0  0  0
 16 30  1  0  0  0
 17 26  1  0  0  0
 18 23  2  0  0  0
 19 20  1  0  0  0
 19 31  1  0  0  0
 19 42  1  0  0  0
 19 43  1  0  0  0
 20 22  1  0  0  0
 20 32  1  0  0  0
 20 44  1  0  0  0
 21 32  1  0  0  0
 21 45  1  0  0  0
 22 46  1  0  0  0
 22 47  1  0  0  0
 23 48  1  0  0  0
 24 25  3  0  0  0
 25 49  1  0  0  0
 32 50  1  0  0  0
 33 51  1  0  0  0
 52 56  1  0  0  0
 52 57  1  0  0  0
 53 54  1  0  0  0
 53 55  1  0  0  0
 53 58  1  0  0  0
 53 59  1  0  0  0
 54 56  1  0  0  0
 54 60  1  0  0  0
 54 61  1  0  0  0
 55 62  1  0  0  0
 55 63  1  0  0  0
 56 64  1  0  0  0
 56 65  1  0  0  0
M  CHG  1  53   1
M  END
> <s_m_entry_id>
817

> <s_m_entry_name>
000000659.1

> <s_m_Source_Path>
/Users/zaksoul/Documents/3r_UNI/2nd_SEMESTER/BSC/FRAG_RECON/RESULTS/2

> <s_m_Source_File>
000000659.mol2

> <i_m_Source_File_Index>
1

$$$$
No_0_681
                    3D
 Schrodinger Suite 2022-4.
 65 70  0  0  1  0            999 V2000
   -5.4700    3.4160  -21.7990 C   0  0  0  0  0  0
   -5.7400    3.6230  -23.1320 C   0  0  0  0  0  0
   -4.2320    3.1520  -21.4660 C   0  0  0  0  0  0
   -3.3480    3.2990  -23.6330 C   0  0  0  0  0  0
   -3.1830    3.0370  -22.2170 C   0  0  0  0  0  0
   -4.6950    3.5760  -24.1460 C   0  0  0  0  0  0
   -3.9480    3.6200  -26.3470 C   0  0  0  0  0  0
    5.7960    2.7650  -21.1270 C   0  0  0  0  0  0
    5.6490    2.9390  -23.6740 C   0  0  0  0  0  0
   -4.9510    3.7210  -25.4790 C   0  0  0  0  0  0
    1.8670    3.5090  -23.6700 C   0  0  0  0  0  0
    1.0540    4.6190  -23.3550 C   0  0  0  0  0  0
    2.8620    5.7960  -22.6670 C   0  0  0  0  0  0
    3.2700    3.6880  -23.3600 C   0  0  0  0  0  0
    1.3120    2.4040  -24.3430 C   0  0  0  0  0  0
   -0.8100    3.2280  -24.2150 C   0  0  0  0  0  0
   -0.2740    4.4380  -23.6030 C   0  0  0  0  0  0
   -2.2640    3.2470  -24.5640 C   0  0  0  0  0  0
    3.8620    1.1830  -23.1010 C   0  0  0  0  0  0
    4.7970    0.8080  -21.9620 C   0  0  2  0  0  0
    6.3970    2.3460  -22.4860 C   0  0  2  0  0  0
    4.7890    1.7950  -20.7830 C   0  0  0  0  0  0
   -2.5940    3.4260  -25.9880 C   0  0  0  0  0  0
   -1.8390    2.6080  -21.6280 C   0  0  0  0  0  0
   -0.8090    2.2480  -21.1300 C   0  0  0  0  0  0
   -1.1080    5.4830  -23.2430 F   0  0  0  0  0  0
   -4.0180    2.8910  -20.0880 F   0  0  0  0  0  0
    1.5400    5.7690  -22.8110 N   0  0  0  0  0  0
    3.7510    4.8310  -22.9020 N   0  0  0  0  0  0
    0.0040    2.3250  -24.6450 N   0  0  0  0  0  0
    4.1810    2.6370  -23.5530 N   0  0  0  0  0  0
    6.2030    0.8730  -22.4490 N   0  0  1  0  0  0
   -4.1260    3.6530  -27.7360 O   0  0  0  0  0  0
   -6.2692    3.4752  -21.0691 H   0  0  0  0  0  0
   -6.7547    3.8280  -23.4535 H   0  0  0  0  0  0
    5.3299    3.7567  -21.2228 H   0  0  0  0  0  0
    6.5843    2.7610  -20.3599 H   0  0  0  0  0  0
    6.0366    2.5030  -24.6066 H   0  0  0  0  0  0
    5.7983    4.0286  -23.6942 H   0  0  0  0  0  0
   -5.9615    3.9167  -25.8192 H   0  0  0  0  0  0
    1.9449    1.5745  -24.6369 H   0  0  0  0  0  0
    2.8202    1.1285  -22.7521 H   0  0  0  0  0  0
    4.0164    0.4945  -23.9449 H   0  0  0  0  0  0
    4.5689   -0.2074  -21.6057 H   0  0  0  0  0  0
    7.4669    2.5973  -22.5334 H   0  0  0  0  0  0
    3.8089    2.2916  -20.7295 H   0  0  0  0  0  0
    5.0898    1.2681  -19.8655 H   0  0  0  0  0  0
   -1.8276    3.4110  -26.7544 H   0  0  0  0  0  0
    0.0981    1.9310  -20.6920 H   0  0  0  0  0  0
    6.8500    0.3629  -21.7507 H   0  0  0  0  0  0
   -3.2831    3.5650  -28.1653 H   0  0  0  0  0  0
    5.2680    9.5990  -23.5610 O   0  0  0  0  0  0
    4.9290    7.0520  -22.0550 N   0  3  0  0  0  0
    5.5850    8.2870  -21.4960 C   0  0  0  0  0  0
    3.4310    7.1260  -22.1840 C   0  0  0  0  0  0
    6.2290    9.1540  -22.5940 C   0  0  0  0  0  0
    5.7031   10.1281  -24.2192 H   0  0  0  0  0  0
    5.1750    6.2571  -21.4861 H   0  0  0  0  0  0
    5.3312    6.8389  -22.9544 H   0  0  0  0  0  0
    6.3522    7.9949  -20.7638 H   0  0  0  0  0  0
    4.8381    8.8829  -20.9511 H   0  0  0  0  0  0
    3.1631    7.9188  -22.8979 H   0  0  0  0  0  0
    2.9908    7.3801  -21.2085 H   0  0  0  0  0  0
    6.7160   10.0260  -22.1330 H   0  0  0  0  0  0
    7.0170    8.5760  -23.0990 H   0  0  0  0  0  0
  1  2  2  0  0  0
  1  3  1  0  0  0
  1 34  1  0  0  0
  2  6  1  0  0  0
  2 35  1  0  0  0
  3  5  2  0  0  0
  3 27  1  0  0  0
  4  5  1  0  0  0
  4  6  2  0  0  0
  4 18  1  0  0  0
  5 24  1  0  0  0
  6 10  1  0  0  0
  7 10  2  0  0  0
  7 23  1  0  0  0
  7 33  1  0  0  0
  8 21  1  0  0  0
  8 22  1  0  0  0
  8 36  1  0  0  0
  8 37  1  0  0  0
  9 21  1  0  0  0
  9 31  1  0  0  0
  9 38  1  0  0  0
  9 39  1  0  0  0
 10 40  1  0  0  0
 11 12  1  0  0  0
 11 14  2  0  0  0
 11 15  1  0  0  0
 12 17  1  0  0  0
 12 28  2  0  0  0
 13 28  1  0  0  0
 13 29  2  0  0  0
 13 55  1  0  0  0
 14 29  1  0  0  0
 14 31  1  0  0  0
 15 30  2  0  0  0
 15 41  1  0  0  0
 16 17  2  0  0  0
 16 18  1  0  0  0
 16 30  1  0  0  0
 17 26  1  0  0  0
 18 23  2  0  0  0
 19 20  1  0  0  0
 19 31  1  0  0  0
 19 42  1  0  0  0
 19 43  1  0  0  0
 20 22  1  0  0  0
 20 32  1  0  0  0
 20 44  1  0  0  0
 21 32  1  0  0  0
 21 45  1  0  0  0
 22 46  1  0  0  0
 22 47  1  0  0  0
 23 48  1  0  0  0
 24 25  3  0  0  0
 25 49  1  0  0  0
 32 50  1  0  0  0
 33 51  1  0  0  0
 52 56  1  0  0  0
 52 57  1  0  0  0
 53 54  1  0  0  0
 53 55  1  0  0  0
 53 58  1  0  0  0
 53 59  1  0  0  0
 54 56  1  0  0  0
 54 60  1  0  0  0
 54 61  1  0  0  0
 55 62  1  0  0  0
 55 63  1  0  0  0
 56 64  1  0  0  0
 56 65  1  0  0  0
M  CHG  1  53   1
M  END
> <s_m_entry_id>
818

> <s_m_entry_name>
000000660.1

> <s_m_Source_Path>
/Users/zaksoul/Documents/3r_UNI/2nd_SEMESTER/BSC/FRAG_RECON/RESULTS/2

> <s_m_Source_File>
000000660.mol2

> <i_m_Source_File_Index>
1

$$$$
No_0_682
                    3D
 Schrodinger Suite 2022-4.
 65 70  0  0  1  0            999 V2000
   -5.1810    3.6090  -21.8530 C   0  0  0  0  0  0
   -5.4520    3.8050  -23.1860 C   0  0  0  0  0  0
   -3.9420    3.3510  -21.5190 C   0  0  0  0  0  0
   -3.0590    3.4860  -23.6870 C   0  0  0  0  0  0
   -2.8930    3.2340  -22.2690 C   0  0  0  0  0  0
   -4.4090    3.7540  -24.2010 C   0  0  0  0  0  0
   -3.6630    3.7850  -26.4030 C   0  0  0  0  0  0
    6.0870    3.0010  -21.1820 C   0  0  0  0  0  0
    5.9380    3.1560  -23.7310 C   0  0  0  0  0  0
   -4.6650    3.8890  -25.5350 C   0  0  0  0  0  0
    2.1540    3.7130  -23.7290 C   0  0  0  0  0  0
    1.3370    4.8230  -23.4210 C   0  0  0  0  0  0
    3.1410    6.0110  -22.7430 C   0  0  0  0  0  0
    3.5570    3.8990  -23.4210 C   0  0  0  0  0  0
    1.6030    2.6010  -24.3930 C   0  0  0  0  0  0
   -0.5220    3.4190  -24.2700 C   0  0  0  0  0  0
    0.0100    4.6350  -23.6670 C   0  0  0  0  0  0
   -1.9770    3.4300  -24.6180 C   0  0  0  0  0  0
    4.1570    1.3990  -23.1440 C   0  0  0  0  0  0
    5.0950    1.0350  -22.0030 C   0  0  2  0  0  0
    6.6890    2.5740  -22.5390 C   0  0  2  0  0  0
    5.0840    2.0310  -20.8310 C   0  0  0  0  0  0
   -2.3080    3.5970  -26.0440 C   0  0  0  0  0  0
   -1.5470    2.8150  -21.6780 C   0  0  0  0  0  0
   -0.5150    2.4620  -21.1780 C   0  0  0  0  0  0
   -0.8280    5.6800  -23.3140 F   0  0  0  0  0  0
   -3.7260    3.1020  -20.1390 F   0  0  0  0  0  0
    1.8200    5.9780  -22.8860 N   0  0  0  0  0  0
    4.0350    5.0470  -22.9720 N   0  0  0  0  0  0
    0.2950    2.5160  -24.6930 N   0  0  0  0  0  0
    4.4710    2.8500  -23.6070 N   0  0  0  0  0  0
    6.5000    1.1010  -22.4910 N   0  0  1  0  0  0
   -3.8410    3.8060  -27.7920 O   0  0  0  0  0  0
   -5.9796    3.6712  -21.1226 H   0  0  0  0  0  0
   -6.4675    4.0037  -23.5091 H   0  0  0  0  0  0
    5.6179    3.9906  -21.2849 H   0  0  0  0  0  0
    6.8763    3.0060  -20.4159 H   0  0  0  0  0  0
    6.3275    2.7150  -24.6604 H   0  0  0  0  0  0
    6.0833    4.2460  -23.7593 H   0  0  0  0  0  0
   -5.6765    4.0776  -25.8762 H   0  0  0  0  0  0
    2.2385    1.7718  -24.6821 H   0  0  0  0  0  0
    3.1157    1.3435  -22.7939 H   0  0  0  0  0  0
    4.3144    0.7047  -23.9826 H   0  0  0  0  0  0
    4.8700    0.0218  -21.6387 H   0  0  0  0  0  0
    7.7578    2.8293  -22.5885 H   0  0  0  0  0  0
    4.1018    2.5236  -20.7805 H   0  0  0  0  0  0
    5.3877    1.5123  -19.9097 H   0  0  0  0  0  0
   -1.5411    3.5789  -26.8099 H   0  0  0  0  0  0
    0.3934    2.1519  -20.7378 H   0  0  0  0  0  0
    7.1492    0.5983  -21.7894 H   0  0  0  0  0  0
   -2.9984    3.7179  -28.2217 H   0  0  0  0  0  0
    4.9880   10.0830  -23.7720 O   0  0  0  0  0  0
    5.1950    7.4040  -22.4870 N   0  3  0  0  0  0
    5.8690    8.6480  -21.9690 C   0  0  0  0  0  0
    3.7060    7.3460  -22.2710 C   0  0  0  0  0  0
    6.1770    9.6560  -23.0920 C   0  0  0  0  0  0
    5.2189   10.7018  -24.4548 H   0  0  0  0  0  0
    5.6241    6.5939  -22.0679 H   0  0  0  0  0  0
    5.3940    7.3020  -23.4699 H   0  0  0  0  0  0
    6.8040    8.3730  -21.4590 H   0  0  0  0  0  0
    5.2261    9.1259  -21.2151 H   0  0  0  0  0  0
    3.2242    8.1646  -22.8257 H   0  0  0  0  0  0
    3.4859    7.4800  -21.2016 H   0  0  0  0  0  0
    6.6901   10.5312  -22.6669 H   0  0  0  0  0  0
    6.8680    9.1980  -23.8150 H   0  0  0  0  0  0
  1  2  2  0  0  0
  1  3  1  0  0  0
  1 34  1  0  0  0
  2  6  1  0  0  0
  2 35  1  0  0  0
  3  5  2  0  0  0
  3 27  1  0  0  0
  4  5  1  0  0  0
  4  6  2  0  0  0
  4 18  1  0  0  0
  5 24  1  0  0  0
  6 10  1  0  0  0
  7 10  2  0  0  0
  7 23  1  0  0  0
  7 33  1  0  0  0
  8 21  1  0  0  0
  8 22  1  0  0  0
  8 36  1  0  0  0
  8 37  1  0  0  0
  9 21  1  0  0  0
  9 31  1  0  0  0
  9 38  1  0  0  0
  9 39  1  0  0  0
 10 40  1  0  0  0
 11 12  1  0  0  0
 11 14  2  0  0  0
 11 15  1  0  0  0
 12 17  1  0  0  0
 12 28  2  0  0  0
 13 28  1  0  0  0
 13 29  2  0  0  0
 13 55  1  0  0  0
 14 29  1  0  0  0
 14 31  1  0  0  0
 15 30  2  0  0  0
 15 41  1  0  0  0
 16 17  2  0  0  0
 16 18  1  0  0  0
 16 30  1  0  0  0
 17 26  1  0  0  0
 18 23  2  0  0  0
 19 20  1  0  0  0
 19 31  1  0  0  0
 19 42  1  0  0  0
 19 43  1  0  0  0
 20 22  1  0  0  0
 20 32  1  0  0  0
 20 44  1  0  0  0
 21 32  1  0  0  0
 21 45  1  0  0  0
 22 46  1  0  0  0
 22 47  1  0  0  0
 23 48  1  0  0  0
 24 25  3  0  0  0
 25 49  1  0  0  0
 32 50  1  0  0  0
 33 51  1  0  0  0
 52 56  1  0  0  0
 52 57  1  0  0  0
 53 54  1  0  0  0
 53 55  1  0  0  0
 53 58  1  0  0  0
 53 59  1  0  0  0
 54 56  1  0  0  0
 54 60  1  0  0  0
 54 61  1  0  0  0
 55 62  1  0  0  0
 55 63  1  0  0  0
 56 64  1  0  0  0
 56 65  1  0  0  0
M  CHG  1  53   1
M  END
> <s_m_entry_id>
819

> <s_m_entry_name>
000000661.1

> <s_m_Source_Path>
/Users/zaksoul/Documents/3r_UNI/2nd_SEMESTER/BSC/FRAG_RECON/RESULTS/2

> <s_m_Source_File>
000000661.mol2

> <i_m_Source_File_Index>
1

$$$$
No_0_683
                    3D
 Schrodinger Suite 2022-4.
 65 70  0  0  1  0            999 V2000
   -5.0940    3.7130  -21.6720 C   0  0  0  0  0  0
   -5.3780    3.9370  -22.9990 C   0  0  0  0  0  0
   -3.8520    3.4460  -21.3550 C   0  0  0  0  0  0
   -2.9910    3.6240  -23.5290 C   0  0  0  0  0  0
   -2.8110    3.3430  -22.1180 C   0  0  0  0  0  0
   -4.3440    3.9060  -24.0240 C   0  0  0  0  0  0
   -3.6190    3.9810  -26.2320 C   0  0  0  0  0  0
    6.1780    3.0730  -21.1230 C   0  0  0  0  0  0
    6.0050    3.2810  -23.6660 C   0  0  0  0  0  0
   -4.6130    4.0680  -25.3530 C   0  0  0  0  0  0
    2.2230    3.8440  -23.6160 C   0  0  0  0  0  0
    1.4110    4.9480  -23.2780 C   0  0  0  0  0  0
    3.2240    6.1190  -22.5920 C   0  0  0  0  0  0
    3.6280    4.0210  -23.3180 C   0  0  0  0  0  0
    1.6630    2.7470  -24.2980 C   0  0  0  0  0  0
   -0.4590    3.5650  -24.1370 C   0  0  0  0  0  0
    0.0810    4.7680  -23.5150 C   0  0  0  0  0  0
   -1.9170    3.5860  -24.4710 C   0  0  0  0  0  0
    4.2270    1.5150  -23.0990 C   0  0  0  0  0  0
    5.1750    1.1260  -21.9750 C   0  0  2  0  0  0
    6.7670    2.6730  -22.4940 C   0  0  2  0  0  0
    5.1780    2.0970  -20.7820 C   0  0  0  0  0  0
   -2.2620    3.7840  -25.8900 C   0  0  0  0  0  0
   -1.4610    2.9090  -21.5490 C   0  0  0  0  0  0
   -0.4240    2.5440  -21.0670 C   0  0  0  0  0  0
   -0.7510    5.8070  -23.1320 F   0  0  0  0  0  0
   -3.6240    3.1670  -19.9830 F   0  0  0  0  0  0
    1.9000    6.0910  -22.7230 N   0  0  0  0  0  0
    4.1130    5.1590  -22.8500 N   0  0  0  0  0  0
    0.3520    2.6700  -24.5870 N   0  0  0  0  0  0
    4.5390    2.9750  -23.5350 N   0  0  0  0  0  0
    6.5750    1.2000  -22.4750 N   0  0  1  0  0  0
   -3.8110    4.0320  -27.6180 O   0  0  0  0  0  0
   -5.8859    3.7602  -20.9333 H   0  0  0  0  0  0
   -6.3964    4.1439  -23.3073 H   0  0  0  0  0  0
    5.7105    4.0657  -21.2008 H   0  0  0  0  0  0
    6.9752    3.0599  -20.3652 H   0  0  0  0  0  0
    6.3844    2.8592  -24.6084 H   0  0  0  0  0  0
    6.1524    4.3711  -23.6731 H   0  0  0  0  0  0
   -5.6277    4.2657  -25.6792 H   0  0  0  0  0  0
    2.2943    1.9230  -24.6102 H   0  0  0  0  0  0
    3.1891    1.4535  -22.7399 H   0  0  0  0  0  0
    4.3744    0.8376  -23.9531 H   0  0  0  0  0  0
    4.9520    0.1059  -21.6289 H   0  0  0  0  0  0
    7.8358    2.9273  -22.5485 H   0  0  0  0  0  0
    4.1973    2.5904  -20.7124 H   0  0  0  0  0  0
    5.4888    1.5581  -19.8748 H   0  0  0  0  0  0
   -1.5026    3.7800  -26.6635 H   0  0  0  0  0  0
    0.4879    2.2230  -20.6421 H   0  0  0  0  0  0
    7.2303    0.6815  -21.7908 H   0  0  0  0  0  0
   -2.9727    3.9508  -28.0575 H   0  0  0  0  0  0
    4.1570   10.5400  -23.3880 O   0  0  0  0  0  0
    5.0820    7.7700  -22.8080 N   0  3  0  0  0  0
    5.7800    9.0160  -22.3280 C   0  0  0  0  0  0
    3.7950    7.4430  -22.0980 C   0  0  0  0  0  0
    5.5480   10.2130  -23.2680 C   0  0  0  0  0  0
    4.0551   11.2812  -23.9734 H   0  0  0  0  0  0
    5.7117    6.9864  -22.7340 H   0  0  0  0  0  0
    4.9070    7.8460  -23.7978 H   0  0  0  0  0  0
    6.8593    8.8211  -22.2441 H   0  0  0  0  0  0
    5.4246    9.2682  -21.3180 H   0  0  0  0  0  0
    3.0653    8.2467  -22.2759 H   0  0  0  0  0  0
    3.9799    7.3810  -21.0154 H   0  0  0  0  0  0
    6.0980   11.0870  -22.8890 H   0  0  0  0  0  0
    5.9582    9.9829  -24.2624 H   0  0  0  0  0  0
  1  2  2  0  0  0
  1  3  1  0  0  0
  1 34  1  0  0  0
  2  6  1  0  0  0
  2 35  1  0  0  0
  3  5  2  0  0  0
  3 27  1  0  0  0
  4  5  1  0  0  0
  4  6  2  0  0  0
  4 18  1  0  0  0
  5 24  1  0  0  0
  6 10  1  0  0  0
  7 10  2  0  0  0
  7 23  1  0  0  0
  7 33  1  0  0  0
  8 21  1  0  0  0
  8 22  1  0  0  0
  8 36  1  0  0  0
  8 37  1  0  0  0
  9 21  1  0  0  0
  9 31  1  0  0  0
  9 38  1  0  0  0
  9 39  1  0  0  0
 10 40  1  0  0  0
 11 12  1  0  0  0
 11 14  2  0  0  0
 11 15  1  0  0  0
 12 17  1  0  0  0
 12 28  2  0  0  0
 13 28  1  0  0  0
 13 29  2  0  0  0
 13 55  1  0  0  0
 14 29  1  0  0  0
 14 31  1  0  0  0
 15 30  2  0  0  0
 15 41  1  0  0  0
 16 17  2  0  0  0
 16 18  1  0  0  0
 16 30  1  0  0  0
 17 26  1  0  0  0
 18 23  2  0  0  0
 19 20  1  0  0  0
 19 31  1  0  0  0
 19 42  1  0  0  0
 19 43  1  0  0  0
 20 22  1  0  0  0
 20 32  1  0  0  0
 20 44  1  0  0  0
 21 32  1  0  0  0
 21 45  1  0  0  0
 22 46  1  0  0  0
 22 47  1  0  0  0
 23 48  1  0  0  0
 24 25  3  0  0  0
 25 49  1  0  0  0
 32 50  1  0  0  0
 33 51  1  0  0  0
 52 56  1  0  0  0
 52 57  1  0  0  0
 53 54  1  0  0  0
 53 55  1  0  0  0
 53 58  1  0  0  0
 53 59  1  0  0  0
 54 56  1  0  0  0
 54 60  1  0  0  0
 54 61  1  0  0  0
 55 62  1  0  0  0
 55 63  1  0  0  0
 56 64  1  0  0  0
 56 65  1  0  0  0
M  CHG  1  53   1
M  END
> <s_m_entry_id>
820

> <s_m_entry_name>
000000662.1

> <s_m_Source_Path>
/Users/zaksoul/Documents/3r_UNI/2nd_SEMESTER/BSC/FRAG_RECON/RESULTS/2

> <s_m_Source_File>
000000662.mol2

> <i_m_Source_File_Index>
1

$$$$
No_0_684
                    3D
 Schrodinger Suite 2022-4.
 65 70  0  0  1  0            999 V2000
   -5.3730    3.5940  -21.6960 C   0  0  0  0  0  0
   -5.6180    3.8380  -23.0260 C   0  0  0  0  0  0
   -4.1450    3.3020  -21.3500 C   0  0  0  0  0  0
   -3.2230    3.4910  -23.4970 C   0  0  0  0  0  0
   -3.0860    3.1890  -22.0850 C   0  0  0  0  0  0
   -4.5570    3.8020  -24.0250 C   0  0  0  0  0  0
   -3.7730    3.8900  -26.2110 C   0  0  0  0  0  0
    5.8680    2.7500  -20.8570 C   0  0  0  0  0  0
    5.7660    2.9920  -23.4010 C   0  0  0  0  0  0
   -4.7880    3.9850  -25.3570 C   0  0  0  0  0  0
    1.9940    3.6210  -23.4440 C   0  0  0  0  0  0
    1.1930    4.7340  -23.1130 C   0  0  0  0  0  0
    3.0060    5.8650  -22.3660 C   0  0  0  0  0  0
    3.3940    3.7700  -23.1060 C   0  0  0  0  0  0
    1.4340    2.5410  -24.1540 C   0  0  0  0  0  0
   -0.6780    3.3950  -24.0390 C   0  0  0  0  0  0
   -0.1330    4.5800  -23.3870 C   0  0  0  0  0  0
   -2.1250    3.4450  -24.4110 C   0  0  0  0  0  0
    3.9440    1.2500  -22.9030 C   0  0  0  0  0  0
    4.8540    0.8310  -21.7590 C   0  0  2  0  0  0
    6.4860    2.3570  -22.2160 C   0  0  2  0  0  0
    4.8420    1.7880  -20.5550 C   0  0  0  0  0  0
   -2.4280    3.6660  -25.8360 C   0  0  0  0  0  0
   -1.7590    2.7250  -21.4860 C   0  0  0  0  0  0
   -0.7420    2.3370  -20.9810 C   0  0  0  0  0  0
   -0.9580    5.6290  -23.0140 F   0  0  0  0  0  0
   -3.9580    3.0020  -19.9750 F   0  0  0  0  0  0
    1.6870    5.8620  -22.5320 N   0  0  0  0  0  0
    3.8850    4.8920  -22.6110 N   0  0  0  0  0  0
    0.1300    2.4910  -24.4790 N   0  0  0  0  0  0
    4.2920    2.7100  -23.3120 N   0  0  0  0  0  0
    6.2690    0.8870  -22.2210 N   0  0  1  0  0  0
   -3.9270    3.9620  -27.6010 O   0  0  0  0  0  0
   -6.1829    3.6462  -20.9774 H   0  0  0  0  0  0
   -6.6236    4.0678  -23.3592 H   0  0  0  0  0  0
    5.4197    3.7515  -20.9347 H   0  0  0  0  0  0
    6.6439    2.7147  -20.0781 H   0  0  0  0  0  0
    6.1637    2.5742  -24.3376 H   0  0  0  0  0  0
    5.9326    4.0793  -23.3899 H   0  0  0  0  0  0
   -5.7894    4.2047  -25.7092 H   0  0  0  0  0  0
    2.0594    1.7098  -24.4592 H   0  0  0  0  0  0
    2.8960    1.2026  -22.5722 H   0  0  0  0  0  0
    4.1025    0.5805  -23.7613 H   0  0  0  0  0  0
    4.6047   -0.1893  -21.4320 H   0  0  0  0  0  0
    7.5601    2.5932  -22.2402 H   0  0  0  0  0  0
    3.8684    2.2975  -20.5046 H   0  0  0  0  0  0
    5.1193    1.2334  -19.6464 H   0  0  0  0  0  0
   -1.6491    3.6590  -26.5898 H   0  0  0  0  0  0
    0.1530    1.9950  -20.5370 H   0  0  0  0  0  0
    6.8967    0.3491  -21.5259 H   0  0  0  0  0  0
   -3.0790    3.8720  -28.0196 H   0  0  0  0  0  0
    3.3020   10.4350  -22.6580 O   0  0  0  0  0  0
    4.5790    7.7490  -22.8150 N   0  3  0  0  0  0
    5.2830    8.9980  -22.3510 C   0  0  0  0  0  0
    3.5870    7.1730  -21.8400 C   0  0  0  0  0  0
    4.6900   10.2710  -22.9810 C   0  0  0  0  0  0
    2.9729   11.2283  -23.0641 H   0  0  0  0  0  0
    5.2646    7.0474  -23.0469 H   0  0  0  0  0  0
    4.1167    7.9331  -23.6916 H   0  0  0  0  0  0
    6.3520    8.9290  -22.6010 H   0  0  0  0  0  0
    5.2180    9.0680  -21.2552 H   0  0  0  0  0  0
    2.7737    7.8953  -21.6759 H   0  0  0  0  0  0
    4.0838    6.9921  -20.8754 H   0  0  0  0  0  0
    5.2535   11.1488  -22.6317 H   0  0  0  0  0  0
    4.8080   10.2270  -24.0738 H   0  0  0  0  0  0
  1  2  2  0  0  0
  1  3  1  0  0  0
  1 34  1  0  0  0
  2  6  1  0  0  0
  2 35  1  0  0  0
  3  5  2  0  0  0
  3 27  1  0  0  0
  4  5  1  0  0  0
  4  6  2  0  0  0
  4 18  1  0  0  0
  5 24  1  0  0  0
  6 10  1  0  0  0
  7 10  2  0  0  0
  7 23  1  0  0  0
  7 33  1  0  0  0
  8 21  1  0  0  0
  8 22  1  0  0  0
  8 36  1  0  0  0
  8 37  1  0  0  0
  9 21  1  0  0  0
  9 31  1  0  0  0
  9 38  1  0  0  0
  9 39  1  0  0  0
 10 40  1  0  0  0
 11 12  1  0  0  0
 11 14  2  0  0  0
 11 15  1  0  0  0
 12 17  1  0  0  0
 12 28  2  0  0  0
 13 28  1  0  0  0
 13 29  2  0  0  0
 13 55  1  0  0  0
 14 29  1  0  0  0
 14 31  1  0  0  0
 15 30  2  0  0  0
 15 41  1  0  0  0
 16 17  2  0  0  0
 16 18  1  0  0  0
 16 30  1  0  0  0
 17 26  1  0  0  0
 18 23  2  0  0  0
 19 20  1  0  0  0
 19 31  1  0  0  0
 19 42  1  0  0  0
 19 43  1  0  0  0
 20 22  1  0  0  0
 20 32  1  0  0  0
 20 44  1  0  0  0
 21 32  1  0  0  0
 21 45  1  0  0  0
 22 46  1  0  0  0
 22 47  1  0  0  0
 23 48  1  0  0  0
 24 25  3  0  0  0
 25 49  1  0  0  0
 32 50  1  0  0  0
 33 51  1  0  0  0
 52 56  1  0  0  0
 52 57  1  0  0  0
 53 54  1  0  0  0
 53 55  1  0  0  0
 53 58  1  0  0  0
 53 59  1  0  0  0
 54 56  1  0  0  0
 54 60  1  0  0  0
 54 61  1  0  0  0
 55 62  1  0  0  0
 55 63  1  0  0  0
 56 64  1  0  0  0
 56 65  1  0  0  0
M  CHG  1  53   1
M  END
> <s_m_entry_id>
821

> <s_m_entry_name>
000000663.1

> <s_m_Source_Path>
/Users/zaksoul/Documents/3r_UNI/2nd_SEMESTER/BSC/FRAG_RECON/RESULTS/2

> <s_m_Source_File>
000000663.mol2

> <i_m_Source_File_Index>
1

$$$$
No_0_685
                    3D
 Schrodinger Suite 2022-4.
 64 69  0  0  1  0            999 V2000
   -5.0940    3.6350  -22.1230 C   0  0  0  0  0  0
   -5.3560    3.7750  -23.4650 C   0  0  0  0  0  0
   -3.8580    3.3880  -21.7700 C   0  0  0  0  0  0
   -2.9610    3.4290  -23.9360 C   0  0  0  0  0  0
   -2.8050    3.2370  -22.5070 C   0  0  0  0  0  0
   -4.3050    3.6790  -24.4700 C   0  0  0  0  0  0
   -3.5440    3.6160  -26.6650 C   0  0  0  0  0  0
    6.1670    3.0260  -21.3490 C   0  0  0  0  0  0
    6.0360    3.0740  -23.9030 C   0  0  0  0  0  0
   -4.5520    3.7580  -25.8100 C   0  0  0  0  0  0
    2.2540    3.6410  -23.9510 C   0  0  0  0  0  0
    1.4380    4.7640  -23.6950 C   0  0  0  0  0  0
    3.2410    5.9750  -23.0550 C   0  0  0  0  0  0
    3.6550    3.8360  -23.6410 C   0  0  0  0  0  0
    1.7030    2.5030  -24.5720 C   0  0  0  0  0  0
   -0.4200    3.3310  -24.4970 C   0  0  0  0  0  0
    0.1120    4.5700  -23.9420 C   0  0  0  0  0  0
   -1.8720    3.3320  -24.8560 C   0  0  0  0  0  0
    4.2460    1.3480  -23.2550 C   0  0  0  0  0  0
    5.1750    1.0300  -22.0930 C   0  0  2  0  0  0
    6.7770    2.5410  -22.6820 C   0  0  2  0  0  0
    5.1590    2.0740  -20.9640 C   0  0  0  0  0  0
   -2.1930    3.4400  -26.2890 C   0  0  0  0  0  0
   -1.4640    2.8390  -21.8900 C   0  0  0  0  0  0
   -0.4370    2.5050  -21.3680 C   0  0  0  0  0  0
   -0.7250    5.6320  -23.6390 F   0  0  0  0  0  0
   -3.6530    3.1960  -20.3790 F   0  0  0  0  0  0
    1.9200    5.9400  -23.2060 N   0  0  0  0  0  0
    4.1330    5.0000  -23.2370 N   0  0  0  0  0  0
    0.3970    2.4090  -24.8770 N   0  0  0  0  0  0
    4.5680    2.7780  -23.7770 N   0  0  0  0  0  0
    6.5830    1.0720  -22.5740 N   0  0  1  0  0  0
   -3.7140    3.5800  -28.0550 O   0  0  0  0  0  0
   -5.8976    3.7293  -21.4016 H   0  0  0  0  0  0
   -6.3685    3.9636  -23.8032 H   0  0  0  0  0  0
    5.7018    4.0119  -21.4963 H   0  0  0  0  0  0
    6.9515    3.0613  -20.5787 H   0  0  0  0  0  0
    6.4298    2.5934  -24.8107 H   0  0  0  0  0  0
    6.1843    4.1615  -23.9756 H   0  0  0  0  0  0
   -5.5606    3.9356  -26.1653 H   0  0  0  0  0  0
    2.3384    1.6608  -24.8209 H   0  0  0  0  0  0
    3.2023    1.3096  -22.9098 H   0  0  0  0  0  0
    4.4065    0.6183  -24.0624 H   0  0  0  0  0  0
    4.9440    0.0335  -21.6885 H   0  0  0  0  0  0
    7.8469    2.7911  -22.7354 H   0  0  0  0  0  0
    4.1782    2.5715  -20.9418 H   0  0  0  0  0  0
    5.4546    1.5937  -20.0196 H   0  0  0  0  0  0
   -1.4214    3.3878  -27.0486 H   0  0  0  0  0  0
    0.4680    2.2110  -20.9100 H   0  0  0  0  0  0
    7.2266    0.5973  -21.8481 H   0  0  0  0  0  0
   -2.8685    3.4712  -28.4743 H   0  0  0  0  0  0
    5.7890   10.3130  -20.0090 F   0  0  0  0  0  0
    3.4770    7.6470  -21.2020 N   0  3  0  0  0  0
    3.9140    9.0040  -20.7160 C   0  0  0  0  0  0
    3.8060    7.3280  -22.6350 C   0  0  0  0  0  0
    5.4470    9.1440  -20.6800 C   0  0  0  0  0  0
    2.4844    7.5470  -21.0581 H   0  0  0  0  0  0
    3.8700    6.9370  -20.6040 H   0  0  0  0  0  0
    3.5069    9.1820  -19.7097 H   0  0  0  0  0  0
    3.4921    9.7807  -21.3708 H   0  0  0  0  0  0
    4.8979    7.3250  -22.7680 H   0  0  0  0  0  0
    3.3987    8.1136  -23.2885 H   0  0  0  0  0  0
    5.8809    8.2802  -20.1551 H   0  0  0  0  0  0
    5.8360    9.1840  -21.7081 H   0  0  0  0  0  0
  1  2  2  0  0  0
  1  3  1  0  0  0
  1 34  1  0  0  0
  2  6  1  0  0  0
  2 35  1  0  0  0
  3  5  2  0  0  0
  3 27  1  0  0  0
  4  5  1  0  0  0
  4  6  2  0  0  0
  4 18  1  0  0  0
  5 24  1  0  0  0
  6 10  1  0  0  0
  7 10  2  0  0  0
  7 23  1  0  0  0
  7 33  1  0  0  0
  8 21  1  0  0  0
  8 22  1  0  0  0
  8 36  1  0  0  0
  8 37  1  0  0  0
  9 21  1  0  0  0
  9 31  1  0  0  0
  9 38  1  0  0  0
  9 39  1  0  0  0
 10 40  1  0  0  0
 11 12  1  0  0  0
 11 14  2  0  0  0
 11 15  1  0  0  0
 12 17  1  0  0  0
 12 28  2  0  0  0
 13 28  1  0  0  0
 13 29  2  0  0  0
 13 55  1  0  0  0
 14 29  1  0  0  0
 14 31  1  0  0  0
 15 30  2  0  0  0
 15 41  1  0  0  0
 16 17  2  0  0  0
 16 18  1  0  0  0
 16 30  1  0  0  0
 17 26  1  0  0  0
 18 23  2  0  0  0
 19 20  1  0  0  0
 19 31  1  0  0  0
 19 42  1  0  0  0
 19 43  1  0  0  0
 20 22  1  0  0  0
 20 32  1  0  0  0
 20 44  1  0  0  0
 21 32  1  0  0  0
 21 45  1  0  0  0
 22 46  1  0  0  0
 22 47  1  0  0  0
 23 48  1  0  0  0
 24 25  3  0  0  0
 25 49  1  0  0  0
 32 50  1  0  0  0
 33 51  1  0  0  0
 52 56  1  0  0  0
 53 54  1  0  0  0
 53 55  1  0  0  0
 53 57  1  0  0  0
 53 58  1  0  0  0
 54 56  1  0  0  0
 54 59  1  0  0  0
 54 60  1  0  0  0
 55 61  1  0  0  0
 55 62  1  0  0  0
 56 63  1  0  0  0
 56 64  1  0  0  0
M  CHG  1  53   1
M  END
> <s_m_entry_id>
822

> <s_m_entry_name>
000000664.1

> <s_m_Source_Path>
/Users/zaksoul/Documents/3r_UNI/2nd_SEMESTER/BSC/FRAG_RECON/RESULTS/2

> <s_m_Source_File>
000000664.mol2

> <i_m_Source_File_Index>
1

$$$$
No_0_686
                    3D
 Schrodinger Suite 2022-4.
 64 69  0  0  1  0            999 V2000
   -5.3470    3.5470  -21.7990 C   0  0  0  0  0  0
   -5.6160    3.7450  -23.1320 C   0  0  0  0  0  0
   -4.1090    3.2900  -21.4620 C   0  0  0  0  0  0
   -3.2220    3.4290  -23.6290 C   0  0  0  0  0  0
   -3.0580    3.1750  -22.2100 C   0  0  0  0  0  0
   -4.5700    3.6970  -24.1450 C   0  0  0  0  0  0
   -3.8190    3.7320  -26.3450 C   0  0  0  0  0  0
    5.9200    2.9510  -21.1040 C   0  0  0  0  0  0
    5.7760    3.1100  -23.6520 C   0  0  0  0  0  0
   -4.8240    3.8340  -25.4790 C   0  0  0  0  0  0
    1.9920    3.6630  -23.6580 C   0  0  0  0  0  0
    1.1730    4.7710  -23.3500 C   0  0  0  0  0  0
    2.9740    5.9600  -22.6660 C   0  0  0  0  0  0
    3.3930    3.8500  -23.3470 C   0  0  0  0  0  0
    1.4430    2.5510  -24.3260 C   0  0  0  0  0  0
   -0.6830    3.3660  -24.2050 C   0  0  0  0  0  0
   -0.1540    4.5820  -23.5990 C   0  0  0  0  0  0
   -2.1370    3.3770  -24.5570 C   0  0  0  0  0  0
    3.9960    1.3500  -23.0720 C   0  0  0  0  0  0
    4.9320    0.9850  -21.9300 C   0  0  2  0  0  0
    6.5260    2.5270  -22.4600 C   0  0  2  0  0  0
    4.9180    1.9790  -20.7560 C   0  0  0  0  0  0
   -2.4650    3.5460  -25.9830 C   0  0  0  0  0  0
   -1.7130    2.7560  -21.6170 C   0  0  0  0  0  0
   -0.6820    2.4040  -21.1160 C   0  0  0  0  0  0
   -0.9930    5.6260  -23.2460 F   0  0  0  0  0  0
   -3.8960    3.0380  -20.0820 F   0  0  0  0  0  0
    1.6530    5.9260  -22.8120 N   0  0  0  0  0  0
    3.8690    4.9970  -22.8940 N   0  0  0  0  0  0
    0.1360    2.4650  -24.6290 N   0  0  0  0  0  0
    4.3100    2.8020  -23.5320 N   0  0  0  0  0  0
    6.3380    1.0540  -22.4150 N   0  0  1  0  0  0
   -3.9950    3.7570  -27.7340 O   0  0  0  0  0  0
   -6.1476    3.6062  -21.0706 H   0  0  0  0  0  0
   -6.6310    3.9428  -23.4573 H   0  0  0  0  0  0
    5.4497    3.9401  -21.2059 H   0  0  0  0  0  0
    6.7073    2.9550  -20.3358 H   0  0  0  0  0  0
    6.1677    2.6718  -24.5818 H   0  0  0  0  0  0
    5.9202    4.2002  -23.6782 H   0  0  0  0  0  0
   -5.8347    4.0227  -25.8223 H   0  0  0  0  0  0
    2.0804    1.7229  -24.6141 H   0  0  0  0  0  0
    2.9539    1.2924  -22.7246 H   0  0  0  0  0  0
    4.1554    0.6570  -23.9113 H   0  0  0  0  0  0
    4.7070   -0.0290  -21.5678 H   0  0  0  0  0  0
    7.5947    2.7833  -22.5064 H   0  0  0  0  0  0
    3.9351    2.4705  -20.7076 H   0  0  0  0  0  0
    5.2189    1.4580  -19.8351 H   0  0  0  0  0  0
   -1.6971    3.5309  -26.7479 H   0  0  0  0  0  0
    0.2257    2.0941  -20.6742 H   0  0  0  0  0  0
    6.9862    0.5502  -21.7133 H   0  0  0  0  0  0
   -3.1511    3.6699  -28.1614 H   0  0  0  0  0  0
    6.5890   10.1900  -20.7630 F   0  0  0  0  0  0
    4.5060    7.1160  -21.0520 N   0  3  0  0  0  0
    5.0500    8.3850  -20.4500 C   0  0  0  0  0  0
    3.5360    7.2950  -22.1900 C   0  0  0  0  0  0
    5.9330    9.1670  -21.4390 C   0  0  0  0  0  0
    4.0719    6.5639  -20.3289 H   0  0  0  0  0  0
    5.2726    6.5365  -21.3562 H   0  0  0  0  0  0
    5.6347    8.1421  -19.5505 H   0  0  0  0  0  0
    4.2146    9.0216  -20.1232 H   0  0  0  0  0  0
    4.0429    7.7979  -23.0268 H   0  0  0  0  0  0
    2.7099    7.9461  -21.8680 H   0  0  0  0  0  0
    6.6743    8.4877  -21.8852 H   0  0  0  0  0  0
    5.3034    9.5977  -22.2315 H   0  0  0  0  0  0
  1  2  2  0  0  0
  1  3  1  0  0  0
  1 34  1  0  0  0
  2  6  1  0  0  0
  2 35  1  0  0  0
  3  5  2  0  0  0
  3 27  1  0  0  0
  4  5  1  0  0  0
  4  6  2  0  0  0
  4 18  1  0  0  0
  5 24  1  0  0  0
  6 10  1  0  0  0
  7 10  2  0  0  0
  7 23  1  0  0  0
  7 33  1  0  0  0
  8 21  1  0  0  0
  8 22  1  0  0  0
  8 36  1  0  0  0
  8 37  1  0  0  0
  9 21  1  0  0  0
  9 31  1  0  0  0
  9 38  1  0  0  0
  9 39  1  0  0  0
 10 40  1  0  0  0
 11 12  1  0  0  0
 11 14  2  0  0  0
 11 15  1  0  0  0
 12 17  1  0  0  0
 12 28  2  0  0  0
 13 28  1  0  0  0
 13 29  2  0  0  0
 13 55  1  0  0  0
 14 29  1  0  0  0
 14 31  1  0  0  0
 15 30  2  0  0  0
 15 41  1  0  0  0
 16 17  2  0  0  0
 16 18  1  0  0  0
 16 30  1  0  0  0
 17 26  1  0  0  0
 18 23  2  0  0  0
 19 20  1  0  0  0
 19 31  1  0  0  0
 19 42  1  0  0  0
 19 43  1  0  0  0
 20 22  1  0  0  0
 20 32  1  0  0  0
 20 44  1  0  0  0
 21 32  1  0  0  0
 21 45  1  0  0  0
 22 46  1  0  0  0
 22 47  1  0  0  0
 23 48  1  0  0  0
 24 25  3  0  0  0
 25 49  1  0  0  0
 32 50  1  0  0  0
 33 51  1  0  0  0
 52 56  1  0  0  0
 53 54  1  0  0  0
 53 55  1  0  0  0
 53 57  1  0  0  0
 53 58  1  0  0  0
 54 56  1  0  0  0
 54 59  1  0  0  0
 54 60  1  0  0  0
 55 61  1  0  0  0
 55 62  1  0  0  0
 56 63  1  0  0  0
 56 64  1  0  0  0
M  CHG  1  53   1
M  END
> <s_m_entry_id>
823

> <s_m_entry_name>
000000665.1

> <s_m_Source_Path>
/Users/zaksoul/Documents/3r_UNI/2nd_SEMESTER/BSC/FRAG_RECON/RESULTS/2

> <s_m_Source_File>
000000665.mol2

> <i_m_Source_File_Index>
1

$$$$
No_0_687
                    3D
 Schrodinger Suite 2022-4.
 64 69  0  0  1  0            999 V2000
   -5.2870    3.4180  -22.1210 C   0  0  0  0  0  0
   -5.5370    3.6400  -23.4540 C   0  0  0  0  0  0
   -4.0570    3.1330  -21.7750 C   0  0  0  0  0  0
   -3.1440    3.2880  -23.9290 C   0  0  0  0  0  0
   -3.0010    3.0100  -22.5130 C   0  0  0  0  0  0
   -4.4810    3.5880  -24.4560 C   0  0  0  0  0  0
   -3.7050    3.6410  -26.6470 C   0  0  0  0  0  0
    5.9590    2.6030  -21.3130 C   0  0  0  0  0  0
    5.8460    2.8020  -23.8600 C   0  0  0  0  0  0
   -4.7170    3.7480  -25.7910 C   0  0  0  0  0  0
    2.0730    3.4250  -23.8990 C   0  0  0  0  0  0
    1.2720    4.5430  -23.5830 C   0  0  0  0  0  0
    3.0870    5.6880  -22.8620 C   0  0  0  0  0  0
    3.4740    3.5820  -23.5690 C   0  0  0  0  0  0
    1.5110    2.3330  -24.5890 C   0  0  0  0  0  0
   -0.6000    3.1860  -24.4790 C   0  0  0  0  0  0
   -0.0550    4.3830  -23.8500 C   0  0  0  0  0  0
   -2.0500    3.2280  -24.8460 C   0  0  0  0  0  0
    4.0280    1.0670  -23.3260 C   0  0  0  0  0  0
    4.9440    0.6680  -22.1790 C   0  0  2  0  0  0
    6.5720    2.1880  -22.6680 C   0  0  2  0  0  0
    4.9350    1.6450  -20.9910 C   0  0  0  0  0  0
   -2.3590    3.4250  -26.2730 C   0  0  0  0  0  0
   -1.6700    2.5570  -21.9120 C   0  0  0  0  0  0
   -0.6510    2.1790  -21.4040 C   0  0  0  0  0  0
   -0.8800    5.4370  -23.4900 F   0  0  0  0  0  0
   -3.8640    2.8570  -20.3960 F   0  0  0  0  0  0
    1.7660    5.6810  -23.0230 N   0  0  0  0  0  0
    3.9660    4.7130  -23.0950 N   0  0  0  0  0  0
    0.2060    2.2760  -24.9070 N   0  0  0  0  0  0
    4.3730    2.5200  -23.7610 N   0  0  0  0  0  0
    6.3560    0.7180  -22.6480 N   0  0  1  0  0  0
   -3.8650    3.6890  -28.0370 O   0  0  0  0  0  0
   -6.0941    3.4812  -21.4002 H   0  0  0  0  0  0
   -6.5444    3.8618  -23.7871 H   0  0  0  0  0  0
    5.5088    3.6023  -21.4059 H   0  0  0  0  0  0
    6.7382    2.5818  -20.5368 H   0  0  0  0  0  0
    6.2406    2.3701  -24.7915 H   0  0  0  0  0  0
    6.0105    3.8896  -23.8681 H   0  0  0  0  0  0
   -5.7206    3.9608  -26.1412 H   0  0  0  0  0  0
    2.1364    1.4978  -24.8831 H   0  0  0  0  0  0
    2.9812    1.0236  -22.9909 H   0  0  0  0  0  0
    4.1844    0.3837  -24.1738 H   0  0  0  0  0  0
    4.6968   -0.3468  -21.8340 H   0  0  0  0  0  0
    7.6457    2.4251  -22.7003 H   0  0  0  0  0  0
    3.9608    2.1538  -20.9456 H   0  0  0  0  0  0
    5.2165    1.1052  -20.0748 H   0  0  0  0  0  0
   -1.5831    3.4059  -27.0298 H   0  0  0  0  0  0
    0.2460    1.8450  -20.9580 H   0  0  0  0  0  0
    6.9875    0.1923  -21.9471 H   0  0  0  0  0  0
   -3.0185    3.5931  -28.4573 H   0  0  0  0  0  0
    6.7980    9.9960  -21.3590 F   0  0  0  0  0  0
    4.9120    6.7880  -21.5420 N   0  3  0  0  0  0
    5.5140    8.0240  -20.9240 C   0  0  0  0  0  0
    3.6680    7.0060  -22.3610 C   0  0  0  0  0  0
    6.0530    9.0020  -21.9840 C   0  0  0  0  0  0
    4.7199    6.1138  -20.8177 H   0  0  0  0  0  0
    5.6070    6.3280  -22.1090 H   0  0  0  0  0  0
    6.3297    7.7338  -20.2454 H   0  0  0  0  0  0
    4.7554    8.5318  -20.3103 H   0  0  0  0  0  0
    3.9030    7.6530  -23.2190 H   0  0  0  0  0  0
    2.9163    7.5298  -21.7522 H   0  0  0  0  0  0
    6.6921    8.4569  -22.6942 H   0  0  0  0  0  0
    5.2103    9.4598  -22.5228 H   0  0  0  0  0  0
  1  2  2  0  0  0
  1  3  1  0  0  0
  1 34  1  0  0  0
  2  6  1  0  0  0
  2 35  1  0  0  0
  3  5  2  0  0  0
  3 27  1  0  0  0
  4  5  1  0  0  0
  4  6  2  0  0  0
  4 18  1  0  0  0
  5 24  1  0  0  0
  6 10  1  0  0  0
  7 10  2  0  0  0
  7 23  1  0  0  0
  7 33  1  0  0  0
  8 21  1  0  0  0
  8 22  1  0  0  0
  8 36  1  0  0  0
  8 37  1  0  0  0
  9 21  1  0  0  0
  9 31  1  0  0  0
  9 38  1  0  0  0
  9 39  1  0  0  0
 10 40  1  0  0  0
 11 12  1  0  0  0
 11 14  2  0  0  0
 11 15  1  0  0  0
 12 17  1  0  0  0
 12 28  2  0  0  0
 13 28  1  0  0  0
 13 29  2  0  0  0
 13 55  1  0  0  0
 14 29  1  0  0  0
 14 31  1  0  0  0
 15 30  2  0  0  0
 15 41  1  0  0  0
 16 17  2  0  0  0
 16 18  1  0  0  0
 16 30  1  0  0  0
 17 26  1  0  0  0
 18 23  2  0  0  0
 19 20  1  0  0  0
 19 31  1  0  0  0
 19 42  1  0  0  0
 19 43  1  0  0  0
 20 22  1  0  0  0
 20 32  1  0  0  0
 20 44  1  0  0  0
 21 32  1  0  0  0
 21 45  1  0  0  0
 22 46  1  0  0  0
 22 47  1  0  0  0
 23 48  1  0  0  0
 24 25  3  0  0  0
 25 49  1  0  0  0
 32 50  1  0  0  0
 33 51  1  0  0  0
 52 56  1  0  0  0
 53 54  1  0  0  0
 53 55  1  0  0  0
 53 57  1  0  0  0
 53 58  1  0  0  0
 54 56  1  0  0  0
 54 59  1  0  0  0
 54 60  1  0  0  0
 55 61  1  0  0  0
 55 62  1  0  0  0
 56 63  1  0  0  0
 56 64  1  0  0  0
M  CHG  1  53   1
M  END
> <s_m_entry_id>
824

> <s_m_entry_name>
000000666.1

> <s_m_Source_Path>
/Users/zaksoul/Documents/3r_UNI/2nd_SEMESTER/BSC/FRAG_RECON/RESULTS/2

> <s_m_Source_File>
000000666.mol2

> <i_m_Source_File_Index>
1

$$$$
No_0_688
                    3D
 Schrodinger Suite 2022-4.
 64 69  0  0  1  0            999 V2000
   -5.1810    3.6090  -21.8530 C   0  0  0  0  0  0
   -5.4520    3.8050  -23.1860 C   0  0  0  0  0  0
   -3.9420    3.3510  -21.5190 C   0  0  0  0  0  0
   -3.0590    3.4860  -23.6870 C   0  0  0  0  0  0
   -2.8930    3.2340  -22.2690 C   0  0  0  0  0  0
   -4.4090    3.7540  -24.2010 C   0  0  0  0  0  0
   -3.6630    3.7850  -26.4030 C   0  0  0  0  0  0
    6.0870    3.0010  -21.1820 C   0  0  0  0  0  0
    5.9380    3.1560  -23.7310 C   0  0  0  0  0  0
   -4.6650    3.8890  -25.5350 C   0  0  0  0  0  0
    2.1540    3.7130  -23.7290 C   0  0  0  0  0  0
    1.3370    4.8230  -23.4210 C   0  0  0  0  0  0
    3.1410    6.0110  -22.7430 C   0  0  0  0  0  0
    3.5570    3.8990  -23.4210 C   0  0  0  0  0  0
    1.6030    2.6010  -24.3930 C   0  0  0  0  0  0
   -0.5220    3.4190  -24.2700 C   0  0  0  0  0  0
    0.0100    4.6350  -23.6670 C   0  0  0  0  0  0
   -1.9770    3.4300  -24.6180 C   0  0  0  0  0  0
    4.1570    1.3990  -23.1440 C   0  0  0  0  0  0
    5.0950    1.0350  -22.0030 C   0  0  2  0  0  0
    6.6890    2.5740  -22.5390 C   0  0  2  0  0  0
    5.0840    2.0310  -20.8310 C   0  0  0  0  0  0
   -2.3080    3.5970  -26.0440 C   0  0  0  0  0  0
   -1.5470    2.8150  -21.6780 C   0  0  0  0  0  0
   -0.5150    2.4620  -21.1780 C   0  0  0  0  0  0
   -0.8280    5.6800  -23.3140 F   0  0  0  0  0  0
   -3.7260    3.1020  -20.1390 F   0  0  0  0  0  0
    1.8200    5.9780  -22.8860 N   0  0  0  0  0  0
    4.0350    5.0470  -22.9720 N   0  0  0  0  0  0
    0.2950    2.5160  -24.6930 N   0  0  0  0  0  0
    4.4710    2.8500  -23.6070 N   0  0  0  0  0  0
    6.5000    1.1010  -22.4910 N   0  0  1  0  0  0
   -3.8410    3.8060  -27.7920 O   0  0  0  0  0  0
   -5.9796    3.6712  -21.1226 H   0  0  0  0  0  0
   -6.4675    4.0037  -23.5091 H   0  0  0  0  0  0
    5.6179    3.9906  -21.2849 H   0  0  0  0  0  0
    6.8763    3.0060  -20.4159 H   0  0  0  0  0  0
    6.3275    2.7150  -24.6604 H   0  0  0  0  0  0
    6.0833    4.2460  -23.7593 H   0  0  0  0  0  0
   -5.6765    4.0776  -25.8762 H   0  0  0  0  0  0
    2.2385    1.7718  -24.6821 H   0  0  0  0  0  0
    3.1157    1.3435  -22.7939 H   0  0  0  0  0  0
    4.3144    0.7047  -23.9826 H   0  0  0  0  0  0
    4.8700    0.0218  -21.6387 H   0  0  0  0  0  0
    7.7578    2.8293  -22.5885 H   0  0  0  0  0  0
    4.1018    2.5236  -20.7805 H   0  0  0  0  0  0
    5.3877    1.5123  -19.9097 H   0  0  0  0  0  0
   -1.5411    3.5789  -26.8099 H   0  0  0  0  0  0
    0.3934    2.1519  -20.7378 H   0  0  0  0  0  0
    7.1492    0.5983  -21.7894 H   0  0  0  0  0  0
   -2.9984    3.7179  -28.2217 H   0  0  0  0  0  0
    6.2310   11.0010  -22.3680 F   0  0  0  0  0  0
    5.1950    7.4240  -22.4780 N   0  3  0  0  0  0
    5.8640    8.6710  -21.9610 C   0  0  0  0  0  0
    3.7060    7.3460  -22.2710 C   0  0  0  0  0  0
    5.4160    9.9310  -22.7240 C   0  0  0  0  0  0
    5.6320    6.6160  -22.0630 H   0  0  0  0  0  0
    5.4008    7.3191  -23.4592 H   0  0  0  0  0  0
    6.9555    8.5619  -22.0430 H   0  0  0  0  0  0
    5.6361    8.7909  -20.8916 H   0  0  0  0  0  0
    3.2170    8.1649  -22.8190 H   0  0  0  0  0  0
    3.4780    7.4840  -21.2038 H   0  0  0  0  0  0
    5.4990    9.7529  -23.8063 H   0  0  0  0  0  0
    4.3722   10.1642  -22.4668 H   0  0  0  0  0  0
  1  2  2  0  0  0
  1  3  1  0  0  0
  1 34  1  0  0  0
  2  6  1  0  0  0
  2 35  1  0  0  0
  3  5  2  0  0  0
  3 27  1  0  0  0
  4  5  1  0  0  0
  4  6  2  0  0  0
  4 18  1  0  0  0
  5 24  1  0  0  0
  6 10  1  0  0  0
  7 10  2  0  0  0
  7 23  1  0  0  0
  7 33  1  0  0  0
  8 21  1  0  0  0
  8 22  1  0  0  0
  8 36  1  0  0  0
  8 37  1  0  0  0
  9 21  1  0  0  0
  9 31  1  0  0  0
  9 38  1  0  0  0
  9 39  1  0  0  0
 10 40  1  0  0  0
 11 12  1  0  0  0
 11 14  2  0  0  0
 11 15  1  0  0  0
 12 17  1  0  0  0
 12 28  2  0  0  0
 13 28  1  0  0  0
 13 29  2  0  0  0
 13 55  1  0  0  0
 14 29  1  0  0  0
 14 31  1  0  0  0
 15 30  2  0  0  0
 15 41  1  0  0  0
 16 17  2  0  0  0
 16 18  1  0  0  0
 16 30  1  0  0  0
 17 26  1  0  0  0
 18 23  2  0  0  0
 19 20  1  0  0  0
 19 31  1  0  0  0
 19 42  1  0  0  0
 19 43  1  0  0  0
 20 22  1  0  0  0
 20 32  1  0  0  0
 20 44  1  0  0  0
 21 32  1  0  0  0
 21 45  1  0  0  0
 22 46  1  0  0  0
 22 47  1  0  0  0
 23 48  1  0  0  0
 24 25  3  0  0  0
 25 49  1  0  0  0
 32 50  1  0  0  0
 33 51  1  0  0  0
 52 56  1  0  0  0
 53 54  1  0  0  0
 53 55  1  0  0  0
 53 57  1  0  0  0
 53 58  1  0  0  0
 54 56  1  0  0  0
 54 59  1  0  0  0
 54 60  1  0  0  0
 55 61  1  0  0  0
 55 62  1  0  0  0
 56 63  1  0  0  0
 56 64  1  0  0  0
M  CHG  1  53   1
M  END
> <s_m_entry_id>
825

> <s_m_entry_name>
000000667.1

> <s_m_Source_Path>
/Users/zaksoul/Documents/3r_UNI/2nd_SEMESTER/BSC/FRAG_RECON/RESULTS/2

> <s_m_Source_File>
000000667.mol2

> <i_m_Source_File_Index>
1

$$$$
No_0_689
                    3D
 Schrodinger Suite 2022-4.
 64 69  0  0  1  0            999 V2000
   -5.1840    3.5060  -21.8890 C   0  0  0  0  0  0
   -5.4350    3.7380  -23.2200 C   0  0  0  0  0  0
   -3.9480    3.2530  -21.5410 C   0  0  0  0  0  0
   -3.0300    3.4610  -23.6890 C   0  0  0  0  0  0
   -2.8850    3.1700  -22.2760 C   0  0  0  0  0  0
   -4.3730    3.7300  -24.2180 C   0  0  0  0  0  0
   -3.5910    3.8340  -26.4040 C   0  0  0  0  0  0
    6.0780    3.0070  -21.0420 C   0  0  0  0  0  0
    5.9700    3.2360  -23.5860 C   0  0  0  0  0  0
   -4.6090    3.9010  -25.5520 C   0  0  0  0  0  0
    2.1810    3.7490  -23.6340 C   0  0  0  0  0  0
    1.3450    4.8400  -23.3080 C   0  0  0  0  0  0
    3.1230    6.0270  -22.5640 C   0  0  0  0  0  0
    3.5750    3.9420  -23.2960 C   0  0  0  0  0  0
    1.6530    2.6510  -24.3400 C   0  0  0  0  0  0
   -0.4830    3.4410  -24.2290 C   0  0  0  0  0  0
    0.0250    4.6440  -23.5820 C   0  0  0  0  0  0
   -1.9310    3.4460  -24.6020 C   0  0  0  0  0  0
    4.2010    1.4410  -23.0820 C   0  0  0  0  0  0
    5.1230    1.0550  -21.9370 C   0  0  2  0  0  0
    6.7080    2.6270  -22.4000 C   0  0  2  0  0  0
    5.0810    2.0150  -20.7360 C   0  0  0  0  0  0
   -2.2400    3.6510  -26.0280 C   0  0  0  0  0  0
   -1.5450    2.7480  -21.6740 C   0  0  0  0  0  0
   -0.5170    2.3930  -21.1680 C   0  0  0  0  0  0
   -0.8310    5.6690  -23.2130 F   0  0  0  0  0  0
   -3.7520    2.9650  -20.1650 F   0  0  0  0  0  0
    1.8050    5.9840  -22.7300 N   0  0  0  0  0  0
    4.0320    5.0810  -22.8050 N   0  0  0  0  0  0
    0.3520    2.5600  -24.6650 N   0  0  0  0  0  0
    4.5050    2.9090  -23.4970 N   0  0  0  0  0  0
    6.5350    1.1510  -22.3980 N   0  0  1  0  0  0
   -3.7460    3.8950  -27.7950 O   0  0  0  0  0  0
   -5.9950    3.5371  -21.1704 H   0  0  0  0  0  0
   -6.4470    3.9358  -23.5543 H   0  0  0  0  0  0
    5.5988    3.9937  -21.1237 H   0  0  0  0  0  0
    6.8543    2.9979  -20.2627 H   0  0  0  0  0  0
    6.3796    2.8264  -24.5212 H   0  0  0  0  0  0
    6.1033    4.3279  -23.5799 H   0  0  0  0  0  0
   -5.6168    4.0887  -25.9043 H   0  0  0  0  0  0
    2.3033    1.8381  -24.6421 H   0  0  0  0  0  0
    3.1543    1.3633  -22.7529 H   0  0  0  0  0  0
    4.3796    0.7742  -23.9384 H   0  0  0  0  0  0
    4.9041    0.0290  -21.6061 H   0  0  0  0  0  0
    7.7745    2.8954  -22.4232 H   0  0  0  0  0  0
    4.0925    2.4951  -20.6886 H   0  0  0  0  0  0
    5.3747    1.4720  -19.8256 H   0  0  0  0  0  0
   -1.4606    3.6651  -26.7813 H   0  0  0  0  0  0
    0.3871    2.0800  -20.7210 H   0  0  0  0  0  0
    7.1785    0.6347  -21.7010 H   0  0  0  0  0  0
   -2.8954    3.8287  -28.2129 H   0  0  0  0  0  0
    5.6440   11.3280  -22.2040 F   0  0  0  0  0  0
    5.0010    7.6870  -22.6500 N   0  3  0  0  0  0
    5.6630    8.9370  -22.1310 C   0  0  0  0  0  0
    3.6640    7.3550  -22.0430 C   0  0  0  0  0  0
    4.8750   10.2080  -22.4980 C   0  0  0  0  0  0
    5.6246    6.9045  -22.5281 H   0  0  0  0  0  0
    4.9050    7.7520  -23.6513 H   0  0  0  0  0  0
    6.6817    9.0080  -22.5399 H   0  0  0  0  0  0
    5.7640    8.8710  -21.0376 H   0  0  0  0  0  0
    2.9476    8.1574  -22.2731 H   0  0  0  0  0  0
    3.7610    7.3060  -20.9484 H   0  0  0  0  0  0
    4.6399   10.1960  -23.5725 H   0  0  0  0  0  0
    3.9426   10.2410  -21.9154 H   0  0  0  0  0  0
  1  2  2  0  0  0
  1  3  1  0  0  0
  1 34  1  0  0  0
  2  6  1  0  0  0
  2 35  1  0  0  0
  3  5  2  0  0  0
  3 27  1  0  0  0
  4  5  1  0  0  0
  4  6  2  0  0  0
  4 18  1  0  0  0
  5 24  1  0  0  0
  6 10  1  0  0  0
  7 10  2  0  0  0
  7 23  1  0  0  0
  7 33  1  0  0  0
  8 21  1  0  0  0
  8 22  1  0  0  0
  8 36  1  0  0  0
  8 37  1  0  0  0
  9 21  1  0  0  0
  9 31  1  0  0  0
  9 38  1  0  0  0
  9 39  1  0  0  0
 10 40  1  0  0  0
 11 12  1  0  0  0
 11 14  2  0  0  0
 11 15  1  0  0  0
 12 17  1  0  0  0
 12 28  2  0  0  0
 13 28  1  0  0  0
 13 29  2  0  0  0
 13 55  1  0  0  0
 14 29  1  0  0  0
 14 31  1  0  0  0
 15 30  2  0  0  0
 15 41  1  0  0  0
 16 17  2  0  0  0
 16 18  1  0  0  0
 16 30  1  0  0  0
 17 26  1  0  0  0
 18 23  2  0  0  0
 19 20  1  0  0  0
 19 31  1  0  0  0
 19 42  1  0  0  0
 19 43  1  0  0  0
 20 22  1  0  0  0
 20 32  1  0  0  0
 20 44  1  0  0  0
 21 32  1  0  0  0
 21 45  1  0  0  0
 22 46  1  0  0  0
 22 47  1  0  0  0
 23 48  1  0  0  0
 24 25  3  0  0  0
 25 49  1  0  0  0
 32 50  1  0  0  0
 33 51  1  0  0  0
 52 56  1  0  0  0
 53 54  1  0  0  0
 53 55  1  0  0  0
 53 57  1  0  0  0
 53 58  1  0  0  0
 54 56  1  0  0  0
 54 59  1  0  0  0
 54 60  1  0  0  0
 55 61  1  0  0  0
 55 62  1  0  0  0
 56 63  1  0  0  0
 56 64  1  0  0  0
M  CHG  1  53   1
M  END
> <s_m_entry_id>
826

> <s_m_entry_name>
000000668.1

> <s_m_Source_Path>
/Users/zaksoul/Documents/3r_UNI/2nd_SEMESTER/BSC/FRAG_RECON/RESULTS/2

> <s_m_Source_File>
000000668.mol2

> <i_m_Source_File_Index>
1

$$$$
No_0_690
                    3D
 Schrodinger Suite 2022-4.
 64 69  0  0  1  0            999 V2000
   -5.1700    3.7100  -22.1530 C   0  0  0  0  0  0
   -5.4050    3.9040  -23.4940 C   0  0  0  0  0  0
   -3.9380    3.4680  -21.7830 C   0  0  0  0  0  0
   -2.9950    3.6160  -23.9260 C   0  0  0  0  0  0
   -2.8670    3.3650  -22.5030 C   0  0  0  0  0  0
   -4.3320    3.8680  -24.4780 C   0  0  0  0  0  0
   -3.5240    3.9100  -26.6570 C   0  0  0  0  0  0
    6.0800    3.2460  -21.1580 C   0  0  0  0  0  0
    6.0030    3.4020  -23.7100 C   0  0  0  0  0  0
   -4.5520    4.0000  -25.8190 C   0  0  0  0  0  0
    2.2140    3.9100  -23.8170 C   0  0  0  0  0  0
    1.3750    5.0090  -23.5320 C   0  0  0  0  0  0
    3.1430    6.2190  -22.8020 C   0  0  0  0  0  0
    3.6040    4.1140  -23.4680 C   0  0  0  0  0  0
    1.6960    2.7920  -24.4970 C   0  0  0  0  0  0
   -0.4420    3.5820  -24.4350 C   0  0  0  0  0  0
    0.0570    4.8040  -23.8160 C   0  0  0  0  0  0
   -1.8860    3.5750  -24.8250 C   0  0  0  0  0  0
    4.2290    1.6210  -23.1750 C   0  0  0  0  0  0
    5.1380    1.2680  -22.0080 C   0  0  2  0  0  0
    6.7270    2.8280  -22.4970 C   0  0  2  0  0  0
    5.0810    2.2630  -20.8360 C   0  0  0  0  0  0
   -2.1780    3.7390  -26.2590 C   0  0  0  0  0  0
   -1.5330    2.9620  -21.8740 C   0  0  0  0  0  0
   -0.5120    2.6220  -21.3450 C   0  0  0  0  0  0
   -0.8040    5.8390  -23.4870 F   0  0  0  0  0  0
   -3.7590    3.2200  -20.3980 F   0  0  0  0  0  0
    1.8260    6.1690  -22.9820 N   0  0  0  0  0  0
    4.0540    5.2670  -23.0050 N   0  0  0  0  0  0
    0.3990    2.6900  -24.8350 N   0  0  0  0  0  0
    4.5380    3.0770  -23.6290 N   0  0  0  0  0  0
    6.5550    1.3530  -22.4560 N   0  0  1  0  0  0
   -3.6630    3.9310  -28.0510 O   0  0  0  0  0  0
   -5.9903    3.7612  -21.4462 H   0  0  0  0  0  0
   -6.4131    4.0906  -23.8461 H   0  0  0  0  0  0
    5.6017    4.2298  -21.2740 H   0  0  0  0  0  0
    6.8471    3.2601  -20.3697 H   0  0  0  0  0  0
    6.4251    2.9668  -24.6279 H   0  0  0  0  0  0
    6.1353    4.4938  -23.7332 H   0  0  0  0  0  0
   -5.5557    4.1767  -26.1884 H   0  0  0  0  0  0
    2.3502    1.9712  -24.7679 H   0  0  0  0  0  0
    3.1785    1.5514  -22.8561 H   0  0  0  0  0  0
    4.4187    0.9298  -24.0094 H   0  0  0  0  0  0
    4.9150    0.2518  -21.6508 H   0  0  0  0  0  0
    7.7936    3.0964  -22.5162 H   0  0  0  0  0  0
    4.0912    2.7423  -20.8138 H   0  0  0  0  0  0
    5.3635    1.7465  -19.9068 H   0  0  0  0  0  0
   -1.3898    3.7320  -27.0031 H   0  0  0  0  0  0
    0.3872    2.3229  -20.8789 H   0  0  0  0  0  0
    7.1902    0.8579  -21.7364 H   0  0  0  0  0  0
   -2.8070    3.8538  -28.4557 H   0  0  0  0  0  0
    3.6830   11.9310  -21.5110 F   0  0  0  0  0  0
    3.3650    8.6700  -23.2820 N   0  3  0  0  0  0
    3.9290   10.0230  -22.9330 C   0  0  0  0  0  0
    3.6770    7.5610  -22.3120 C   0  0  0  0  0  0
    3.3050   10.6000  -21.6500 C   0  0  0  0  0  0
    3.6800    8.4050  -24.2021 H   0  0  0  0  0  0
    2.3659    8.7440  -23.3930 H   0  0  0  0  0  0
    3.7569   10.7174  -23.7685 H   0  0  0  0  0  0
    5.0187    9.9430  -22.8060 H   0  0  0  0  0  0
    3.2340    7.7960  -21.3330 H   0  0  0  0  0  0
    4.7659    7.4929  -22.1719 H   0  0  0  0  0  0
    2.2088   10.5360  -21.7150 H   0  0  0  0  0  0
    3.6570   10.0261  -20.7801 H   0  0  0  0  0  0
  1  2  2  0  0  0
  1  3  1  0  0  0
  1 34  1  0  0  0
  2  6  1  0  0  0
  2 35  1  0  0  0
  3  5  2  0  0  0
  3 27  1  0  0  0
  4  5  1  0  0  0
  4  6  2  0  0  0
  4 18  1  0  0  0
  5 24  1  0  0  0
  6 10  1  0  0  0
  7 10  2  0  0  0
  7 23  1  0  0  0
  7 33  1  0  0  0
  8 21  1  0  0  0
  8 22  1  0  0  0
  8 36  1  0  0  0
  8 37  1  0  0  0
  9 21  1  0  0  0
  9 31  1  0  0  0
  9 38  1  0  0  0
  9 39  1  0  0  0
 10 40  1  0  0  0
 11 12  1  0  0  0
 11 14  2  0  0  0
 11 15  1  0  0  0
 12 17  1  0  0  0
 12 28  2  0  0  0
 13 28  1  0  0  0
 13 29  2  0  0  0
 13 55  1  0  0  0
 14 29  1  0  0  0
 14 31  1  0  0  0
 15 30  2  0  0  0
 15 41  1  0  0  0
 16 17  2  0  0  0
 16 18  1  0  0  0
 16 30  1  0  0  0
 17 26  1  0  0  0
 18 23  2  0  0  0
 19 20  1  0  0  0
 19 31  1  0  0  0
 19 42  1  0  0  0
 19 43  1  0  0  0
 20 22  1  0  0  0
 20 32  1  0  0  0
 20 44  1  0  0  0
 21 32  1  0  0  0
 21 45  1  0  0  0
 22 46  1  0  0  0
 22 47  1  0  0  0
 23 48  1  0  0  0
 24 25  3  0  0  0
 25 49  1  0  0  0
 32 50  1  0  0  0
 33 51  1  0  0  0
 52 56  1  0  0  0
 53 54  1  0  0  0
 53 55  1  0  0  0
 53 57  1  0  0  0
 53 58  1  0  0  0
 54 56  1  0  0  0
 54 59  1  0  0  0
 54 60  1  0  0  0
 55 61  1  0  0  0
 55 62  1  0  0  0
 56 63  1  0  0  0
 56 64  1  0  0  0
M  CHG  1  53   1
M  END
> <s_m_entry_id>
827

> <s_m_entry_name>
000000669.1

> <s_m_Source_Path>
/Users/zaksoul/Documents/3r_UNI/2nd_SEMESTER/BSC/FRAG_RECON/RESULTS/2

> <s_m_Source_File>
000000669.mol2

> <i_m_Source_File_Index>
1

$$$$
No_0_691
                    3D
 Schrodinger Suite 2022-4.
 64 69  0  0  1  0            999 V2000
   -4.9640    3.5910  -21.9470 C   0  0  0  0  0  0
   -5.2300    3.7830  -23.2820 C   0  0  0  0  0  0
   -3.7250    3.3400  -21.6060 C   0  0  0  0  0  0
   -2.8330    3.4740  -23.7710 C   0  0  0  0  0  0
   -2.6720    3.2260  -22.3510 C   0  0  0  0  0  0
   -4.1810    3.7350  -24.2920 C   0  0  0  0  0  0
   -3.4250    3.7650  -26.4900 C   0  0  0  0  0  0
    6.3040    3.0390  -21.2230 C   0  0  0  0  0  0
    6.1660    3.1880  -23.7720 C   0  0  0  0  0  0
   -4.4320    3.8660  -25.6270 C   0  0  0  0  0  0
    2.3800    3.7270  -23.7890 C   0  0  0  0  0  0
    1.5560    4.8330  -23.4870 C   0  0  0  0  0  0
    3.3510    6.0310  -22.8030 C   0  0  0  0  0  0
    3.7800    3.9200  -23.4750 C   0  0  0  0  0  0
    1.8360    2.6110  -24.4530 C   0  0  0  0  0  0
   -0.2930    3.4180  -24.3410 C   0  0  0  0  0  0
    0.2310    4.6380  -23.7390 C   0  0  0  0  0  0
   -1.7460    3.4220  -24.6960 C   0  0  0  0  0  0
    4.3910    1.4230  -23.1900 C   0  0  0  0  0  0
    5.3250    1.0660  -22.0440 C   0  0  2  0  0  0
    6.9150    2.6130  -22.5750 C   0  0  2  0  0  0
    5.3040    2.0650  -20.8740 C   0  0  0  0  0  0
   -2.0710    3.5850  -26.1240 C   0  0  0  0  0  0
   -1.3270    2.8140  -21.7530 C   0  0  0  0  0  0
   -0.2960    2.4680  -21.2480 C   0  0  0  0  0  0
   -0.6140    5.6800  -23.3920 F   0  0  0  0  0  0
   -3.5140    3.0940  -20.2250 F   0  0  0  0  0  0
    2.0300    5.9920  -22.9520 N   0  0  0  0  0  0
    4.2500    5.0710  -23.0260 N   0  0  0  0  0  0
    0.5300    2.5190  -24.7590 N   0  0  0  0  0  0
    4.7000    2.8750  -23.6540 N   0  0  0  0  0  0
    6.7320    1.1380  -22.5250 N   0  0  1  0  0  0
   -3.5970    3.7830  -27.8790 O   0  0  0  0  0  0
   -5.7661    3.6502  -21.2202 H   0  0  0  0  0  0
   -6.2450    3.9758  -23.6103 H   0  0  0  0  0  0
    5.8306    4.0261  -21.3300 H   0  0  0  0  0  0
    7.0898    3.0491  -20.4533 H   0  0  0  0  0  0
    6.5617    2.7469  -24.6987 H   0  0  0  0  0  0
    6.3062    4.2786  -23.8013 H   0  0  0  0  0  0
   -5.4428    4.0487  -25.9733 H   0  0  0  0  0  0
    2.4771    1.7843  -24.7369 H   0  0  0  0  0  0
    3.3483    1.3634  -22.8448 H   0  0  0  0  0  0
    4.5556    0.7273  -24.0260 H   0  0  0  0  0  0
    5.1029    0.0525  -21.6786 H   0  0  0  0  0  0
    7.9830    2.8724  -22.6214 H   0  0  0  0  0  0
    4.3191    2.5529  -20.8296 H   0  0  0  0  0  0
    5.6056    1.5496  -19.9502 H   0  0  0  0  0  0
   -1.3011    3.5689  -26.8869 H   0  0  0  0  0  0
    0.6118    2.1631  -20.8031 H   0  0  0  0  0  0
    7.3805    0.6394  -21.8198 H   0  0  0  0  0  0
   -2.7519    3.6979  -28.3045 H   0  0  0  0  0  0
    3.8340   11.6210  -21.0430 F   0  0  0  0  0  0
    3.2390    8.5260  -23.0270 N   0  3  0  0  0  0
    3.7810    9.8920  -22.6960 C   0  0  0  0  0  0
    3.9070    7.3700  -22.3310 C   0  0  0  0  0  0
    3.5300   10.2770  -21.2260 C   0  0  0  0  0  0
    3.2820    8.3840  -24.0240 H   0  0  0  0  0  0
    2.2499    8.5040  -22.8340 H   0  0  0  0  0  0
    3.3160   10.6400  -23.3550 H   0  0  0  0  0  0
    4.8617    9.9160  -22.8999 H   0  0  0  0  0  0
    3.7620    7.4640  -21.2447 H   0  0  0  0  0  0
    4.9897    7.4050  -22.5220 H   0  0  0  0  0  0
    2.4723   10.1041  -20.9781 H   0  0  0  0  0  0
    4.1682    9.6648  -20.5718 H   0  0  0  0  0  0
  1  2  2  0  0  0
  1  3  1  0  0  0
  1 34  1  0  0  0
  2  6  1  0  0  0
  2 35  1  0  0  0
  3  5  2  0  0  0
  3 27  1  0  0  0
  4  5  1  0  0  0
  4  6  2  0  0  0
  4 18  1  0  0  0
  5 24  1  0  0  0
  6 10  1  0  0  0
  7 10  2  0  0  0
  7 23  1  0  0  0
  7 33  1  0  0  0
  8 21  1  0  0  0
  8 22  1  0  0  0
  8 36  1  0  0  0
  8 37  1  0  0  0
  9 21  1  0  0  0
  9 31  1  0  0  0
  9 38  1  0  0  0
  9 39  1  0  0  0
 10 40  1  0  0  0
 11 12  1  0  0  0
 11 14  2  0  0  0
 11 15  1  0  0  0
 12 17  1  0  0  0
 12 28  2  0  0  0
 13 28  1  0  0  0
 13 29  2  0  0  0
 13 55  1  0  0  0
 14 29  1  0  0  0
 14 31  1  0  0  0
 15 30  2  0  0  0
 15 41  1  0  0  0
 16 17  2  0  0  0
 16 18  1  0  0  0
 16 30  1  0  0  0
 17 26  1  0  0  0
 18 23  2  0  0  0
 19 20  1  0  0  0
 19 31  1  0  0  0
 19 42  1  0  0  0
 19 43  1  0  0  0
 20 22  1  0  0  0
 20 32  1  0  0  0
 20 44  1  0  0  0
 21 32  1  0  0  0
 21 45  1  0  0  0
 22 46  1  0  0  0
 22 47  1  0  0  0
 23 48  1  0  0  0
 24 25  3  0  0  0
 25 49  1  0  0  0
 32 50  1  0  0  0
 33 51  1  0  0  0
 52 56  1  0  0  0
 53 54  1  0  0  0
 53 55  1  0  0  0
 53 57  1  0  0  0
 53 58  1  0  0  0
 54 56  1  0  0  0
 54 59  1  0  0  0
 54 60  1  0  0  0
 55 61  1  0  0  0
 55 62  1  0  0  0
 56 63  1  0  0  0
 56 64  1  0  0  0
M  CHG  1  53   1
M  END
> <s_m_entry_id>
828

> <s_m_entry_name>
000000670.1

> <s_m_Source_Path>
/Users/zaksoul/Documents/3r_UNI/2nd_SEMESTER/BSC/FRAG_RECON/RESULTS/2

> <s_m_Source_File>
000000670.mol2

> <i_m_Source_File_Index>
1

$$$$
No_0_692
                    3D
 Schrodinger Suite 2022-4.
 67 72  0  0  1  0            999 V2000
   -5.3980    3.2840  -21.9540 C   0  0  0  0  0  0
   -5.6730    3.4760  -23.2870 C   0  0  0  0  0  0
   -4.1570    3.0300  -21.6220 C   0  0  0  0  0  0
   -3.2810    3.1630  -23.7930 C   0  0  0  0  0  0
   -3.1100    2.9150  -22.3740 C   0  0  0  0  0  0
   -4.6320    3.4260  -24.3040 C   0  0  0  0  0  0
   -3.8920    3.4540  -26.5080 C   0  0  0  0  0  0
    5.8730    2.7090  -21.3110 C   0  0  0  0  0  0
    5.7170    2.8580  -23.8590 C   0  0  0  0  0  0
   -4.8930    3.5570  -25.6380 C   0  0  0  0  0  0
    1.9320    3.4050  -23.8490 C   0  0  0  0  0  0
    1.1130    4.5120  -23.5410 C   0  0  0  0  0  0
    2.9150    5.7070  -22.8700 C   0  0  0  0  0  0
    3.3350    3.5950  -23.5450 C   0  0  0  0  0  0
    1.3820    2.2890  -24.5090 C   0  0  0  0  0  0
   -0.7450    3.1020  -24.3820 C   0  0  0  0  0  0
   -0.2150    4.3210  -23.7830 C   0  0  0  0  0  0
   -2.2010    3.1080  -24.7260 C   0  0  0  0  0  0
    3.9430    1.0970  -23.2640 C   0  0  0  0  0  0
    4.8840    0.7380  -22.1250 C   0  0  2  0  0  0
    6.4730    2.2810  -22.6680 C   0  0  2  0  0  0
    4.8740    1.7360  -20.9550 C   0  0  0  0  0  0
   -2.5360    3.2720  -26.1520 C   0  0  0  0  0  0
   -1.7620    2.5000  -21.7860 C   0  0  0  0  0  0
   -0.7280    2.1510  -21.2890 C   0  0  0  0  0  0
   -1.0540    5.3640  -23.4300 F   0  0  0  0  0  0
   -3.9370    2.7840  -20.2420 F   0  0  0  0  0  0
    1.5930    5.6700  -23.0090 N   0  0  0  0  0  0
    3.8100    4.7450  -23.0990 N   0  0  0  0  0  0
    0.0730    2.2000  -24.8060 N   0  0  0  0  0  0
    4.2520    2.5480  -23.7310 N   0  0  0  0  0  0
    6.2880    0.8070  -22.6170 N   0  0  1  0  0  0
   -4.0740    3.4730  -27.8960 O   0  0  0  0  0  0
   -6.1947    3.3452  -21.2215 H   0  0  0  0  0  0
   -6.6899    3.6718  -23.6072 H   0  0  0  0  0  0
    5.4015    3.6974  -21.4150 H   0  0  0  0  0  0
    6.6643    2.7171  -20.5469 H   0  0  0  0  0  0
    6.1055    2.4160  -24.7884 H   0  0  0  0  0  0
    5.8593    3.9483  -23.8903 H   0  0  0  0  0  0
   -5.9060    3.7427  -25.9763 H   0  0  0  0  0  0
    2.0192    1.4611  -24.7980 H   0  0  0  0  0  0
    2.9028    1.0395  -22.9109 H   0  0  0  0  0  0
    4.0994    0.4009  -24.1013 H   0  0  0  0  0  0
    4.6630   -0.2751  -21.7577 H   0  0  0  0  0  0
    7.5412    2.5382  -22.7215 H   0  0  0  0  0  0
    3.8908    2.2266  -20.9025 H   0  0  0  0  0  0
    5.1807    1.2205  -20.0329 H   0  0  0  0  0  0
   -1.7711    3.2539  -26.9199 H   0  0  0  0  0  0
    0.1823    1.8442  -20.8503 H   0  0  0  0  0  0
    6.9401    0.3077  -21.9157 H   0  0  0  0  0  0
   -3.2323    3.3859  -28.3278 H   0  0  0  0  0  0
    7.5720    9.4820  -19.9530 F   0  0  0  0  0  0
    4.5040    6.8410  -21.3180 N   0  3  0  0  0  0
    6.1660    8.7130  -21.7330 C   0  0  0  0  0  0
    3.4780    7.0450  -22.4020 C   0  0  0  0  0  0
    5.1240    8.0990  -20.7700 C   0  0  0  0  0  0
    7.5690    8.6990  -21.1030 C   0  0  0  0  0  0
    5.2311    6.2319  -21.6591 H   0  0  0  0  0  0
    4.0908    6.3168  -20.5627 H   0  0  0  0  0  0
    5.8808    9.7486  -21.9701 H   0  0  0  0  0  0
    6.1810    8.1382  -22.6707 H   0  0  0  0  0  0
    3.9420    7.5650  -23.2530 H   0  0  0  0  0  0
    2.6592    7.6718  -22.0191 H   0  0  0  0  0  0
    5.6033    7.8799  -19.8045 H   0  0  0  0  0  0
    4.3348    8.8382  -20.5680 H   0  0  0  0  0  0
    7.8449    7.6664  -20.8431 H   0  0  0  0  0  0
    8.2978    9.1019  -21.8218 H   0  0  0  0  0  0
  1  2  2  0  0  0
  1  3  1  0  0  0
  1 34  1  0  0  0
  2  6  1  0  0  0
  2 35  1  0  0  0
  3  5  2  0  0  0
  3 27  1  0  0  0
  4  5  1  0  0  0
  4  6  2  0  0  0
  4 18  1  0  0  0
  5 24  1  0  0  0
  6 10  1  0  0  0
  7 10  2  0  0  0
  7 23  1  0  0  0
  7 33  1  0  0  0
  8 21  1  0  0  0
  8 22  1  0  0  0
  8 36  1  0  0  0
  8 37  1  0  0  0
  9 21  1  0  0  0
  9 31  1  0  0  0
  9 38  1  0  0  0
  9 39  1  0  0  0
 10 40  1  0  0  0
 11 12  1  0  0  0
 11 14  2  0  0  0
 11 15  1  0  0  0
 12 17  1  0  0  0
 12 28  2  0  0  0
 13 28  1  0  0  0
 13 29  2  0  0  0
 13 55  1  0  0  0
 14 29  1  0  0  0
 14 31  1  0  0  0
 15 30  2  0  0  0
 15 41  1  0  0  0
 16 17  2  0  0  0
 16 18  1  0  0  0
 16 30  1  0  0  0
 17 26  1  0  0  0
 18 23  2  0  0  0
 19 20  1  0  0  0
 19 31  1  0  0  0
 19 42  1  0  0  0
 19 43  1  0  0  0
 20 22  1  0  0  0
 20 32  1  0  0  0
 20 44  1  0  0  0
 21 32  1  0  0  0
 21 45  1  0  0  0
 22 46  1  0  0  0
 22 47  1  0  0  0
 23 48  1  0  0  0
 24 25  3  0  0  0
 25 49  1  0  0  0
 32 50  1  0  0  0
 33 51  1  0  0  0
 52 57  1  0  0  0
 53 55  1  0  0  0
 53 56  1  0  0  0
 53 58  1  0  0  0
 53 59  1  0  0  0
 54 56  1  0  0  0
 54 57  1  0  0  0
 54 60  1  0  0  0
 54 61  1  0  0  0
 55 62  1  0  0  0
 55 63  1  0  0  0
 56 64  1  0  0  0
 56 65  1  0  0  0
 57 66  1  0  0  0
 57 67  1  0  0  0
M  CHG  1  53   1
M  END
> <s_m_entry_id>
829

> <s_m_entry_name>
000000671.1

> <s_m_Source_Path>
/Users/zaksoul/Documents/3r_UNI/2nd_SEMESTER/BSC/FRAG_RECON/RESULTS/2

> <s_m_Source_File>
000000671.mol2

> <i_m_Source_File_Index>
1

$$$$
No_0_693
                    3D
 Schrodinger Suite 2022-4.
 67 72  0  0  1  0            999 V2000
   -5.3520    3.5800  -21.8620 C   0  0  0  0  0  0
   -5.6040    3.7950  -23.1960 C   0  0  0  0  0  0
   -4.1210    3.2980  -21.5160 C   0  0  0  0  0  0
   -3.2100    3.4440  -23.6720 C   0  0  0  0  0  0
   -3.0650    3.1730  -22.2550 C   0  0  0  0  0  0
   -4.5490    3.7400  -24.1990 C   0  0  0  0  0  0
   -3.7760    3.7840  -26.3910 C   0  0  0  0  0  0
    5.8960    2.7850  -21.0650 C   0  0  0  0  0  0
    5.7800    2.9720  -23.6120 C   0  0  0  0  0  0
   -4.7870    3.8940  -25.5340 C   0  0  0  0  0  0
    2.0060    3.5890  -23.6490 C   0  0  0  0  0  0
    1.2030    4.7070  -23.3380 C   0  0  0  0  0  0
    3.0180    5.8590  -22.6250 C   0  0  0  0  0  0
    3.4080    3.7490  -23.3220 C   0  0  0  0  0  0
    1.4450    2.4930  -24.3330 C   0  0  0  0  0  0
   -0.6680    3.3430  -24.2250 C   0  0  0  0  0  0
   -0.1240    4.5440  -23.6020 C   0  0  0  0  0  0
   -2.1180    3.3820  -24.5910 C   0  0  0  0  0  0
    3.9650    1.2360  -23.0670 C   0  0  0  0  0  0
    4.8830    0.8440  -21.9200 C   0  0  2  0  0  0
    6.5080    2.3640  -22.4180 C   0  0  2  0  0  0
    4.8740    1.8270  -20.7360 C   0  0  0  0  0  0
   -2.4290    3.5710  -26.0180 C   0  0  0  0  0  0
   -1.7340    2.7260  -21.6530 C   0  0  0  0  0  0
   -0.7130    2.3510  -21.1450 C   0  0  0  0  0  0
   -0.9490    5.5980  -23.2470 F   0  0  0  0  0  0
   -3.9260    3.0290  -20.1370 F   0  0  0  0  0  0
    1.6970    5.8490  -22.7840 N   0  0  0  0  0  0
    3.8980    4.8840  -22.8540 N   0  0  0  0  0  0
    0.1400    2.4330  -24.6500 N   0  0  0  0  0  0
    4.3080    2.6880  -23.5100 N   0  0  0  0  0  0
    6.2950    0.8940  -22.3900 N   0  0  1  0  0  0
   -3.9380    3.8250  -27.7820 O   0  0  0  0  0  0
   -6.1581    3.6453  -21.1402 H   0  0  0  0  0  0
   -6.6120    4.0139  -23.5293 H   0  0  0  0  0  0
    5.4439    3.7831  -21.1619 H   0  0  0  0  0  0
    6.6757    2.7679  -20.2893 H   0  0  0  0  0  0
    6.1733    2.5353  -24.5418 H   0  0  0  0  0  0
    5.9435    4.0597  -23.6261 H   0  0  0  0  0  0
   -5.7911    4.1026  -25.8851 H   0  0  0  0  0  0
    2.0715    1.6577  -24.6242 H   0  0  0  0  0  0
    2.9185    1.1926  -22.7309 H   0  0  0  0  0  0
    4.1214    0.5488  -23.9116 H   0  0  0  0  0  0
    4.6377   -0.1695  -21.5697 H   0  0  0  0  0  0
    7.5811    2.6030  -22.4533 H   0  0  0  0  0  0
    3.8991    2.3346  -20.6916 H   0  0  0  0  0  0
    5.1576    1.2921  -19.8176 H   0  0  0  0  0  0
   -1.6537    3.5499  -26.7753 H   0  0  0  0  0  0
    0.1850    2.0210  -20.6980 H   0  0  0  0  0  0
    6.9280    0.3722  -21.6875 H   0  0  0  0  0  0
   -3.0915    3.7281  -28.2023 H   0  0  0  0  0  0
    7.9910    9.6510  -20.3170 F   0  0  0  0  0  0
    4.8420    6.9430  -21.3150 N   0  3  0  0  0  0
    6.2770    8.9670  -21.8440 C   0  0  0  0  0  0
    3.5980    7.1800  -22.1300 C   0  0  0  0  0  0
    5.5000    8.1800  -20.7640 C   0  0  0  0  0  0
    7.7820    8.9940  -21.5250 C   0  0  0  0  0  0
    5.5099    6.4290  -21.8680 H   0  0  0  0  0  0
    4.6291    6.3132  -20.5573 H   0  0  0  0  0  0
    5.8949    9.9973  -21.8930 H   0  0  0  0  0  0
    6.1199    8.4958  -22.8255 H   0  0  0  0  0  0
    3.8400    7.8190  -22.9920 H   0  0  0  0  0  0
    2.8498    7.7001  -21.5138 H   0  0  0  0  0  0
    6.1859    7.8991  -19.9512 H   0  0  0  0  0  0
    4.7353    8.8317  -20.3162 H   0  0  0  0  0  0
    8.1598    7.9636  -21.4510 H   0  0  0  0  0  0
    8.3172    9.5232  -22.3272 H   0  0  0  0  0  0
  1  2  2  0  0  0
  1  3  1  0  0  0
  1 34  1  0  0  0
  2  6  1  0  0  0
  2 35  1  0  0  0
  3  5  2  0  0  0
  3 27  1  0  0  0
  4  5  1  0  0  0
  4  6  2  0  0  0
  4 18  1  0  0  0
  5 24  1  0  0  0
  6 10  1  0  0  0
  7 10  2  0  0  0
  7 23  1  0  0  0
  7 33  1  0  0  0
  8 21  1  0  0  0
  8 22  1  0  0  0
  8 36  1  0  0  0
  8 37  1  0  0  0
  9 21  1  0  0  0
  9 31  1  0  0  0
  9 38  1  0  0  0
  9 39  1  0  0  0
 10 40  1  0  0  0
 11 12  1  0  0  0
 11 14  2  0  0  0
 11 15  1  0  0  0
 12 17  1  0  0  0
 12 28  2  0  0  0
 13 28  1  0  0  0
 13 29  2  0  0  0
 13 55  1  0  0  0
 14 29  1  0  0  0
 14 31  1  0  0  0
 15 30  2  0  0  0
 15 41  1  0  0  0
 16 17  2  0  0  0
 16 18  1  0  0  0
 16 30  1  0  0  0
 17 26  1  0  0  0
 18 23  2  0  0  0
 19 20  1  0  0  0
 19 31  1  0  0  0
 19 42  1  0  0  0
 19 43  1  0  0  0
 20 22  1  0  0  0
 20 32  1  0  0  0
 20 44  1  0  0  0
 21 32  1  0  0  0
 21 45  1  0  0  0
 22 46  1  0  0  0
 22 47  1  0  0  0
 23 48  1  0  0  0
 24 25  3  0  0  0
 25 49  1  0  0  0
 32 50  1  0  0  0
 33 51  1  0  0  0
 52 57  1  0  0  0
 53 55  1  0  0  0
 53 56  1  0  0  0
 53 58  1  0  0  0
 53 59  1  0  0  0
 54 56  1  0  0  0
 54 57  1  0  0  0
 54 60  1  0  0  0
 54 61  1  0  0  0
 55 62  1  0  0  0
 55 63  1  0  0  0
 56 64  1  0  0  0
 56 65  1  0  0  0
 57 66  1  0  0  0
 57 67  1  0  0  0
M  CHG  1  53   1
M  END
> <s_m_entry_id>
830

> <s_m_entry_name>
000000672.1

> <s_m_Source_Path>
/Users/zaksoul/Documents/3r_UNI/2nd_SEMESTER/BSC/FRAG_RECON/RESULTS/2

> <s_m_Source_File>
000000672.mol2

> <i_m_Source_File_Index>
1

$$$$
No_0_694
                    3D
 Schrodinger Suite 2022-4.
 67 72  0  0  1  0            999 V2000
   -5.4440    3.3880  -21.7620 C   0  0  0  0  0  0
   -5.7170    3.5840  -23.0950 C   0  0  0  0  0  0
   -4.2040    3.1350  -21.4280 C   0  0  0  0  0  0
   -3.3230    3.2760  -23.5970 C   0  0  0  0  0  0
   -3.1550    3.0230  -22.1790 C   0  0  0  0  0  0
   -4.6740    3.5400  -24.1100 C   0  0  0  0  0  0
   -3.9290    3.5770  -26.3120 C   0  0  0  0  0  0
    5.8260    2.8280  -21.0970 C   0  0  0  0  0  0
    5.6750    2.9860  -23.6450 C   0  0  0  0  0  0
   -4.9320    3.6750  -25.4440 C   0  0  0  0  0  0
    1.8890    3.5270  -23.6410 C   0  0  0  0  0  0
    1.0680    4.6320  -23.3310 C   0  0  0  0  0  0
    2.8670    5.8270  -22.6520 C   0  0  0  0  0  0
    3.2910    3.7180  -23.3330 C   0  0  0  0  0  0
    1.3420    2.4130  -24.3070 C   0  0  0  0  0  0
   -0.7860    3.2210  -24.1810 C   0  0  0  0  0  0
   -0.2590    4.4390  -23.5770 C   0  0  0  0  0  0
   -2.2410    3.2270  -24.5280 C   0  0  0  0  0  0
    3.9030    1.2200  -23.0600 C   0  0  0  0  0  0
    4.8420    0.8580  -21.9200 C   0  0  2  0  0  0
    6.4300    2.4050  -22.4540 C   0  0  2  0  0  0
    4.8280    1.8520  -20.7470 C   0  0  0  0  0  0
   -2.5730    3.3950  -25.9540 C   0  0  0  0  0  0
   -1.8080    2.6090  -21.5900 C   0  0  0  0  0  0
   -0.7740    2.2600  -21.0910 C   0  0  0  0  0  0
   -1.1010    5.4800  -23.2220 F   0  0  0  0  0  0
   -3.9870    2.8840  -20.0490 F   0  0  0  0  0  0
    1.5450    5.7880  -22.7940 N   0  0  0  0  0  0
    3.7640    4.8670  -22.8830 N   0  0  0  0  0  0
    0.0340    2.3230  -24.6060 N   0  0  0  0  0  0
    4.2100    2.6730  -23.5210 N   0  0  0  0  0  0
    6.2470    0.9310  -22.4090 N   0  0  1  0  0  0
   -4.1090    3.6000  -27.7000 O   0  0  0  0  0  0
   -6.2423    3.4442  -21.0309 H   0  0  0  0  0  0
   -6.7334    3.7797  -23.4171 H   0  0  0  0  0  0
    5.3524    3.8156  -21.1990 H   0  0  0  0  0  0
    6.6163    2.8351  -20.3319 H   0  0  0  0  0  0
    6.0655    2.5480  -24.5754 H   0  0  0  0  0  0
    5.8164    4.0765  -23.6723 H   0  0  0  0  0  0
   -5.9445    3.8608  -25.7835 H   0  0  0  0  0  0
    1.9813    1.5870  -24.5970 H   0  0  0  0  0  0
    2.8619    1.1595  -22.7100 H   0  0  0  0  0  0
    4.0625    0.5276  -23.8997 H   0  0  0  0  0  0
    4.6219   -0.1566  -21.5566 H   0  0  0  0  0  0
    7.4976    2.6653  -22.5045 H   0  0  0  0  0  0
    3.8438    2.3406  -20.6955 H   0  0  0  0  0  0
    5.1338    1.3332  -19.8265 H   0  0  0  0  0  0
   -1.8071    3.3809  -26.7209 H   0  0  0  0  0  0
    0.1360    1.9530  -20.6520 H   0  0  0  0  0  0
    6.8986    0.4303  -21.7082 H   0  0  0  0  0  0
   -3.2662    3.5159  -28.1303 H   0  0  0  0  0  0
    7.8830    9.9720  -21.2040 F   0  0  0  0  0  0
    4.8470    7.0090  -21.7030 N   0  3  0  0  0  0
    5.9210    9.2150  -22.3490 C   0  0  0  0  0  0
    3.4260    7.1640  -22.1780 C   0  0  0  0  0  0
    5.5030    8.2680  -21.2010 C   0  0  0  0  0  0
    7.4490    9.3870  -22.3880 C   0  0  0  0  0  0
    5.4051    6.6149  -22.4441 H   0  0  0  0  0  0
    4.8820    6.3052  -20.9822 H   0  0  0  0  0  0
    5.4449   10.1961  -22.2050 H   0  0  0  0  0  0
    5.5740    8.8030  -23.3081 H   0  0  0  0  0  0
    3.3940    7.8883  -23.0053 H   0  0  0  0  0  0
    2.8051    7.5499  -21.3561 H   0  0  0  0  0  0
    6.3878    8.0061  -20.6022 H   0  0  0  0  0  0
    4.8132    8.7948  -20.5252 H   0  0  0  0  0  0
    7.9260    8.4030  -22.5070 H   0  0  0  0  0  0
    7.7229   10.0308  -23.2368 H   0  0  0  0  0  0
  1  2  2  0  0  0
  1  3  1  0  0  0
  1 34  1  0  0  0
  2  6  1  0  0  0
  2 35  1  0  0  0
  3  5  2  0  0  0
  3 27  1  0  0  0
  4  5  1  0  0  0
  4  6  2  0  0  0
  4 18  1  0  0  0
  5 24  1  0  0  0
  6 10  1  0  0  0
  7 10  2  0  0  0
  7 23  1  0  0  0
  7 33  1  0  0  0
  8 21  1  0  0  0
  8 22  1  0  0  0
  8 36  1  0  0  0
  8 37  1  0  0  0
  9 21  1  0  0  0
  9 31  1  0  0  0
  9 38  1  0  0  0
  9 39  1  0  0  0
 10 40  1  0  0  0
 11 12  1  0  0  0
 11 14  2  0  0  0
 11 15  1  0  0  0
 12 17  1  0  0  0
 12 28  2  0  0  0
 13 28  1  0  0  0
 13 29  2  0  0  0
 13 55  1  0  0  0
 14 29  1  0  0  0
 14 31  1  0  0  0
 15 30  2  0  0  0
 15 41  1  0  0  0
 16 17  2  0  0  0
 16 18  1  0  0  0
 16 30  1  0  0  0
 17 26  1  0  0  0
 18 23  2  0  0  0
 19 20  1  0  0  0
 19 31  1  0  0  0
 19 42  1  0  0  0
 19 43  1  0  0  0
 20 22  1  0  0  0
 20 32  1  0  0  0
 20 44  1  0  0  0
 21 32  1  0  0  0
 21 45  1  0  0  0
 22 46  1  0  0  0
 22 47  1  0  0  0
 23 48  1  0  0  0
 24 25  3  0  0  0
 25 49  1  0  0  0
 32 50  1  0  0  0
 33 51  1  0  0  0
 52 57  1  0  0  0
 53 55  1  0  0  0
 53 56  1  0  0  0
 53 58  1  0  0  0
 53 59  1  0  0  0
 54 56  1  0  0  0
 54 57  1  0  0  0
 54 60  1  0  0  0
 54 61  1  0  0  0
 55 62  1  0  0  0
 55 63  1  0  0  0
 56 64  1  0  0  0
 56 65  1  0  0  0
 57 66  1  0  0  0
 57 67  1  0  0  0
M  CHG  1  53   1
M  END
> <s_m_entry_id>
831

> <s_m_entry_name>
000000673.1

> <s_m_Source_Path>
/Users/zaksoul/Documents/3r_UNI/2nd_SEMESTER/BSC/FRAG_RECON/RESULTS/2

> <s_m_Source_File>
000000673.mol2

> <i_m_Source_File_Index>
1

$$$$
No_0_695
                    3D
 Schrodinger Suite 2022-4.
 67 72  0  0  1  0            999 V2000
   -5.4210    3.4140  -21.8250 C   0  0  0  0  0  0
   -5.6780    3.5990  -23.1630 C   0  0  0  0  0  0
   -4.1830    3.1690  -21.4750 C   0  0  0  0  0  0
   -3.2770    3.2990  -23.6340 C   0  0  0  0  0  0
   -3.1250    3.0570  -22.2120 C   0  0  0  0  0  0
   -4.6220    3.5520  -24.1650 C   0  0  0  0  0  0
   -3.8510    3.5770  -26.3580 C   0  0  0  0  0  0
    5.8440    2.9100  -21.0210 C   0  0  0  0  0  0
    5.7230    3.0490  -23.5710 C   0  0  0  0  0  0
   -4.8650    3.6770  -25.5030 C   0  0  0  0  0  0
    1.9350    3.5730  -23.6170 C   0  0  0  0  0  0
    1.1040    4.6760  -23.3250 C   0  0  0  0  0  0
    2.8900    5.8840  -22.6330 C   0  0  0  0  0  0
    3.3320    3.7730  -23.2940 C   0  0  0  0  0  0
    1.4000    2.4510  -24.2810 C   0  0  0  0  0  0
   -0.7330    3.2510  -24.1870 C   0  0  0  0  0  0
   -0.2180    4.4750  -23.5850 C   0  0  0  0  0  0
   -2.1830    3.2470  -24.5520 C   0  0  0  0  0  0
    3.9510    1.2790  -22.9950 C   0  0  0  0  0  0
    4.8790    0.9310  -21.8410 C   0  0  2  0  0  0
    6.4650    2.4810  -22.3680 C   0  0  2  0  0  0
    4.8460    1.9330  -20.6750 C   0  0  0  0  0  0
   -2.4990    3.4030  -25.9820 C   0  0  0  0  0  0
   -1.7830    2.6530  -21.6030 C   0  0  0  0  0  0
   -0.7530    2.3120  -21.0900 C   0  0  0  0  0  0
   -1.0690    5.5150  -23.2480 F   0  0  0  0  0  0
   -3.9810    2.9290  -20.0910 F   0  0  0  0  0  0
    1.5700    5.8390  -22.7910 N   0  0  0  0  0  0
    3.7940    4.9270  -22.8460 N   0  0  0  0  0  0
    0.0970    2.3530  -24.5960 N   0  0  0  0  0  0
    4.2580    2.7310  -23.4630 N   0  0  0  0  0  0
    6.2880    1.0060  -22.3130 N   0  0  1  0  0  0
   -4.0140    3.5890  -27.7490 O   0  0  0  0  0  0
   -6.2284    3.4722  -21.1040 H   0  0  0  0  0  0
   -6.6915    3.7876  -23.4981 H   0  0  0  0  0  0
    5.3677    3.8949  -21.1350 H   0  0  0  0  0  0
    6.6243    2.9262  -20.2458 H   0  0  0  0  0  0
    6.1267    2.6060  -24.4934 H   0  0  0  0  0  0
    5.8593    4.1400  -23.6043 H   0  0  0  0  0  0
   -5.8742    3.8547  -25.8565 H   0  0  0  0  0  0
    2.0471    1.6263  -24.5569 H   0  0  0  0  0  0
    2.9062    1.2164  -22.6568 H   0  0  0  0  0  0
    4.1236    0.5814  -23.8278 H   0  0  0  0  0  0
    4.6580   -0.0821  -21.4737 H   0  0  0  0  0  0
    7.5321    2.7453  -22.4063 H   0  0  0  0  0  0
    3.8591    2.4174  -20.6387 H   0  0  0  0  0  0
    5.1428    1.4221  -19.7472 H   0  0  0  0  0  0
   -1.7241    3.3879  -26.7399 H   0  0  0  0  0  0
    0.1530    2.0120  -20.6380 H   0  0  0  0  0  0
    6.9340    0.5129  -21.6017 H   0  0  0  0  0  0
   -3.1658    3.5059  -28.1687 H   0  0  0  0  0  0
    7.7750   10.3600  -21.8900 F   0  0  0  0  0  0
    4.9350    7.1700  -22.0160 N   0  3  0  0  0  0
    5.6720    9.5110  -22.6600 C   0  0  0  0  0  0
    3.4370    7.2270  -22.1620 C   0  0  0  0  0  0
    5.5890    8.4430  -21.5460 C   0  0  0  0  0  0
    7.1370    9.8290  -23.0060 C   0  0  0  0  0  0
    5.3447    6.8902  -22.8934 H   0  0  0  0  0  0
    5.1810    6.4191  -21.3901 H   0  0  0  0  0  0
    5.1669   10.4293  -22.3259 H   0  0  0  0  0  0
    5.1550    9.1440  -23.5589 H   0  0  0  0  0  0
    3.1701    8.0076  -22.8896 H   0  0  0  0  0  0
    2.9849    7.4881  -21.1938 H   0  0  0  0  0  0
    6.6008    8.2198  -21.1767 H   0  0  0  0  0  0
    5.0270    8.8490  -20.6920 H   0  0  0  0  0  0
    7.6492    8.9066  -23.3171 H   0  0  0  0  0  0
    7.1690   10.5597  -23.8276 H   0  0  0  0  0  0
  1  2  2  0  0  0
  1  3  1  0  0  0
  1 34  1  0  0  0
  2  6  1  0  0  0
  2 35  1  0  0  0
  3  5  2  0  0  0
  3 27  1  0  0  0
  4  5  1  0  0  0
  4  6  2  0  0  0
  4 18  1  0  0  0
  5 24  1  0  0  0
  6 10  1  0  0  0
  7 10  2  0  0  0
  7 23  1  0  0  0
  7 33  1  0  0  0
  8 21  1  0  0  0
  8 22  1  0  0  0
  8 36  1  0  0  0
  8 37  1  0  0  0
  9 21  1  0  0  0
  9 31  1  0  0  0
  9 38  1  0  0  0
  9 39  1  0  0  0
 10 40  1  0  0  0
 11 12  1  0  0  0
 11 14  2  0  0  0
 11 15  1  0  0  0
 12 17  1  0  0  0
 12 28  2  0  0  0
 13 28  1  0  0  0
 13 29  2  0  0  0
 13 55  1  0  0  0
 14 29  1  0  0  0
 14 31  1  0  0  0
 15 30  2  0  0  0
 15 41  1  0  0  0
 16 17  2  0  0  0
 16 18  1  0  0  0
 16 30  1  0  0  0
 17 26  1  0  0  0
 18 23  2  0  0  0
 19 20  1  0  0  0
 19 31  1  0  0  0
 19 42  1  0  0  0
 19 43  1  0  0  0
 20 22  1  0  0  0
 20 32  1  0  0  0
 20 44  1  0  0  0
 21 32  1  0  0  0
 21 45  1  0  0  0
 22 46  1  0  0  0
 22 47  1  0  0  0
 23 48  1  0  0  0
 24 25  3  0  0  0
 25 49  1  0  0  0
 32 50  1  0  0  0
 33 51  1  0  0  0
 52 57  1  0  0  0
 53 55  1  0  0  0
 53 56  1  0  0  0
 53 58  1  0  0  0
 53 59  1  0  0  0
 54 56  1  0  0  0
 54 57  1  0  0  0
 54 60  1  0  0  0
 54 61  1  0  0  0
 55 62  1  0  0  0
 55 63  1  0  0  0
 56 64  1  0  0  0
 56 65  1  0  0  0
 57 66  1  0  0  0
 57 67  1  0  0  0
M  CHG  1  53   1
M  END
> <s_m_entry_id>
832

> <s_m_entry_name>
000000674.1

> <s_m_Source_Path>
/Users/zaksoul/Documents/3r_UNI/2nd_SEMESTER/BSC/FRAG_RECON/RESULTS/2

> <s_m_Source_File>
000000674.mol2

> <i_m_Source_File_Index>
1

$$$$
No_0_696
                    3D
 Schrodinger Suite 2022-4.
 67 72  0  0  1  0            999 V2000
   -5.3110    3.7010  -22.0350 C   0  0  0  0  0  0
   -5.5680    3.8940  -23.3720 C   0  0  0  0  0  0
   -4.0750    3.4470  -21.6860 C   0  0  0  0  0  0
   -3.1680    3.5820  -23.8450 C   0  0  0  0  0  0
   -3.0180    3.3320  -22.4240 C   0  0  0  0  0  0
   -4.5120    3.8460  -24.3750 C   0  0  0  0  0  0
   -3.7410    3.8760  -26.5670 C   0  0  0  0  0  0
    5.9500    3.1260  -21.2350 C   0  0  0  0  0  0
    5.8300    3.2780  -23.7850 C   0  0  0  0  0  0
   -4.7540    3.9780  -25.7110 C   0  0  0  0  0  0
    2.0450    3.8240  -23.8270 C   0  0  0  0  0  0
    1.2210    4.9310  -23.5300 C   0  0  0  0  0  0
    3.0140    6.1250  -22.8330 C   0  0  0  0  0  0
    3.4430    4.0140  -23.5040 C   0  0  0  0  0  0
    1.5040    2.7090  -24.4970 C   0  0  0  0  0  0
   -0.6250    3.5210  -24.3980 C   0  0  0  0  0  0
   -0.1030    4.7400  -23.7910 C   0  0  0  0  0  0
   -2.0750    3.5280  -24.7630 C   0  0  0  0  0  0
    4.0480    1.5160  -23.2170 C   0  0  0  0  0  0
    4.9730    1.1560  -22.0650 C   0  0  2  0  0  0
    6.5690    2.6990  -22.5840 C   0  0  2  0  0  0
    4.9460    2.1530  -20.8940 C   0  0  0  0  0  0
   -2.3900    3.6930  -26.1930 C   0  0  0  0  0  0
   -1.6780    2.9170  -21.8180 C   0  0  0  0  0  0
   -0.6500    2.5680  -21.3060 C   0  0  0  0  0  0
   -0.9470    5.7830  -23.4490 F   0  0  0  0  0  0
   -3.8740    3.1990  -20.3040 F   0  0  0  0  0  0
    1.6940    6.0880  -22.9910 N   0  0  0  0  0  0
    3.9120    5.1640  -23.0500 N   0  0  0  0  0  0
    0.2000    2.6200  -24.8120 N   0  0  0  0  0  0
    4.3630    2.9670  -23.6780 N   0  0  0  0  0  0
    6.3830    1.2250  -22.5370 N   0  0  1  0  0  0
   -3.9040    3.8960  -27.9580 O   0  0  0  0  0  0
   -6.1183    3.7602  -21.3140 H   0  0  0  0  0  0
   -6.5804    4.0898  -23.7064 H   0  0  0  0  0  0
    5.4796    4.1142  -21.3450 H   0  0  0  0  0  0
    6.7308    3.1331  -20.4602 H   0  0  0  0  0  0
    6.2307    2.8369  -24.7096 H   0  0  0  0  0  0
    5.9724    4.3684  -23.8133 H   0  0  0  0  0  0
   -5.7618    4.1637  -26.0643 H   0  0  0  0  0  0
    2.1457    1.8815  -24.7772 H   0  0  0  0  0  0
    3.0028    1.4575  -22.8790 H   0  0  0  0  0  0
    4.2155    0.8206  -24.0527 H   0  0  0  0  0  0
    4.7469    0.1427  -21.7017 H   0  0  0  0  0  0
    7.6376    2.9573  -22.6223 H   0  0  0  0  0  0
    3.9617    2.6426  -20.8556 H   0  0  0  0  0  0
    5.2405    1.6356  -19.9691 H   0  0  0  0  0  0
   -1.6151    3.6759  -26.9508 H   0  0  0  0  0  0
    0.2539    2.2600  -20.8551 H   0  0  0  0  0  0
    7.0260    0.7253  -21.8276 H   0  0  0  0  0  0
   -3.0566    3.8099  -28.3787 H   0  0  0  0  0  0
    7.6460   10.9190  -22.7280 F   0  0  0  0  0  0
    5.0610    7.5220  -22.5560 N   0  3  0  0  0  0
    5.4800    9.9650  -23.0940 C   0  0  0  0  0  0
    3.5700    7.4630  -22.3560 C   0  0  0  0  0  0
    5.7240    8.7990  -22.1100 C   0  0  0  0  0  0
    6.8020   10.4380  -23.7230 C   0  0  0  0  0  0
    5.2741    7.3579  -23.5275 H   0  0  0  0  0  0
    5.4917    6.7416  -22.0853 H   0  0  0  0  0  0
    5.0091   10.8029  -22.5591 H   0  0  0  0  0  0
    4.7928    9.6379  -23.8882 H   0  0  0  0  0  0
    3.0918    8.2793  -22.9172 H   0  0  0  0  0  0
    3.3380    7.5960  -21.2890 H   0  0  0  0  0  0
    6.8058    8.6310  -22.0030 H   0  0  0  0  0  0
    5.3498    9.0762  -21.1134 H   0  0  0  0  0  0
    7.2852    9.5947  -24.2382 H   0  0  0  0  0  0
    6.5960   11.2391  -24.4481 H   0  0  0  0  0  0
  1  2  2  0  0  0
  1  3  1  0  0  0
  1 34  1  0  0  0
  2  6  1  0  0  0
  2 35  1  0  0  0
  3  5  2  0  0  0
  3 27  1  0  0  0
  4  5  1  0  0  0
  4  6  2  0  0  0
  4 18  1  0  0  0
  5 24  1  0  0  0
  6 10  1  0  0  0
  7 10  2  0  0  0
  7 23  1  0  0  0
  7 33  1  0  0  0
  8 21  1  0  0  0
  8 22  1  0  0  0
  8 36  1  0  0  0
  8 37  1  0  0  0
  9 21  1  0  0  0
  9 31  1  0  0  0
  9 38  1  0  0  0
  9 39  1  0  0  0
 10 40  1  0  0  0
 11 12  1  0  0  0
 11 14  2  0  0  0
 11 15  1  0  0  0
 12 17  1  0  0  0
 12 28  2  0  0  0
 13 28  1  0  0  0
 13 29  2  0  0  0
 13 55  1  0  0  0
 14 29  1  0  0  0
 14 31  1  0  0  0
 15 30  2  0  0  0
 15 41  1  0  0  0
 16 17  2  0  0  0
 16 18  1  0  0  0
 16 30  1  0  0  0
 17 26  1  0  0  0
 18 23  2  0  0  0
 19 20  1  0  0  0
 19 31  1  0  0  0
 19 42  1  0  0  0
 19 43  1  0  0  0
 20 22  1  0  0  0
 20 32  1  0  0  0
 20 44  1  0  0  0
 21 32  1  0  0  0
 21 45  1  0  0  0
 22 46  1  0  0  0
 22 47  1  0  0  0
 23 48  1  0  0  0
 24 25  3  0  0  0
 25 49  1  0  0  0
 32 50  1  0  0  0
 33 51  1  0  0  0
 52 57  1  0  0  0
 53 55  1  0  0  0
 53 56  1  0  0  0
 53 58  1  0  0  0
 53 59  1  0  0  0
 54 56  1  0  0  0
 54 57  1  0  0  0
 54 60  1  0  0  0
 54 61  1  0  0  0
 55 62  1  0  0  0
 55 63  1  0  0  0
 56 64  1  0  0  0
 56 65  1  0  0  0
 57 66  1  0  0  0
 57 67  1  0  0  0
M  CHG  1  53   1
M  END
> <s_m_entry_id>
833

> <s_m_entry_name>
000000675.1

> <s_m_Source_Path>
/Users/zaksoul/Documents/3r_UNI/2nd_SEMESTER/BSC/FRAG_RECON/RESULTS/2

> <s_m_Source_File>
000000675.mol2

> <i_m_Source_File_Index>
1

$$$$
No_0_697
                    3D
 Schrodinger Suite 2022-4.
 67 72  0  0  1  0            999 V2000
   -5.1810    3.6090  -21.8530 C   0  0  0  0  0  0
   -5.4520    3.8050  -23.1860 C   0  0  0  0  0  0
   -3.9420    3.3510  -21.5190 C   0  0  0  0  0  0
   -3.0590    3.4860  -23.6870 C   0  0  0  0  0  0
   -2.8930    3.2340  -22.2690 C   0  0  0  0  0  0
   -4.4090    3.7540  -24.2010 C   0  0  0  0  0  0
   -3.6630    3.7850  -26.4030 C   0  0  0  0  0  0
    6.0870    3.0010  -21.1820 C   0  0  0  0  0  0
    5.9380    3.1560  -23.7310 C   0  0  0  0  0  0
   -4.6650    3.8890  -25.5350 C   0  0  0  0  0  0
    2.1540    3.7130  -23.7290 C   0  0  0  0  0  0
    1.3370    4.8230  -23.4210 C   0  0  0  0  0  0
    3.1410    6.0110  -22.7430 C   0  0  0  0  0  0
    3.5570    3.8990  -23.4210 C   0  0  0  0  0  0
    1.6030    2.6010  -24.3930 C   0  0  0  0  0  0
   -0.5220    3.4190  -24.2700 C   0  0  0  0  0  0
    0.0100    4.6350  -23.6670 C   0  0  0  0  0  0
   -1.9770    3.4300  -24.6180 C   0  0  0  0  0  0
    4.1570    1.3990  -23.1440 C   0  0  0  0  0  0
    5.0950    1.0350  -22.0030 C   0  0  2  0  0  0
    6.6890    2.5740  -22.5390 C   0  0  2  0  0  0
    5.0840    2.0310  -20.8310 C   0  0  0  0  0  0
   -2.3080    3.5970  -26.0440 C   0  0  0  0  0  0
   -1.5470    2.8150  -21.6780 C   0  0  0  0  0  0
   -0.5150    2.4620  -21.1780 C   0  0  0  0  0  0
   -0.8280    5.6800  -23.3140 F   0  0  0  0  0  0
   -3.7260    3.1020  -20.1390 F   0  0  0  0  0  0
    1.8200    5.9780  -22.8860 N   0  0  0  0  0  0
    4.0350    5.0470  -22.9720 N   0  0  0  0  0  0
    0.2950    2.5160  -24.6930 N   0  0  0  0  0  0
    4.4710    2.8500  -23.6070 N   0  0  0  0  0  0
    6.5000    1.1010  -22.4910 N   0  0  1  0  0  0
   -3.8410    3.8060  -27.7920 O   0  0  0  0  0  0
   -5.9796    3.6712  -21.1226 H   0  0  0  0  0  0
   -6.4675    4.0037  -23.5091 H   0  0  0  0  0  0
    5.6179    3.9906  -21.2849 H   0  0  0  0  0  0
    6.8763    3.0060  -20.4159 H   0  0  0  0  0  0
    6.3275    2.7150  -24.6604 H   0  0  0  0  0  0
    6.0833    4.2460  -23.7593 H   0  0  0  0  0  0
   -5.6765    4.0776  -25.8762 H   0  0  0  0  0  0
    2.2385    1.7718  -24.6821 H   0  0  0  0  0  0
    3.1157    1.3435  -22.7939 H   0  0  0  0  0  0
    4.3144    0.7047  -23.9826 H   0  0  0  0  0  0
    4.8700    0.0218  -21.6387 H   0  0  0  0  0  0
    7.7578    2.8293  -22.5885 H   0  0  0  0  0  0
    4.1018    2.5236  -20.7805 H   0  0  0  0  0  0
    5.3877    1.5123  -19.9097 H   0  0  0  0  0  0
   -1.5411    3.5789  -26.8099 H   0  0  0  0  0  0
    0.3934    2.1519  -20.7378 H   0  0  0  0  0  0
    7.1492    0.5983  -21.7894 H   0  0  0  0  0  0
   -2.9984    3.7179  -28.2217 H   0  0  0  0  0  0
    3.7160    7.4580  -20.7680 N   0  3  0  0  0  0
    4.4250    9.8960  -20.8240 C   0  0  0  0  0  0
    3.7060    7.3460  -22.2710 C   0  0  0  0  0  0
    4.6450    8.5040  -20.2040 C   0  0  0  0  0  0
    5.4180   10.8900  -20.2030 C   0  0  0  0  0  0
    3.9421    6.5605  -20.3688 H   0  0  0  0  0  0
    2.7789    7.6340  -20.4410 H   0  0  0  0  0  0
    3.3970   10.2300  -20.6200 H   0  0  0  0  0  0
    4.5900    9.8440  -21.9103 H   0  0  0  0  0  0
    4.7306    7.4660  -22.6529 H   0  0  0  0  0  0
    3.1091    8.1669  -22.6950 H   0  0  0  0  0  0
    5.6873    8.1919  -20.3660 H   0  0  0  0  0  0
    4.5090    8.5630  -19.1140 H   0  0  0  0  0  0
    5.2640   11.8863  -20.6431 H   0  0  0  0  0  0
    5.2550   10.9410  -19.1163 H   0  0  0  0  0  0
    6.4465   10.5558  -20.4041 H   0  0  0  0  0  0
  1  2  2  0  0  0
  1  3  1  0  0  0
  1 34  1  0  0  0
  2  6  1  0  0  0
  2 35  1  0  0  0
  3  5  2  0  0  0
  3 27  1  0  0  0
  4  5  1  0  0  0
  4  6  2  0  0  0
  4 18  1  0  0  0
  5 24  1  0  0  0
  6 10  1  0  0  0
  7 10  2  0  0  0
  7 23  1  0  0  0
  7 33  1  0  0  0
  8 21  1  0  0  0
  8 22  1  0  0  0
  8 36  1  0  0  0
  8 37  1  0  0  0
  9 21  1  0  0  0
  9 31  1  0  0  0
  9 38  1  0  0  0
  9 39  1  0  0  0
 10 40  1  0  0  0
 11 12  1  0  0  0
 11 14  2  0  0  0
 11 15  1  0  0  0
 12 17  1  0  0  0
 12 28  2  0  0  0
 13 28  1  0  0  0
 13 29  2  0  0  0
 13 54  1  0  0  0
 14 29  1  0  0  0
 14 31  1  0  0  0
 15 30  2  0  0  0
 15 41  1  0  0  0
 16 17  2  0  0  0
 16 18  1  0  0  0
 16 30  1  0  0  0
 17 26  1  0  0  0
 18 23  2  0  0  0
 19 20  1  0  0  0
 19 31  1  0  0  0
 19 42  1  0  0  0
 19 43  1  0  0  0
 20 22  1  0  0  0
 20 32  1  0  0  0
 20 44  1  0  0  0
 21 32  1  0  0  0
 21 45  1  0  0  0
 22 46  1  0  0  0
 22 47  1  0  0  0
 23 48  1  0  0  0
 24 25  3  0  0  0
 25 49  1  0  0  0
 32 50  1  0  0  0
 33 51  1  0  0  0
 52 54  1  0  0  0
 52 55  1  0  0  0
 52 57  1  0  0  0
 52 58  1  0  0  0
 53 55  1  0  0  0
 53 56  1  0  0  0
 53 59  1  0  0  0
 53 60  1  0  0  0
 54 61  1  0  0  0
 54 62  1  0  0  0
 55 63  1  0  0  0
 55 64  1  0  0  0
 56 65  1  0  0  0
 56 66  1  0  0  0
 56 67  1  0  0  0
M  CHG  1  52   1
M  END
> <s_m_entry_id>
834

> <s_m_entry_name>
000000676.1

> <s_m_Source_Path>
/Users/zaksoul/Documents/3r_UNI/2nd_SEMESTER/BSC/FRAG_RECON/RESULTS/2

> <s_m_Source_File>
000000676.mol2

> <i_m_Source_File_Index>
1

$$$$
No_0_698
                    3D
 Schrodinger Suite 2022-4.
 67 72  0  0  1  0            999 V2000
   -5.3660    3.3690  -21.9280 C   0  0  0  0  0  0
   -5.6400    3.5670  -23.2600 C   0  0  0  0  0  0
   -4.1270    3.1060  -21.5970 C   0  0  0  0  0  0
   -3.2500    3.2400  -23.7680 C   0  0  0  0  0  0
   -3.0810    2.9860  -22.3500 C   0  0  0  0  0  0
   -4.5990    3.5140  -24.2780 C   0  0  0  0  0  0
   -3.8590    3.5440  -26.4810 C   0  0  0  0  0  0
    5.9010    2.7210  -21.2870 C   0  0  0  0  0  0
    5.7460    2.8790  -23.8340 C   0  0  0  0  0  0
   -4.8590    3.6510  -25.6110 C   0  0  0  0  0  0
    1.9650    3.4500  -23.8230 C   0  0  0  0  0  0
    1.1520    4.5610  -23.5110 C   0  0  0  0  0  0
    2.9620    5.7420  -22.8370 C   0  0  0  0  0  0
    3.3680    3.6300  -23.5180 C   0  0  0  0  0  0
    1.4070    2.3400  -24.4870 C   0  0  0  0  0  0
   -0.7140    3.1650  -24.3570 C   0  0  0  0  0  0
   -0.1760    4.3790  -23.7540 C   0  0  0  0  0  0
   -2.1700    3.1820  -24.7010 C   0  0  0  0  0  0
    3.9610    1.1270  -23.2450 C   0  0  0  0  0  0
    4.9000    0.7590  -22.1070 C   0  0  2  0  0  0
    6.4990    2.2940  -22.6450 C   0  0  2  0  0  0
    4.8960    1.7540  -20.9340 C   0  0  0  0  0  0
   -2.5040    3.3520  -26.1260 C   0  0  0  0  0  0
   -1.7350    2.5620  -21.7630 C   0  0  0  0  0  0
   -0.7030    2.2050  -21.2660 C   0  0  0  0  0  0
   -1.0100    5.4270  -23.3980 F   0  0  0  0  0  0
   -3.9090    2.8550  -20.2180 F   0  0  0  0  0  0
    1.6400    5.7140  -22.9760 N   0  0  0  0  0  0
    3.8510    4.7760  -23.0690 N   0  0  0  0  0  0
    0.0980    2.2600  -24.7830 N   0  0  0  0  0  0
    4.2790    2.5780  -23.7070 N   0  0  0  0  0  0
    6.3040    0.8210  -22.5980 N   0  0  1  0  0  0
   -4.0410    3.5680  -27.8700 O   0  0  0  0  0  0
   -6.1626    3.4322  -21.1956 H   0  0  0  0  0  0
   -6.6556    3.7697  -23.5801 H   0  0  0  0  0  0
    5.4359    3.7127  -21.3879 H   0  0  0  0  0  0
    6.6923    2.7220  -20.5229 H   0  0  0  0  0  0
    6.1314    2.4381  -24.7652 H   0  0  0  0  0  0
    5.8953    3.9685  -23.8622 H   0  0  0  0  0  0
   -5.8707    3.8437  -25.9492 H   0  0  0  0  0  0
    2.0393    1.5090  -24.7781 H   0  0  0  0  0  0
    2.9202    1.0755  -22.8927 H   0  0  0  0  0  0
    4.1135    0.4334  -24.0850 H   0  0  0  0  0  0
    4.6719   -0.2535  -21.7426 H   0  0  0  0  0  0
    7.5686    2.5455  -22.6975 H   0  0  0  0  0  0
    3.9159    2.2506  -20.8805 H   0  0  0  0  0  0
    5.1997    1.2334  -20.0138 H   0  0  0  0  0  0
   -1.7396    3.3319  -26.8944 H   0  0  0  0  0  0
    0.2055    1.8908  -20.8288 H   0  0  0  0  0  0
    6.9531    0.3152  -21.8986 H   0  0  0  0  0  0
   -3.1996    3.4769  -28.3016 H   0  0  0  0  0  0
    4.7950    6.8990  -21.5600 N   0  3  0  0  0  0
    4.8920    9.3570  -20.9290 C   0  0  0  0  0  0
    3.5330    7.0760  -22.3650 C   0  0  0  0  0  0
    5.6630    8.1270  -21.4420 C   0  0  0  0  0  0
    5.8470   10.5580  -20.8540 C   0  0  0  0  0  0
    5.3359    6.1441  -21.9519 H   0  0  0  0  0  0
    4.5589    6.5679  -20.6377 H   0  0  0  0  0  0
    4.4888    9.1459  -19.9276 H   0  0  0  0  0  0
    4.0678    9.5871  -21.6202 H   0  0  0  0  0  0
    3.7401    7.7144  -23.2365 H   0  0  0  0  0  0
    2.7813    7.5998  -21.7562 H   0  0  0  0  0  0
    6.1066    8.3558  -22.4222 H   0  0  0  0  0  0
    6.5052    7.9150  -20.7669 H   0  0  0  0  0  0
    5.2998   11.4392  -20.4879 H   0  0  0  0  0  0
    6.6729   10.3270  -20.1651 H   0  0  0  0  0  0
    6.2532   10.7681  -21.8544 H   0  0  0  0  0  0
  1  2  2  0  0  0
  1  3  1  0  0  0
  1 34  1  0  0  0
  2  6  1  0  0  0
  2 35  1  0  0  0
  3  5  2  0  0  0
  3 27  1  0  0  0
  4  5  1  0  0  0
  4  6  2  0  0  0
  4 18  1  0  0  0
  5 24  1  0  0  0
  6 10  1  0  0  0
  7 10  2  0  0  0
  7 23  1  0  0  0
  7 33  1  0  0  0
  8 21  1  0  0  0
  8 22  1  0  0  0
  8 36  1  0  0  0
  8 37  1  0  0  0
  9 21  1  0  0  0
  9 31  1  0  0  0
  9 38  1  0  0  0
  9 39  1  0  0  0
 10 40  1  0  0  0
 11 12  1  0  0  0
 11 14  2  0  0  0
 11 15  1  0  0  0
 12 17  1  0  0  0
 12 28  2  0  0  0
 13 28  1  0  0  0
 13 29  2  0  0  0
 13 54  1  0  0  0
 14 29  1  0  0  0
 14 31  1  0  0  0
 15 30  2  0  0  0
 15 41  1  0  0  0
 16 17  2  0  0  0
 16 18  1  0  0  0
 16 30  1  0  0  0
 17 26  1  0  0  0
 18 23  2  0  0  0
 19 20  1  0  0  0
 19 31  1  0  0  0
 19 42  1  0  0  0
 19 43  1  0  0  0
 20 22  1  0  0  0
 20 32  1  0  0  0
 20 44  1  0  0  0
 21 32  1  0  0  0
 21 45  1  0  0  0
 22 46  1  0  0  0
 22 47  1  0  0  0
 23 48  1  0  0  0
 24 25  3  0  0  0
 25 49  1  0  0  0
 32 50  1  0  0  0
 33 51  1  0  0  0
 52 54  1  0  0  0
 52 55  1  0  0  0
 52 57  1  0  0  0
 52 58  1  0  0  0
 53 55  1  0  0  0
 53 56  1  0  0  0
 53 59  1  0  0  0
 53 60  1  0  0  0
 54 61  1  0  0  0
 54 62  1  0  0  0
 55 63  1  0  0  0
 55 64  1  0  0  0
 56 65  1  0  0  0
 56 66  1  0  0  0
 56 67  1  0  0  0
M  CHG  1  52   1
M  END
> <s_m_entry_id>
835

> <s_m_entry_name>
000000677.1

> <s_m_Source_Path>
/Users/zaksoul/Documents/3r_UNI/2nd_SEMESTER/BSC/FRAG_RECON/RESULTS/2

> <s_m_Source_File>
000000677.mol2

> <i_m_Source_File_Index>
1

$$$$
No_0_699
                    3D
 Schrodinger Suite 2022-4.
 67 72  0  0  1  0            999 V2000
   -5.3370    3.3550  -21.9140 C   0  0  0  0  0  0
   -5.5950    3.5880  -23.2440 C   0  0  0  0  0  0
   -4.1000    3.0940  -21.5750 C   0  0  0  0  0  0
   -3.1960    3.2950  -23.7290 C   0  0  0  0  0  0
   -3.0430    3.0040  -22.3170 C   0  0  0  0  0  0
   -4.5410    3.5720  -24.2490 C   0  0  0  0  0  0
   -3.7730    3.6700  -26.4410 C   0  0  0  0  0  0
    5.9270    2.7850  -21.1430 C   0  0  0  0  0  0
    5.8030    3.0130  -23.6870 C   0  0  0  0  0  0
   -4.7840    3.7430  -25.5810 C   0  0  0  0  0  0
    2.0170    3.5510  -23.7090 C   0  0  0  0  0  0
    1.1910    4.6460  -23.3780 C   0  0  0  0  0  0
    2.9810    5.8240  -22.6470 C   0  0  0  0  0  0
    3.4150    3.7350  -23.3810 C   0  0  0  0  0  0
    1.4780    2.4550  -24.4110 C   0  0  0  0  0  0
   -0.6520    3.2580  -24.2860 C   0  0  0  0  0  0
   -0.1330    4.4590  -23.6430 C   0  0  0  0  0  0
   -2.1030    3.2720  -24.6490 C   0  0  0  0  0  0
    4.0260    1.2300  -23.1700 C   0  0  0  0  0  0
    4.9540    0.8390  -22.0300 C   0  0  2  0  0  0
    6.5450    2.4010  -22.5050 C   0  0  2  0  0  0
    4.9260    1.8000  -20.8300 C   0  0  0  0  0  0
   -2.4200    3.4790  -26.0730 C   0  0  0  0  0  0
   -1.7010    2.5740  -21.7240 C   0  0  0  0  0  0
   -0.6720    2.2120  -21.2240 C   0  0  0  0  0  0
   -0.9800    5.4900  -23.2690 F   0  0  0  0  0  0
   -3.8970    2.8050  -20.2000 F   0  0  0  0  0  0
    1.6610    5.7880  -22.8050 N   0  0  0  0  0  0
    3.8820    4.8710  -22.8940 N   0  0  0  0  0  0
    0.1740    2.3720  -24.7270 N   0  0  0  0  0  0
    4.3370    2.6960  -23.5880 N   0  0  0  0  0  0
    6.3630    0.9260  -22.5010 N   0  0  1  0  0  0
   -3.9370    3.7310  -27.8300 O   0  0  0  0  0  0
   -6.1436    3.3912  -21.1907 H   0  0  0  0  0  0
   -6.6081    3.7906  -23.5720 H   0  0  0  0  0  0
    5.4538    3.7748  -21.2227 H   0  0  0  0  0  0
    6.7083    2.7719  -20.3688 H   0  0  0  0  0  0
    6.2047    2.6012  -24.6246 H   0  0  0  0  0  0
    5.9433    4.1040  -23.6820 H   0  0  0  0  0  0
   -5.7929    3.9366  -25.9270 H   0  0  0  0  0  0
    2.1213    1.6380  -24.7171 H   0  0  0  0  0  0
    2.9813    1.1593  -22.8329 H   0  0  0  0  0  0
    4.1955    0.5611  -24.0266 H   0  0  0  0  0  0
    4.7301   -0.1856  -21.6982 H   0  0  0  0  0  0
    7.6131    2.6622  -22.5363 H   0  0  0  0  0  0
    3.9407    2.2861  -20.7765 H   0  0  0  0  0  0
    5.2217    1.2561  -19.9208 H   0  0  0  0  0  0
   -1.6460    3.4870  -26.8319 H   0  0  0  0  0  0
    0.2336    1.8938  -20.7837 H   0  0  0  0  0  0
    7.0079    0.4062  -21.8080 H   0  0  0  0  0  0
   -3.0895    3.6598  -28.2533 H   0  0  0  0  0  0
    5.0230    7.0920  -21.9080 N   0  3  0  0  0  0
    5.0780    9.3870  -20.8210 C   0  0  0  0  0  0
    3.5340    7.1480  -22.1310 C   0  0  0  0  0  0
    5.7170    8.4300  -21.8440 C   0  0  0  0  0  0
    5.8370   10.7220  -20.8330 C   0  0  0  0  0  0
    5.4471    6.5309  -22.6301 H   0  0  0  0  0  0
    5.2150    6.5770  -21.0630 H   0  0  0  0  0  0
    5.1360    8.9419  -19.8168 H   0  0  0  0  0  0
    4.0259    9.5610  -21.0910 H   0  0  0  0  0  0
    3.3010    7.9471  -22.8501 H   0  0  0  0  0  0
    3.0324    7.4098  -21.1877 H   0  0  0  0  0  0
    5.7030    8.8969  -22.8399 H   0  0  0  0  0  0
    6.7770    8.2800  -21.5910 H   0  0  0  0  0  0
    5.3837   11.4094  -20.1036 H   0  0  0  0  0  0
    6.8901   10.5480  -20.5670 H   0  0  0  0  0  0
    5.7820   11.1668  -21.8376 H   0  0  0  0  0  0
  1  2  2  0  0  0
  1  3  1  0  0  0
  1 34  1  0  0  0
  2  6  1  0  0  0
  2 35  1  0  0  0
  3  5  2  0  0  0
  3 27  1  0  0  0
  4  5  1  0  0  0
  4  6  2  0  0  0
  4 18  1  0  0  0
  5 24  1  0  0  0
  6 10  1  0  0  0
  7 10  2  0  0  0
  7 23  1  0  0  0
  7 33  1  0  0  0
  8 21  1  0  0  0
  8 22  1  0  0  0
  8 36  1  0  0  0
  8 37  1  0  0  0
  9 21  1  0  0  0
  9 31  1  0  0  0
  9 38  1  0  0  0
  9 39  1  0  0  0
 10 40  1  0  0  0
 11 12  1  0  0  0
 11 14  2  0  0  0
 11 15  1  0  0  0
 12 17  1  0  0  0
 12 28  2  0  0  0
 13 28  1  0  0  0
 13 29  2  0  0  0
 13 54  1  0  0  0
 14 29  1  0  0  0
 14 31  1  0  0  0
 15 30  2  0  0  0
 15 41  1  0  0  0
 16 17  2  0  0  0
 16 18  1  0  0  0
 16 30  1  0  0  0
 17 26  1  0  0  0
 18 23  2  0  0  0
 19 20  1  0  0  0
 19 31  1  0  0  0
 19 42  1  0  0  0
 19 43  1  0  0  0
 20 22  1  0  0  0
 20 32  1  0  0  0
 20 44  1  0  0  0
 21 32  1  0  0  0
 21 45  1  0  0  0
 22 46  1  0  0  0
 22 47  1  0  0  0
 23 48  1  0  0  0
 24 25  3  0  0  0
 25 49  1  0  0  0
 32 50  1  0  0  0
 33 51  1  0  0  0
 52 54  1  0  0  0
 52 55  1  0  0  0
 52 57  1  0  0  0
 52 58  1  0  0  0
 53 55  1  0  0  0
 53 56  1  0  0  0
 53 59  1  0  0  0
 53 60  1  0  0  0
 54 61  1  0  0  0
 54 62  1  0  0  0
 55 63  1  0  0  0
 55 64  1  0  0  0
 56 65  1  0  0  0
 56 66  1  0  0  0
 56 67  1  0  0  0
M  CHG  1  52   1
M  END
> <s_m_entry_id>
836

> <s_m_entry_name>
000000678.1

> <s_m_Source_Path>
/Users/zaksoul/Documents/3r_UNI/2nd_SEMESTER/BSC/FRAG_RECON/RESULTS/2

> <s_m_Source_File>
000000678.mol2

> <i_m_Source_File_Index>
1

$$$$
No_0_700
                    3D
 Schrodinger Suite 2022-4.
 67 72  0  0  1  0            999 V2000
   -5.2950    3.6250  -21.8120 C   0  0  0  0  0  0
   -5.5490    3.8220  -23.1490 C   0  0  0  0  0  0
   -4.0610    3.3600  -21.4630 C   0  0  0  0  0  0
   -3.1520    3.4890  -23.6210 C   0  0  0  0  0  0
   -3.0040    3.2360  -22.2010 C   0  0  0  0  0  0
   -4.4930    3.7650  -24.1510 C   0  0  0  0  0  0
   -3.7210    3.7900  -26.3430 C   0  0  0  0  0  0
    5.9610    2.9500  -21.0070 C   0  0  0  0  0  0
    5.8430    3.1050  -23.5570 C   0  0  0  0  0  0
   -4.7330    3.9010  -25.4880 C   0  0  0  0  0  0
    2.0630    3.6850  -23.6010 C   0  0  0  0  0  0
    1.2490    4.7990  -23.3030 C   0  0  0  0  0  0
    3.0520    5.9760  -22.6040 C   0  0  0  0  0  0
    3.4630    3.8630  -23.2760 C   0  0  0  0  0  0
    1.5120    2.5760  -24.2710 C   0  0  0  0  0  0
   -0.6090    3.4060  -24.1730 C   0  0  0  0  0  0
   -0.0760    4.6190  -23.5650 C   0  0  0  0  0  0
   -2.0590    3.4260  -24.5390 C   0  0  0  0  0  0
    4.0450    1.3580  -22.9910 C   0  0  0  0  0  0
    4.9670    0.9890  -21.8390 C   0  0  2  0  0  0
    6.5770    2.5190  -22.3560 C   0  0  2  0  0  0
    4.9480    1.9850  -20.6680 C   0  0  0  0  0  0
   -2.3720    3.5950  -25.9680 C   0  0  0  0  0  0
   -1.6680    2.8090  -21.5940 C   0  0  0  0  0  0
   -0.6440    2.4500  -21.0820 C   0  0  0  0  0  0
   -0.9120    5.6700  -23.2220 F   0  0  0  0  0  0
   -3.8630    3.1090  -20.0800 F   0  0  0  0  0  0
    1.7320    5.9520  -22.7620 N   0  0  0  0  0  0
    3.9420    5.0070  -22.8210 N   0  0  0  0  0  0
    0.2080    2.4990  -24.5870 N   0  0  0  0  0  0
    4.3730    2.8080  -23.4510 N   0  0  0  0  0  0
    6.3780    1.0470  -22.3110 N   0  0  1  0  0  0
   -3.8830    3.8130  -27.7340 O   0  0  0  0  0  0
   -6.1016    3.6913  -21.0908 H   0  0  0  0  0  0
   -6.5592    4.0269  -23.4844 H   0  0  0  0  0  0
    5.4987    3.9422  -21.1160 H   0  0  0  0  0  0
    6.7413    2.9500  -20.2317 H   0  0  0  0  0  0
    6.2408    2.6618  -24.4818 H   0  0  0  0  0  0
    5.9954    4.1940  -23.5843 H   0  0  0  0  0  0
   -5.7392    4.0956  -25.8411 H   0  0  0  0  0  0
    2.1463    1.7430  -24.5520 H   0  0  0  0  0  0
    2.9991    1.3095  -22.6538 H   0  0  0  0  0  0
    4.2075    0.6626  -23.8277 H   0  0  0  0  0  0
    4.7307   -0.0227  -21.4775 H   0  0  0  0  0  0
    7.6479    2.7673  -22.3944 H   0  0  0  0  0  0
    3.9686    2.4843  -20.6297 H   0  0  0  0  0  0
    5.2366    1.4652  -19.7425 H   0  0  0  0  0  0
   -1.5972    3.5729  -26.7258 H   0  0  0  0  0  0
    0.2570    2.1340  -20.6310 H   0  0  0  0  0  0
    7.0155    0.5400  -21.6018 H   0  0  0  0  0  0
   -3.0358    3.7200  -28.1536 H   0  0  0  0  0  0
    5.0670    7.4780  -22.5050 N   0  3  0  0  0  0
    5.3080    9.6150  -21.1540 C   0  0  0  0  0  0
    3.6190    7.3090  -22.1250 C   0  0  0  0  0  0
    5.5780    8.8970  -22.4890 C   0  0  0  0  0  0
    5.8470   11.0510  -21.2330 C   0  0  0  0  0  0
    5.2210    7.0791  -23.4178 H   0  0  0  0  0  0
    5.6387    6.9113  -21.8983 H   0  0  0  0  0  0
    5.8160    9.0770  -20.3400 H   0  0  0  0  0  0
    4.2247    9.6400  -20.9649 H   0  0  0  0  0  0
    3.0296    8.1326  -22.5543 H   0  0  0  0  0  0
    3.5170    7.3780  -21.0319 H   0  0  0  0  0  0
    5.1109    9.4621  -23.3091 H   0  0  0  0  0  0
    6.6589    8.8990  -22.6930 H   0  0  0  0  0  0
    5.6559   11.5672  -20.2806 H   0  0  0  0  0  0
    6.9297   11.0260  -21.4259 H   0  0  0  0  0  0
    5.3429   11.5892  -22.0492 H   0  0  0  0  0  0
  1  2  2  0  0  0
  1  3  1  0  0  0
  1 34  1  0  0  0
  2  6  1  0  0  0
  2 35  1  0  0  0
  3  5  2  0  0  0
  3 27  1  0  0  0
  4  5  1  0  0  0
  4  6  2  0  0  0
  4 18  1  0  0  0
  5 24  1  0  0  0
  6 10  1  0  0  0
  7 10  2  0  0  0
  7 23  1  0  0  0
  7 33  1  0  0  0
  8 21  1  0  0  0
  8 22  1  0  0  0
  8 36  1  0  0  0
  8 37  1  0  0  0
  9 21  1  0  0  0
  9 31  1  0  0  0
  9 38  1  0  0  0
  9 39  1  0  0  0
 10 40  1  0  0  0
 11 12  1  0  0  0
 11 14  2  0  0  0
 11 15  1  0  0  0
 12 17  1  0  0  0
 12 28  2  0  0  0
 13 28  1  0  0  0
 13 29  2  0  0  0
 13 54  1  0  0  0
 14 29  1  0  0  0
 14 31  1  0  0  0
 15 30  2  0  0  0
 15 41  1  0  0  0
 16 17  2  0  0  0
 16 18  1  0  0  0
 16 30  1  0  0  0
 17 26  1  0  0  0
 18 23  2  0  0  0
 19 20  1  0  0  0
 19 31  1  0  0  0
 19 42  1  0  0  0
 19 43  1  0  0  0
 20 22  1  0  0  0
 20 32  1  0  0  0
 20 44  1  0  0  0
 21 32  1  0  0  0
 21 45  1  0  0  0
 22 46  1  0  0  0
 22 47  1  0  0  0
 23 48  1  0  0  0
 24 25  3  0  0  0
 25 49  1  0  0  0
 32 50  1  0  0  0
 33 51  1  0  0  0
 52 54  1  0  0  0
 52 55  1  0  0  0
 52 57  1  0  0  0
 52 58  1  0  0  0
 53 55  1  0  0  0
 53 56  1  0  0  0
 53 59  1  0  0  0
 53 60  1  0  0  0
 54 61  1  0  0  0
 54 62  1  0  0  0
 55 63  1  0  0  0
 55 64  1  0  0  0
 56 65  1  0  0  0
 56 66  1  0  0  0
 56 67  1  0  0  0
M  CHG  1  52   1
M  END
> <s_m_entry_id>
837

> <s_m_entry_name>
000000679.1

> <s_m_Source_Path>
/Users/zaksoul/Documents/3r_UNI/2nd_SEMESTER/BSC/FRAG_RECON/RESULTS/2

> <s_m_Source_File>
000000679.mol2

> <i_m_Source_File_Index>
1

$$$$
No_0_701
                    3D
 Schrodinger Suite 2022-4.
 67 72  0  0  1  0            999 V2000
   -5.0930    3.5820  -21.6620 C   0  0  0  0  0  0
   -5.3720    3.8140  -22.9870 C   0  0  0  0  0  0
   -3.8460    3.3460  -21.3380 C   0  0  0  0  0  0
   -2.9730    3.5770  -23.5020 C   0  0  0  0  0  0
   -2.7970    3.2830  -22.0930 C   0  0  0  0  0  0
   -4.3300    3.8250  -24.0050 C   0  0  0  0  0  0
   -3.5900    3.9490  -26.2050 C   0  0  0  0  0  0
    6.1890    3.2560  -21.0260 C   0  0  0  0  0  0
    6.0300    3.4910  -23.5680 C   0  0  0  0  0  0
   -4.5930    3.9970  -25.3330 C   0  0  0  0  0  0
    2.2330    3.9460  -23.5430 C   0  0  0  0  0  0
    1.3870    5.0220  -23.1970 C   0  0  0  0  0  0
    3.1600    6.2350  -22.4820 C   0  0  0  0  0  0
    3.6300    4.1590  -23.2310 C   0  0  0  0  0  0
    1.7100    2.8410  -24.2430 C   0  0  0  0  0  0
   -0.4360    3.5970  -24.0890 C   0  0  0  0  0  0
    0.0650    4.8070  -23.4470 C   0  0  0  0  0  0
   -1.8910    3.5810  -24.4350 C   0  0  0  0  0  0
    4.2990    1.6680  -23.0370 C   0  0  0  0  0  0
    5.2480    1.2920  -21.9100 C   0  0  2  0  0  0
    6.8000    2.8910  -22.3970 C   0  0  2  0  0  0
    5.2140    2.2480  -20.7060 C   0  0  0  0  0  0
   -2.2300    3.7860  -25.8540 C   0  0  0  0  0  0
   -1.4390    2.8800  -21.5180 C   0  0  0  0  0  0
   -0.3970    2.5390  -21.0310 C   0  0  0  0  0  0
   -0.8000    5.8170  -23.0590 F   0  0  0  0  0  0
   -3.6210    3.0570  -19.9670 F   0  0  0  0  0  0
    1.8390    6.1710  -22.6250 N   0  0  0  0  0  0
    4.0780    5.3040  -22.7440 N   0  0  0  0  0  0
    0.4040    2.7310  -24.5440 N   0  0  0  0  0  0
    4.5730    3.1420  -23.4530 N   0  0  0  0  0  0
    6.6500    1.4120  -22.3980 N   0  0  1  0  0  0
   -3.7720    4.0120  -27.5920 O   0  0  0  0  0  0
   -5.8909    3.5971  -20.9284 H   0  0  0  0  0  0
   -6.3929    3.9967  -23.3022 H   0  0  0  0  0  0
    5.6936    4.2357  -21.0956 H   0  0  0  0  0  0
    6.9798    3.2570  -20.2614 H   0  0  0  0  0  0
    6.4289    3.0921  -24.5123 H   0  0  0  0  0  0
    6.1460    4.5848  -23.5599 H   0  0  0  0  0  0
   -5.6099    4.1697  -25.6663 H   0  0  0  0  0  0
    2.3676    2.0398  -24.5603 H   0  0  0  0  0  0
    3.2602    1.5722  -22.6881 H   0  0  0  0  0  0
    4.4725    1.0063  -23.8984 H   0  0  0  0  0  0
    5.0512    0.2616  -21.5790 H   0  0  0  0  0  0
    7.8616    3.1758  -22.4404 H   0  0  0  0  0  0
    4.2190    2.7122  -20.6384 H   0  0  0  0  0  0
    5.5329    1.7071  -19.8028 H   0  0  0  0  0  0
   -1.4653    3.8141  -26.6217 H   0  0  0  0  0  0
    0.5207    2.2391  -20.6031 H   0  0  0  0  0  0
    7.3142    0.9040  -21.7145 H   0  0  0  0  0  0
   -2.9281    3.9606  -28.0253 H   0  0  0  0  0  0
    4.8930    8.0390  -22.7430 N   0  3  0  0  0  0
    5.3150    9.9830  -21.1640 C   0  0  0  0  0  0
    3.6900    7.5690  -21.9670 C   0  0  0  0  0  0
    5.2030    9.5110  -22.6250 C   0  0  0  0  0  0
    5.6180   11.4880  -21.1400 C   0  0  0  0  0  0
    4.7770    7.7999  -23.7153 H   0  0  0  0  0  0
    5.7003    7.5048  -22.4619 H   0  0  0  0  0  0
    6.1288    9.4372  -20.6641 H   0  0  0  0  0  0
    4.3652    9.7920  -20.6431 H   0  0  0  0  0  0
    2.8951    8.3269  -22.0290 H   0  0  0  0  0  0
    3.9550    7.4710  -20.9039 H   0  0  0  0  0  0
    4.4218   10.0911  -23.1381 H   0  0  0  0  0  0
    6.1430    9.7290  -23.1530 H   0  0  0  0  0  0
    5.6980   11.8298  -20.0975 H   0  0  0  0  0  0
    6.5668   11.6802  -21.6624 H   0  0  0  0  0  0
    4.8058   12.0341  -21.6421 H   0  0  0  0  0  0
  1  2  2  0  0  0
  1  3  1  0  0  0
  1 34  1  0  0  0
  2  6  1  0  0  0
  2 35  1  0  0  0
  3  5  2  0  0  0
  3 27  1  0  0  0
  4  5  1  0  0  0
  4  6  2  0  0  0
  4 18  1  0  0  0
  5 24  1  0  0  0
  6 10  1  0  0  0
  7 10  2  0  0  0
  7 23  1  0  0  0
  7 33  1  0  0  0
  8 21  1  0  0  0
  8 22  1  0  0  0
  8 36  1  0  0  0
  8 37  1  0  0  0
  9 21  1  0  0  0
  9 31  1  0  0  0
  9 38  1  0  0  0
  9 39  1  0  0  0
 10 40  1  0  0  0
 11 12  1  0  0  0
 11 14  2  0  0  0
 11 15  1  0  0  0
 12 17  1  0  0  0
 12 28  2  0  0  0
 13 28  1  0  0  0
 13 29  2  0  0  0
 13 54  1  0  0  0
 14 29  1  0  0  0
 14 31  1  0  0  0
 15 30  2  0  0  0
 15 41  1  0  0  0
 16 17  2  0  0  0
 16 18  1  0  0  0
 16 30  1  0  0  0
 17 26  1  0  0  0
 18 23  2  0  0  0
 19 20  1  0  0  0
 19 31  1  0  0  0
 19 42  1  0  0  0
 19 43  1  0  0  0
 20 22  1  0  0  0
 20 32  1  0  0  0
 20 44  1  0  0  0
 21 32  1  0  0  0
 21 45  1  0  0  0
 22 46  1  0  0  0
 22 47  1  0  0  0
 23 48  1  0  0  0
 24 25  3  0  0  0
 25 49  1  0  0  0
 32 50  1  0  0  0
 33 51  1  0  0  0
 52 54  1  0  0  0
 52 55  1  0  0  0
 52 57  1  0  0  0
 52 58  1  0  0  0
 53 55  1  0  0  0
 53 56  1  0  0  0
 53 59  1  0  0  0
 53 60  1  0  0  0
 54 61  1  0  0  0
 54 62  1  0  0  0
 55 63  1  0  0  0
 55 64  1  0  0  0
 56 65  1  0  0  0
 56 66  1  0  0  0
 56 67  1  0  0  0
M  CHG  1  52   1
M  END
> <s_m_entry_id>
838

> <s_m_entry_name>
000000680.1

> <s_m_Source_Path>
/Users/zaksoul/Documents/3r_UNI/2nd_SEMESTER/BSC/FRAG_RECON/RESULTS/2

> <s_m_Source_File>
000000680.mol2

> <i_m_Source_File_Index>
1

$$$$
No_0_702
                    3D
 Schrodinger Suite 2022-4.
 67 72  0  0  1  0            999 V2000
   -5.1460    3.6850  -21.7580 C   0  0  0  0  0  0
   -5.4120    3.9000  -23.0900 C   0  0  0  0  0  0
   -3.9090    3.4180  -21.4230 C   0  0  0  0  0  0
   -3.0190    3.5780  -23.5870 C   0  0  0  0  0  0
   -2.8580    3.3070  -22.1710 C   0  0  0  0  0  0
   -4.3650    3.8580  -24.1020 C   0  0  0  0  0  0
   -3.6110    3.9150  -26.3000 C   0  0  0  0  0  0
    6.1170    3.0230  -21.0580 C   0  0  0  0  0  0
    5.9770    3.2130  -23.6040 C   0  0  0  0  0  0
   -4.6160    4.0120  -25.4350 C   0  0  0  0  0  0
    2.1960    3.7850  -23.6080 C   0  0  0  0  0  0
    1.3820    4.8930  -23.2880 C   0  0  0  0  0  0
    3.1890    6.0650  -22.5880 C   0  0  0  0  0  0
    3.5980    3.9610  -23.2930 C   0  0  0  0  0  0
    1.6420    2.6840  -24.2890 C   0  0  0  0  0  0
   -0.4800    3.5090  -24.1620 C   0  0  0  0  0  0
    0.0550    4.7140  -23.5410 C   0  0  0  0  0  0
   -1.9330    3.5300  -24.5150 C   0  0  0  0  0  0
    4.1880    1.4550  -23.0470 C   0  0  0  0  0  0
    5.1200    1.0720  -21.9080 C   0  0  2  0  0  0
    6.7220    2.6120  -22.4170 C   0  0  2  0  0  0
    5.1090    2.0520  -20.7220 C   0  0  0  0  0  0
   -2.2590    3.7180  -25.9390 C   0  0  0  0  0  0
   -1.5160    2.8740  -21.5820 C   0  0  0  0  0  0
   -0.4880    2.5100  -21.0830 C   0  0  0  0  0  0
   -0.7800    5.7580  -23.1770 F   0  0  0  0  0  0
   -3.6990    3.1490  -20.0460 F   0  0  0  0  0  0
    1.8670    6.0390  -22.7360 N   0  0  0  0  0  0
    4.0790    5.1010  -22.8260 N   0  0  0  0  0  0
    0.3350    2.6080  -24.5950 N   0  0  0  0  0  0
    4.5090    2.9110  -23.4900 N   0  0  0  0  0  0
    6.5270    1.1390  -22.3900 N   0  0  1  0  0  0
   -3.7850    3.9560  -27.6890 O   0  0  0  0  0  0
   -5.9473    3.7402  -21.0300 H   0  0  0  0  0  0
   -6.4255    4.1067  -23.4141 H   0  0  0  0  0  0
    5.6528    4.0161  -21.1488 H   0  0  0  0  0  0
    6.9038    3.0149  -20.2893 H   0  0  0  0  0  0
    6.3678    2.7829  -24.5380 H   0  0  0  0  0  0
    6.1273    4.3026  -23.6171 H   0  0  0  0  0  0
   -5.6257    4.2097  -25.7763 H   0  0  0  0  0  0
    2.2753    1.8559  -24.5861 H   0  0  0  0  0  0
    3.1453    1.3985  -22.7011 H   0  0  0  0  0  0
    4.3445    0.7706  -23.8939 H   0  0  0  0  0  0
    4.8899    0.0549  -21.5579 H   0  0  0  0  0  0
    7.7921    2.8631  -22.4604 H   0  0  0  0  0  0
    4.1289    2.5486  -20.6685 H   0  0  0  0  0  0
    5.4068    1.5200  -19.8064 H   0  0  0  0  0  0
   -1.4895    3.7070  -26.7024 H   0  0  0  0  0  0
    0.4177    2.1901  -20.6442 H   0  0  0  0  0  0
    7.1718    0.6247  -21.6928 H   0  0  0  0  0  0
   -2.9413    3.8709  -28.1173 H   0  0  0  0  0  0
    3.4450    8.5270  -23.0370 N   0  3  0  0  0  0
    4.9110   10.1620  -21.7620 C   0  0  0  0  0  0
    3.7570    7.3920  -22.0960 C   0  0  0  0  0  0
    3.5530    9.9080  -22.4430 C   0  0  0  0  0  0
    4.9270   11.5810  -21.1760 C   0  0  0  0  0  0
    2.5205    8.3991  -23.4178 H   0  0  0  0  0  0
    4.0448    8.4640  -23.8447 H   0  0  0  0  0  0
    5.7169   10.0620  -22.5039 H   0  0  0  0  0  0
    5.0580    9.4301  -20.9541 H   0  0  0  0  0  0
    3.3469    7.6190  -21.1009 H   0  0  0  0  0  0
    4.8472    7.3020  -21.9800 H   0  0  0  0  0  0
    2.7447   10.0561  -21.7117 H   0  0  0  0  0  0
    3.3940   10.6589  -23.2309 H   0  0  0  0  0  0
    5.8959   11.7660  -20.6891 H   0  0  0  0  0  0
    4.7781   12.3127  -21.9837 H   0  0  0  0  0  0
    4.1197   11.6820  -20.4357 H   0  0  0  0  0  0
  1  2  2  0  0  0
  1  3  1  0  0  0
  1 34  1  0  0  0
  2  6  1  0  0  0
  2 35  1  0  0  0
  3  5  2  0  0  0
  3 27  1  0  0  0
  4  5  1  0  0  0
  4  6  2  0  0  0
  4 18  1  0  0  0
  5 24  1  0  0  0
  6 10  1  0  0  0
  7 10  2  0  0  0
  7 23  1  0  0  0
  7 33  1  0  0  0
  8 21  1  0  0  0
  8 22  1  0  0  0
  8 36  1  0  0  0
  8 37  1  0  0  0
  9 21  1  0  0  0
  9 31  1  0  0  0
  9 38  1  0  0  0
  9 39  1  0  0  0
 10 40  1  0  0  0
 11 12  1  0  0  0
 11 14  2  0  0  0
 11 15  1  0  0  0
 12 17  1  0  0  0
 12 28  2  0  0  0
 13 28  1  0  0  0
 13 29  2  0  0  0
 13 54  1  0  0  0
 14 29  1  0  0  0
 14 31  1  0  0  0
 15 30  2  0  0  0
 15 41  1  0  0  0
 16 17  2  0  0  0
 16 18  1  0  0  0
 16 30  1  0  0  0
 17 26  1  0  0  0
 18 23  2  0  0  0
 19 20  1  0  0  0
 19 31  1  0  0  0
 19 42  1  0  0  0
 19 43  1  0  0  0
 20 22  1  0  0  0
 20 32  1  0  0  0
 20 44  1  0  0  0
 21 32  1  0  0  0
 21 45  1  0  0  0
 22 46  1  0  0  0
 22 47  1  0  0  0
 23 48  1  0  0  0
 24 25  3  0  0  0
 25 49  1  0  0  0
 32 50  1  0  0  0
 33 51  1  0  0  0
 52 54  1  0  0  0
 52 55  1  0  0  0
 52 57  1  0  0  0
 52 58  1  0  0  0
 53 55  1  0  0  0
 53 56  1  0  0  0
 53 59  1  0  0  0
 53 60  1  0  0  0
 54 61  1  0  0  0
 54 62  1  0  0  0
 55 63  1  0  0  0
 55 64  1  0  0  0
 56 65  1  0  0  0
 56 66  1  0  0  0
 56 67  1  0  0  0
M  CHG  1  52   1
M  END
> <s_m_entry_id>
839

> <s_m_entry_name>
000000681.1

> <s_m_Source_Path>
/Users/zaksoul/Documents/3r_UNI/2nd_SEMESTER/BSC/FRAG_RECON/RESULTS/2

> <s_m_Source_File>
000000681.mol2

> <i_m_Source_File_Index>
1

$$$$
No_0_703
                    3D
 Schrodinger Suite 2022-4.
 64 69  0  0  1  0            999 V2000
   -5.1810    3.6090  -21.8530 C   0  0  0  0  0  0
   -5.4520    3.8050  -23.1860 C   0  0  0  0  0  0
   -3.9420    3.3510  -21.5190 C   0  0  0  0  0  0
   -3.0590    3.4860  -23.6870 C   0  0  0  0  0  0
   -2.8930    3.2340  -22.2690 C   0  0  0  0  0  0
   -4.4090    3.7540  -24.2010 C   0  0  0  0  0  0
   -3.6630    3.7850  -26.4030 C   0  0  0  0  0  0
    6.0870    3.0010  -21.1820 C   0  0  0  0  0  0
    5.9380    3.1560  -23.7310 C   0  0  0  0  0  0
   -4.6650    3.8890  -25.5350 C   0  0  0  0  0  0
    2.1540    3.7130  -23.7290 C   0  0  0  0  0  0
    1.3370    4.8230  -23.4210 C   0  0  0  0  0  0
    3.1410    6.0110  -22.7430 C   0  0  0  0  0  0
    3.5570    3.8990  -23.4210 C   0  0  0  0  0  0
    1.6030    2.6010  -24.3930 C   0  0  0  0  0  0
   -0.5220    3.4190  -24.2700 C   0  0  0  0  0  0
    0.0100    4.6350  -23.6670 C   0  0  0  0  0  0
   -1.9770    3.4300  -24.6180 C   0  0  0  0  0  0
    4.1570    1.3990  -23.1440 C   0  0  0  0  0  0
    5.0950    1.0350  -22.0030 C   0  0  2  0  0  0
    6.6890    2.5740  -22.5390 C   0  0  2  0  0  0
    5.0840    2.0310  -20.8310 C   0  0  0  0  0  0
   -2.3080    3.5970  -26.0440 C   0  0  0  0  0  0
   -1.5470    2.8150  -21.6780 C   0  0  0  0  0  0
   -0.5150    2.4620  -21.1780 C   0  0  0  0  0  0
   -0.8280    5.6800  -23.3140 F   0  0  0  0  0  0
   -3.7260    3.1020  -20.1390 F   0  0  0  0  0  0
    1.8200    5.9780  -22.8860 N   0  0  0  0  0  0
    4.0350    5.0470  -22.9720 N   0  0  0  0  0  0
    0.2950    2.5160  -24.6930 N   0  0  0  0  0  0
    4.4710    2.8500  -23.6070 N   0  0  0  0  0  0
    6.5000    1.1010  -22.4910 N   0  0  1  0  0  0
   -3.8410    3.8060  -27.7920 O   0  0  0  0  0  0
   -5.9796    3.6712  -21.1226 H   0  0  0  0  0  0
   -6.4675    4.0037  -23.5091 H   0  0  0  0  0  0
    5.6179    3.9906  -21.2849 H   0  0  0  0  0  0
    6.8763    3.0060  -20.4159 H   0  0  0  0  0  0
    6.3275    2.7150  -24.6604 H   0  0  0  0  0  0
    6.0833    4.2460  -23.7593 H   0  0  0  0  0  0
   -5.6765    4.0776  -25.8762 H   0  0  0  0  0  0
    2.2385    1.7718  -24.6821 H   0  0  0  0  0  0
    3.1157    1.3435  -22.7939 H   0  0  0  0  0  0
    4.3144    0.7047  -23.9826 H   0  0  0  0  0  0
    4.8700    0.0218  -21.6387 H   0  0  0  0  0  0
    7.7578    2.8293  -22.5885 H   0  0  0  0  0  0
    4.1018    2.5236  -20.7805 H   0  0  0  0  0  0
    5.3877    1.5123  -19.9097 H   0  0  0  0  0  0
   -1.5411    3.5789  -26.8099 H   0  0  0  0  0  0
    0.3934    2.1519  -20.7378 H   0  0  0  0  0  0
    7.1492    0.5983  -21.7894 H   0  0  0  0  0  0
   -2.9984    3.7179  -28.2217 H   0  0  0  0  0  0
    3.3820    7.5990  -20.8210 N   0  3  0  0  0  0
    3.7060    7.3460  -22.2710 C   0  0  0  0  0  0
    3.9410    8.8700  -20.2360 C   0  0  0  0  0  0
    5.4670    8.8010  -20.0420 C   0  0  0  0  0  0
    3.6921    6.8148  -20.2688 H   0  0  0  0  0  0
    2.3819    7.5870  -20.6960 H   0  0  0  0  0  0
    4.7973    7.3510  -22.4089 H   0  0  0  0  0  0
    3.2901    8.1578  -22.8858 H   0  0  0  0  0  0
    3.4569    9.0710  -19.2689 H   0  0  0  0  0  0
    3.6939    9.7152  -20.8952 H   0  0  0  0  0  0
    5.8271    9.7482  -19.6139 H   0  0  0  0  0  0
    5.7129    7.9743  -19.3593 H   0  0  0  0  0  0
    5.9542    8.6299  -21.0133 H   0  0  0  0  0  0
  1  2  2  0  0  0
  1  3  1  0  0  0
  1 34  1  0  0  0
  2  6  1  0  0  0
  2 35  1  0  0  0
  3  5  2  0  0  0
  3 27  1  0  0  0
  4  5  1  0  0  0
  4  6  2  0  0  0
  4 18  1  0  0  0
  5 24  1  0  0  0
  6 10  1  0  0  0
  7 10  2  0  0  0
  7 23  1  0  0  0
  7 33  1  0  0  0
  8 21  1  0  0  0
  8 22  1  0  0  0
  8 36  1  0  0  0
  8 37  1  0  0  0
  9 21  1  0  0  0
  9 31  1  0  0  0
  9 38  1  0  0  0
  9 39  1  0  0  0
 10 40  1  0  0  0
 11 12  1  0  0  0
 11 14  2  0  0  0
 11 15  1  0  0  0
 12 17  1  0  0  0
 12 28  2  0  0  0
 13 28  1  0  0  0
 13 29  2  0  0  0
 13 53  1  0  0  0
 14 29  1  0  0  0
 14 31  1  0  0  0
 15 30  2  0  0  0
 15 41  1  0  0  0
 16 17  2  0  0  0
 16 18  1  0  0  0
 16 30  1  0  0  0
 17 26  1  0  0  0
 18 23  2  0  0  0
 19 20  1  0  0  0
 19 31  1  0  0  0
 19 42  1  0  0  0
 19 43  1  0  0  0
 20 22  1  0  0  0
 20 32  1  0  0  0
 20 44  1  0  0  0
 21 32  1  0  0  0
 21 45  1  0  0  0
 22 46  1  0  0  0
 22 47  1  0  0  0
 23 48  1  0  0  0
 24 25  3  0  0  0
 25 49  1  0  0  0
 32 50  1  0  0  0
 33 51  1  0  0  0
 52 53  1  0  0  0
 52 54  1  0  0  0
 52 56  1  0  0  0
 52 57  1  0  0  0
 53 58  1  0  0  0
 53 59  1  0  0  0
 54 55  1  0  0  0
 54 60  1  0  0  0
 54 61  1  0  0  0
 55 62  1  0  0  0
 55 63  1  0  0  0
 55 64  1  0  0  0
M  CHG  1  52   1
M  END
> <s_m_entry_id>
840

> <s_m_entry_name>
000000682.1

> <s_m_Source_Path>
/Users/zaksoul/Documents/3r_UNI/2nd_SEMESTER/BSC/FRAG_RECON/RESULTS/2

> <s_m_Source_File>
000000682.mol2

> <i_m_Source_File_Index>
1

$$$$
No_0_704
                    3D
 Schrodinger Suite 2022-4.
 64 69  0  0  1  0            999 V2000
   -5.1810    3.6090  -21.8530 C   0  0  0  0  0  0
   -5.4520    3.8050  -23.1860 C   0  0  0  0  0  0
   -3.9420    3.3510  -21.5190 C   0  0  0  0  0  0
   -3.0590    3.4860  -23.6870 C   0  0  0  0  0  0
   -2.8930    3.2340  -22.2690 C   0  0  0  0  0  0
   -4.4090    3.7540  -24.2010 C   0  0  0  0  0  0
   -3.6630    3.7850  -26.4030 C   0  0  0  0  0  0
    6.0870    3.0010  -21.1820 C   0  0  0  0  0  0
    5.9380    3.1560  -23.7310 C   0  0  0  0  0  0
   -4.6650    3.8890  -25.5350 C   0  0  0  0  0  0
    2.1540    3.7130  -23.7290 C   0  0  0  0  0  0
    1.3370    4.8230  -23.4210 C   0  0  0  0  0  0
    3.1410    6.0110  -22.7430 C   0  0  0  0  0  0
    3.5570    3.8990  -23.4210 C   0  0  0  0  0  0
    1.6030    2.6010  -24.3930 C   0  0  0  0  0  0
   -0.5220    3.4190  -24.2700 C   0  0  0  0  0  0
    0.0100    4.6350  -23.6670 C   0  0  0  0  0  0
   -1.9770    3.4300  -24.6180 C   0  0  0  0  0  0
    4.1570    1.3990  -23.1440 C   0  0  0  0  0  0
    5.0950    1.0350  -22.0030 C   0  0  2  0  0  0
    6.6890    2.5740  -22.5390 C   0  0  2  0  0  0
    5.0840    2.0310  -20.8310 C   0  0  0  0  0  0
   -2.3080    3.5970  -26.0440 C   0  0  0  0  0  0
   -1.5470    2.8150  -21.6780 C   0  0  0  0  0  0
   -0.5150    2.4620  -21.1780 C   0  0  0  0  0  0
   -0.8280    5.6800  -23.3140 F   0  0  0  0  0  0
   -3.7260    3.1020  -20.1390 F   0  0  0  0  0  0
    1.8200    5.9780  -22.8860 N   0  0  0  0  0  0
    4.0350    5.0470  -22.9720 N   0  0  0  0  0  0
    0.2950    2.5160  -24.6930 N   0  0  0  0  0  0
    4.4710    2.8500  -23.6070 N   0  0  0  0  0  0
    6.5000    1.1010  -22.4910 N   0  0  1  0  0  0
   -3.8410    3.8060  -27.7920 O   0  0  0  0  0  0
   -5.9796    3.6712  -21.1226 H   0  0  0  0  0  0
   -6.4675    4.0037  -23.5091 H   0  0  0  0  0  0
    5.6179    3.9906  -21.2849 H   0  0  0  0  0  0
    6.8763    3.0060  -20.4159 H   0  0  0  0  0  0
    6.3275    2.7150  -24.6604 H   0  0  0  0  0  0
    6.0833    4.2460  -23.7593 H   0  0  0  0  0  0
   -5.6765    4.0776  -25.8762 H   0  0  0  0  0  0
    2.2385    1.7718  -24.6821 H   0  0  0  0  0  0
    3.1157    1.3435  -22.7939 H   0  0  0  0  0  0
    4.3144    0.7047  -23.9826 H   0  0  0  0  0  0
    4.8700    0.0218  -21.6387 H   0  0  0  0  0  0
    7.7578    2.8293  -22.5885 H   0  0  0  0  0  0
    4.1018    2.5236  -20.7805 H   0  0  0  0  0  0
    5.3877    1.5123  -19.9097 H   0  0  0  0  0  0
   -1.5411    3.5789  -26.8099 H   0  0  0  0  0  0
    0.3934    2.1519  -20.7378 H   0  0  0  0  0  0
    7.1492    0.5983  -21.7894 H   0  0  0  0  0  0
   -2.9984    3.7179  -28.2217 H   0  0  0  0  0  0
    4.7320    7.1560  -21.1830 N   0  3  0  0  0  0
    3.7060    7.3460  -22.2710 C   0  0  0  0  0  0
    5.3950    8.4120  -20.6800 C   0  0  0  0  0  0
    6.3730    9.0080  -21.7110 C   0  0  0  0  0  0
    5.4391    6.5119  -21.5011 H   0  0  0  0  0  0
    4.3089    6.6699  -20.4079 H   0  0  0  0  0  0
    4.1668    7.8697  -23.1215 H   0  0  0  0  0  0
    2.8877    7.9782  -21.8959 H   0  0  0  0  0  0
    5.9354    8.1928  -19.7473 H   0  0  0  0  0  0
    4.6251    9.1579  -20.4330 H   0  0  0  0  0  0
    6.8299    9.9199  -21.2991 H   0  0  0  0  0  0
    7.1607    8.2742  -21.9369 H   0  0  0  0  0  0
    5.8281    9.2560  -22.6338 H   0  0  0  0  0  0
  1  2  2  0  0  0
  1  3  1  0  0  0
  1 34  1  0  0  0
  2  6  1  0  0  0
  2 35  1  0  0  0
  3  5  2  0  0  0
  3 27  1  0  0  0
  4  5  1  0  0  0
  4  6  2  0  0  0
  4 18  1  0  0  0
  5 24  1  0  0  0
  6 10  1  0  0  0
  7 10  2  0  0  0
  7 23  1  0  0  0
  7 33  1  0  0  0
  8 21  1  0  0  0
  8 22  1  0  0  0
  8 36  1  0  0  0
  8 37  1  0  0  0
  9 21  1  0  0  0
  9 31  1  0  0  0
  9 38  1  0  0  0
  9 39  1  0  0  0
 10 40  1  0  0  0
 11 12  1  0  0  0
 11 14  2  0  0  0
 11 15  1  0  0  0
 12 17  1  0  0  0
 12 28  2  0  0  0
 13 28  1  0  0  0
 13 29  2  0  0  0
 13 53  1  0  0  0
 14 29  1  0  0  0
 14 31  1  0  0  0
 15 30  2  0  0  0
 15 41  1  0  0  0
 16 17  2  0  0  0
 16 18  1  0  0  0
 16 30  1  0  0  0
 17 26  1  0  0  0
 18 23  2  0  0  0
 19 20  1  0  0  0
 19 31  1  0  0  0
 19 42  1  0  0  0
 19 43  1  0  0  0
 20 22  1  0  0  0
 20 32  1  0  0  0
 20 44  1  0  0  0
 21 32  1  0  0  0
 21 45  1  0  0  0
 22 46  1  0  0  0
 22 47  1  0  0  0
 23 48  1  0  0  0
 24 25  3  0  0  0
 25 49  1  0  0  0
 32 50  1  0  0  0
 33 51  1  0  0  0
 52 53  1  0  0  0
 52 54  1  0  0  0
 52 56  1  0  0  0
 52 57  1  0  0  0
 53 58  1  0  0  0
 53 59  1  0  0  0
 54 55  1  0  0  0
 54 60  1  0  0  0
 54 61  1  0  0  0
 55 62  1  0  0  0
 55 63  1  0  0  0
 55 64  1  0  0  0
M  CHG  1  52   1
M  END
> <s_m_entry_id>
841

> <s_m_entry_name>
000000683.1

> <s_m_Source_Path>
/Users/zaksoul/Documents/3r_UNI/2nd_SEMESTER/BSC/FRAG_RECON/RESULTS/2

> <s_m_Source_File>
000000683.mol2

> <i_m_Source_File_Index>
1

$$$$
No_0_705
                    3D
 Schrodinger Suite 2022-4.
 64 69  0  0  1  0            999 V2000
   -5.4090    3.5510  -21.7910 C   0  0  0  0  0  0
   -5.6890    3.7490  -23.1220 C   0  0  0  0  0  0
   -4.1700    3.2830  -21.4660 C   0  0  0  0  0  0
   -3.3030    3.4110  -23.6410 C   0  0  0  0  0  0
   -3.1280    3.1580  -22.2240 C   0  0  0  0  0  0
   -4.6530    3.6900  -24.1450 C   0  0  0  0  0  0
   -3.9240    3.7150  -26.3520 C   0  0  0  0  0  0
    5.8580    2.8540  -21.2060 C   0  0  0  0  0  0
    5.6910    3.0100  -23.7520 C   0  0  0  0  0  0
   -4.9190    3.8270  -25.4770 C   0  0  0  0  0  0
    1.9120    3.5970  -23.7220 C   0  0  0  0  0  0
    1.1070    4.7130  -23.4080 C   0  0  0  0  0  0
    2.9250    5.8860  -22.7430 C   0  0  0  0  0  0
    3.3180    3.7720  -23.4250 C   0  0  0  0  0  0
    1.3470    2.4890  -24.3820 C   0  0  0  0  0  0
   -0.7710    3.3240  -24.2430 C   0  0  0  0  0  0
   -0.2240    4.5360  -23.6440 C   0  0  0  0  0  0
   -2.2280    3.3470  -24.5800 C   0  0  0  0  0  0
    3.9010    1.2670  -23.1520 C   0  0  0  0  0  0
    4.8450    0.8950  -22.0190 C   0  0  2  0  0  0
    6.4470    2.4220  -22.5660 C   0  0  2  0  0  0
    4.8510    1.8910  -20.8470 C   0  0  0  0  0  0
   -2.5680    3.5170  -26.0030 C   0  0  0  0  0  0
   -1.7810    2.7270  -21.6430 C   0  0  0  0  0  0
   -0.7480    2.3660  -21.1520 C   0  0  0  0  0  0
   -1.0510    5.5880  -23.2840 F   0  0  0  0  0  0
   -3.9450    3.0310  -20.0880 F   0  0  0  0  0  0
    1.6020    5.8640  -22.8760 N   0  0  0  0  0  0
    3.8090    4.9160  -22.9790 N   0  0  0  0  0  0
    0.0360    2.4150  -24.6730 N   0  0  0  0  0  0
    4.2230    2.7160  -23.6180 N   0  0  0  0  0  0
    6.2460    0.9500  -22.5170 N   0  0  1  0  0  0
   -4.1130    3.7390  -27.7390 O   0  0  0  0  0  0
   -6.2016    3.6182  -21.0546 H   0  0  0  0  0  0
   -6.7053    3.9559  -23.4373 H   0  0  0  0  0  0
    5.3965    3.8476  -21.3050 H   0  0  0  0  0  0
    6.6533    2.8520  -20.4460 H   0  0  0  0  0  0
    6.0695    2.5659  -24.6845 H   0  0  0  0  0  0
    5.8454    4.0987  -23.7813 H   0  0  0  0  0  0
   -5.9314    4.0247  -25.8101 H   0  0  0  0  0  0
    1.9735    1.6547  -24.6762 H   0  0  0  0  0  0
    2.8617    1.2196  -22.7948 H   0  0  0  0  0  0
    4.0462    0.5720  -23.9922 H   0  0  0  0  0  0
    4.6139   -0.1161  -21.6527 H   0  0  0  0  0  0
    7.5175    2.6682  -22.6245 H   0  0  0  0  0  0
    3.8732    2.3915  -20.7885 H   0  0  0  0  0  0
    5.1567    1.3695  -19.9280 H   0  0  0  0  0  0
   -1.8077    3.4939  -26.7753 H   0  0  0  0  0  0
    0.1614    2.0489  -20.7188 H   0  0  0  0  0  0
    6.8971    0.4421  -21.8210 H   0  0  0  0  0  0
   -3.2746    3.6440  -28.1755 H   0  0  0  0  0  0
    4.9280    7.0630  -21.8060 N   0  3  0  0  0  0
    3.5040    7.2170  -22.2750 C   0  0  0  0  0  0
    5.6150    8.3310  -21.3700 C   0  0  0  0  0  0
    5.9450    9.2530  -22.5600 C   0  0  0  0  0  0
    5.4720    6.6220  -22.5310 H   0  0  0  0  0  0
    4.9600    6.3928  -21.0538 H   0  0  0  0  0  0
    3.4670    7.9428  -23.1008 H   0  0  0  0  0  0
    2.8890    7.6160  -21.4549 H   0  0  0  0  0  0
    6.5424    8.0789  -20.8348 H   0  0  0  0  0  0
    4.9730    8.8690  -20.6570 H   0  0  0  0  0  0
    6.4439   10.1617  -22.1921 H   0  0  0  0  0  0
    6.6120    8.7270  -23.2590 H   0  0  0  0  0  0
    5.0157    9.5301  -23.0792 H   0  0  0  0  0  0
  1  2  2  0  0  0
  1  3  1  0  0  0
  1 34  1  0  0  0
  2  6  1  0  0  0
  2 35  1  0  0  0
  3  5  2  0  0  0
  3 27  1  0  0  0
  4  5  1  0  0  0
  4  6  2  0  0  0
  4 18  1  0  0  0
  5 24  1  0  0  0
  6 10  1  0  0  0
  7 10  2  0  0  0
  7 23  1  0  0  0
  7 33  1  0  0  0
  8 21  1  0  0  0
  8 22  1  0  0  0
  8 36  1  0  0  0
  8 37  1  0  0  0
  9 21  1  0  0  0
  9 31  1  0  0  0
  9 38  1  0  0  0
  9 39  1  0  0  0
 10 40  1  0  0  0
 11 12  1  0  0  0
 11 14  2  0  0  0
 11 15  1  0  0  0
 12 17  1  0  0  0
 12 28  2  0  0  0
 13 28  1  0  0  0
 13 29  2  0  0  0
 13 53  1  0  0  0
 14 29  1  0  0  0
 14 31  1  0  0  0
 15 30  2  0  0  0
 15 41  1  0  0  0
 16 17  2  0  0  0
 16 18  1  0  0  0
 16 30  1  0  0  0
 17 26  1  0  0  0
 18 23  2  0  0  0
 19 20  1  0  0  0
 19 31  1  0  0  0
 19 42  1  0  0  0
 19 43  1  0  0  0
 20 22  1  0  0  0
 20 32  1  0  0  0
 20 44  1  0  0  0
 21 32  1  0  0  0
 21 45  1  0  0  0
 22 46  1  0  0  0
 22 47  1  0  0  0
 23 48  1  0  0  0
 24 25  3  0  0  0
 25 49  1  0  0  0
 32 50  1  0  0  0
 33 51  1  0  0  0
 52 53  1  0  0  0
 52 54  1  0  0  0
 52 56  1  0  0  0
 52 57  1  0  0  0
 53 58  1  0  0  0
 53 59  1  0  0  0
 54 55  1  0  0  0
 54 60  1  0  0  0
 54 61  1  0  0  0
 55 62  1  0  0  0
 55 63  1  0  0  0
 55 64  1  0  0  0
M  CHG  1  52   1
M  END
> <s_m_entry_id>
842

> <s_m_entry_name>
000000684.1

> <s_m_Source_Path>
/Users/zaksoul/Documents/3r_UNI/2nd_SEMESTER/BSC/FRAG_RECON/RESULTS/2

> <s_m_Source_File>
000000684.mol2

> <i_m_Source_File_Index>
1

$$$$
No_0_706
                    3D
 Schrodinger Suite 2022-4.
 64 69  0  0  1  0            999 V2000
   -5.0890    3.5160  -21.7740 C   0  0  0  0  0  0
   -5.3710    3.7640  -23.0970 C   0  0  0  0  0  0
   -3.8450    3.2590  -21.4580 C   0  0  0  0  0  0
   -2.9780    3.4920  -23.6250 C   0  0  0  0  0  0
   -2.8000    3.1840  -22.2190 C   0  0  0  0  0  0
   -4.3330    3.7660  -24.1190 C   0  0  0  0  0  0
   -3.6020    3.8960  -26.3220 C   0  0  0  0  0  0
    6.1880    3.0060  -21.1960 C   0  0  0  0  0  0
    6.0210    3.2640  -23.7340 C   0  0  0  0  0  0
   -4.6000    3.9530  -25.4450 C   0  0  0  0  0  0
    2.2320    3.7790  -23.6880 C   0  0  0  0  0  0
    1.4050    4.8650  -23.3290 C   0  0  0  0  0  0
    3.2010    6.0440  -22.6140 C   0  0  0  0  0  0
    3.6340    3.9670  -23.3800 C   0  0  0  0  0  0
    1.6880    2.6890  -24.3940 C   0  0  0  0  0  0
   -0.4440    3.4770  -24.2240 C   0  0  0  0  0  0
    0.0790    4.6730  -23.5750 C   0  0  0  0  0  0
   -1.9010    3.4870  -24.5630 C   0  0  0  0  0  0
    4.2640    1.4640  -23.2100 C   0  0  0  0  0  0
    5.2130    1.0640  -22.0900 C   0  0  2  0  0  0
    6.7870    2.6420  -22.5720 C   0  0  2  0  0  0
    5.1990    2.0110  -20.8780 C   0  0  0  0  0  0
   -2.2430    3.7090  -25.9790 C   0  0  0  0  0  0
   -1.4460    2.7560  -21.6540 C   0  0  0  0  0  0
   -0.4080    2.3940  -21.1750 C   0  0  0  0  0  0
   -0.7680    5.6940  -23.1740 F   0  0  0  0  0  0
   -3.6180    2.9550  -20.0910 F   0  0  0  0  0  0
    1.8790    6.0030  -22.7500 N   0  0  0  0  0  0
    4.1030    5.1010  -22.8870 N   0  0  0  0  0  0
    0.3800    2.6020  -24.6890 N   0  0  0  0  0  0
    4.5590    2.9370  -23.6150 N   0  0  0  0  0  0
    6.6130    1.1660  -22.5840 N   0  0  1  0  0  0
   -3.7900    3.9730  -27.7070 O   0  0  0  0  0  0
   -5.8839    3.5391  -21.0373 H   0  0  0  0  0  0
   -6.3907    3.9647  -23.4051 H   0  0  0  0  0  0
    5.7085    3.9943  -21.2545 H   0  0  0  0  0  0
    6.9822    2.9878  -20.4351 H   0  0  0  0  0  0
    6.4094    2.8665  -24.6833 H   0  0  0  0  0  0
    6.1552    4.3557  -23.7189 H   0  0  0  0  0  0
   -5.6158    4.1447  -25.7712 H   0  0  0  0  0  0
    2.3310    1.8795  -24.7200 H   0  0  0  0  0  0
    3.2254    1.3833  -22.8567 H   0  0  0  0  0  0
    4.4226    0.8065  -24.0775 H   0  0  0  0  0  0
    5.0010    0.0341  -21.7669 H   0  0  0  0  0  0
    7.8528    2.9105  -22.6174 H   0  0  0  0  0  0
    4.2119    2.4904  -20.8023 H   0  0  0  0  0  0
    5.5130    1.4578  -19.9806 H   0  0  0  0  0  0
   -1.4812    3.7311  -26.7498 H   0  0  0  0  0  0
    0.5065    2.0762  -20.7532 H   0  0  0  0  0  0
    7.2723    0.6424  -21.9076 H   0  0  0  0  0  0
   -2.9493    3.9117  -28.1451 H   0  0  0  0  0  0
    5.2430    7.4630  -22.3060 N   0  3  0  0  0  0
    3.7540    7.3660  -22.0900 C   0  0  0  0  0  0
    5.8850    8.7550  -21.8720 C   0  0  0  0  0  0
    5.5190    9.9280  -22.8010 C   0  0  0  0  0  0
    5.4500    7.2990  -23.2788 H   0  0  0  0  0  0
    5.6980    6.6930  -21.8410 H   0  0  0  0  0  0
    3.2541    8.2009  -22.6029 H   0  0  0  0  0  0
    3.5330    7.4550  -21.0161 H   0  0  0  0  0  0
    6.9778    8.6310  -21.8520 H   0  0  0  0  0  0
    5.5730    8.9910  -20.8439 H   0  0  0  0  0  0
    6.0099   10.8458  -22.4451 H   0  0  0  0  0  0
    5.8570    9.7060  -23.8240 H   0  0  0  0  0  0
    4.4285   10.0719  -22.7990 H   0  0  0  0  0  0
  1  2  2  0  0  0
  1  3  1  0  0  0
  1 34  1  0  0  0
  2  6  1  0  0  0
  2 35  1  0  0  0
  3  5  2  0  0  0
  3 27  1  0  0  0
  4  5  1  0  0  0
  4  6  2  0  0  0
  4 18  1  0  0  0
  5 24  1  0  0  0
  6 10  1  0  0  0
  7 10  2  0  0  0
  7 23  1  0  0  0
  7 33  1  0  0  0
  8 21  1  0  0  0
  8 22  1  0  0  0
  8 36  1  0  0  0
  8 37  1  0  0  0
  9 21  1  0  0  0
  9 31  1  0  0  0
  9 38  1  0  0  0
  9 39  1  0  0  0
 10 40  1  0  0  0
 11 12  1  0  0  0
 11 14  2  0  0  0
 11 15  1  0  0  0
 12 17  1  0  0  0
 12 28  2  0  0  0
 13 28  1  0  0  0
 13 29  2  0  0  0
 13 53  1  0  0  0
 14 29  1  0  0  0
 14 31  1  0  0  0
 15 30  2  0  0  0
 15 41  1  0  0  0
 16 17  2  0  0  0
 16 18  1  0  0  0
 16 30  1  0  0  0
 17 26  1  0  0  0
 18 23  2  0  0  0
 19 20  1  0  0  0
 19 31  1  0  0  0
 19 42  1  0  0  0
 19 43  1  0  0  0
 20 22  1  0  0  0
 20 32  1  0  0  0
 20 44  1  0  0  0
 21 32  1  0  0  0
 21 45  1  0  0  0
 22 46  1  0  0  0
 22 47  1  0  0  0
 23 48  1  0  0  0
 24 25  3  0  0  0
 25 49  1  0  0  0
 32 50  1  0  0  0
 33 51  1  0  0  0
 52 53  1  0  0  0
 52 54  1  0  0  0
 52 56  1  0  0  0
 52 57  1  0  0  0
 53 58  1  0  0  0
 53 59  1  0  0  0
 54 55  1  0  0  0
 54 60  1  0  0  0
 54 61  1  0  0  0
 55 62  1  0  0  0
 55 63  1  0  0  0
 55 64  1  0  0  0
M  CHG  1  52   1
M  END
> <s_m_entry_id>
843

> <s_m_entry_name>
000000685.1

> <s_m_Source_Path>
/Users/zaksoul/Documents/3r_UNI/2nd_SEMESTER/BSC/FRAG_RECON/RESULTS/2

> <s_m_Source_File>
000000685.mol2

> <i_m_Source_File_Index>
1

$$$$
No_0_707
                    3D
 Schrodinger Suite 2022-4.
 64 69  0  0  1  0            999 V2000
   -5.1690    3.6700  -21.6450 C   0  0  0  0  0  0
   -5.4540    3.8690  -22.9750 C   0  0  0  0  0  0
   -3.9260    3.4130  -21.3240 C   0  0  0  0  0  0
   -3.0660    3.5550  -23.5010 C   0  0  0  0  0  0
   -2.8850    3.3000  -22.0850 C   0  0  0  0  0  0
   -4.4200    3.8220  -24.0010 C   0  0  0  0  0  0
   -3.6970    3.8590  -26.2090 C   0  0  0  0  0  0
    6.1060    3.0780  -21.0890 C   0  0  0  0  0  0
    5.9310    3.2390  -23.6360 C   0  0  0  0  0  0
   -4.6910    3.9590  -25.3320 C   0  0  0  0  0  0
    2.1470    3.7900  -23.5950 C   0  0  0  0  0  0
    1.3310    4.8980  -23.2760 C   0  0  0  0  0  0
    3.1400    6.0870  -22.6130 C   0  0  0  0  0  0
    3.5520    3.9780  -23.3000 C   0  0  0  0  0  0
    1.5900    2.6790  -24.2560 C   0  0  0  0  0  0
   -0.5350    3.4930  -24.1090 C   0  0  0  0  0  0
    0.0020    4.7090  -23.5090 C   0  0  0  0  0  0
   -1.9920    3.5030  -24.4430 C   0  0  0  0  0  0
    4.1590    1.4770  -23.0350 C   0  0  0  0  0  0
    5.1090    1.1130  -21.9040 C   0  0  2  0  0  0
    6.6950    2.6560  -22.4530 C   0  0  2  0  0  0
    5.1090    2.1050  -20.7300 C   0  0  0  0  0  0
   -2.3380    3.6730  -25.8650 C   0  0  0  0  0  0
   -1.5330    2.8810  -21.5090 C   0  0  0  0  0  0
   -0.4950    2.5290  -21.0200 C   0  0  0  0  0  0
   -0.8340    5.7520  -23.1450 F   0  0  0  0  0  0
   -3.6960    3.1610  -19.9470 F   0  0  0  0  0  0
    1.8170    6.0520  -22.7430 N   0  0  0  0  0  0
    4.0330    5.1250  -22.8530 N   0  0  0  0  0  0
    0.2790    2.5920  -24.5430 N   0  0  0  0  0  0
    4.4660    2.9300  -23.4980 N   0  0  0  0  0  0
    6.5090    1.1820  -22.4070 N   0  0  1  0  0  0
   -3.8900    3.8840  -27.5960 O   0  0  0  0  0  0
   -5.9600    3.7292  -20.9062 H   0  0  0  0  0  0
   -6.4730    4.0668  -23.2872 H   0  0  0  0  0  0
    5.6350    4.0674  -21.1848 H   0  0  0  0  0  0
    6.9032    3.0830  -20.3311 H   0  0  0  0  0  0
    6.3118    2.8007  -24.5703 H   0  0  0  0  0  0
    6.0744    4.3293  -23.6622 H   0  0  0  0  0  0
   -5.7060    4.1478  -25.6623 H   0  0  0  0  0  0
    2.2240    1.8514  -24.5529 H   0  0  0  0  0  0
    3.1213    1.4195  -22.6746 H   0  0  0  0  0  0
    4.3084    0.7853  -23.8772 H   0  0  0  0  0  0
    4.8891    0.0982  -21.5409 H   0  0  0  0  0  0
    7.7631    2.9122  -22.5125 H   0  0  0  0  0  0
    4.1267    2.5962  -20.6685 H   0  0  0  0  0  0
    5.4219    1.5852  -19.8125 H   0  0  0  0  0  0
   -1.5791    3.6579  -26.6389 H   0  0  0  0  0  0
    0.4182    2.2189  -20.5899 H   0  0  0  0  0  0
    7.1656    0.6783  -21.7130 H   0  0  0  0  0  0
   -3.0514    3.7980  -28.0341 H   0  0  0  0  0  0
    5.0660    7.6850  -22.7430 N   0  3  0  0  0  0
    3.7080    7.4220  -22.1430 C   0  0  0  0  0  0
    5.6960    9.0060  -22.3860 C   0  0  0  0  0  0
    4.9930   10.1920  -23.0740 C   0  0  0  0  0  0
    5.0080    7.6040  -23.7461 H   0  0  0  0  0  0
    5.6924    6.9376  -22.4879 H   0  0  0  0  0  0
    3.0200    8.2320  -22.4270 H   0  0  0  0  0  0
    3.7860    7.4210  -21.0458 H   0  0  0  0  0  0
    6.7578    8.9940  -22.6730 H   0  0  0  0  0  0
    5.6630    9.1441  -21.2952 H   0  0  0  0  0  0
    5.4874   11.1308  -22.7838 H   0  0  0  0  0  0
    5.0510   10.0700  -24.1657 H   0  0  0  0  0  0
    3.9377   10.2220  -22.7652 H   0  0  0  0  0  0
  1  2  2  0  0  0
  1  3  1  0  0  0
  1 34  1  0  0  0
  2  6  1  0  0  0
  2 35  1  0  0  0
  3  5  2  0  0  0
  3 27  1  0  0  0
  4  5  1  0  0  0
  4  6  2  0  0  0
  4 18  1  0  0  0
  5 24  1  0  0  0
  6 10  1  0  0  0
  7 10  2  0  0  0
  7 23  1  0  0  0
  7 33  1  0  0  0
  8 21  1  0  0  0
  8 22  1  0  0  0
  8 36  1  0  0  0
  8 37  1  0  0  0
  9 21  1  0  0  0
  9 31  1  0  0  0
  9 38  1  0  0  0
  9 39  1  0  0  0
 10 40  1  0  0  0
 11 12  1  0  0  0
 11 14  2  0  0  0
 11 15  1  0  0  0
 12 17  1  0  0  0
 12 28  2  0  0  0
 13 28  1  0  0  0
 13 29  2  0  0  0
 13 53  1  0  0  0
 14 29  1  0  0  0
 14 31  1  0  0  0
 15 30  2  0  0  0
 15 41  1  0  0  0
 16 17  2  0  0  0
 16 18  1  0  0  0
 16 30  1  0  0  0
 17 26  1  0  0  0
 18 23  2  0  0  0
 19 20  1  0  0  0
 19 31  1  0  0  0
 19 42  1  0  0  0
 19 43  1  0  0  0
 20 22  1  0  0  0
 20 32  1  0  0  0
 20 44  1  0  0  0
 21 32  1  0  0  0
 21 45  1  0  0  0
 22 46  1  0  0  0
 22 47  1  0  0  0
 23 48  1  0  0  0
 24 25  3  0  0  0
 25 49  1  0  0  0
 32 50  1  0  0  0
 33 51  1  0  0  0
 52 53  1  0  0  0
 52 54  1  0  0  0
 52 56  1  0  0  0
 52 57  1  0  0  0
 53 58  1  0  0  0
 53 59  1  0  0  0
 54 55  1  0  0  0
 54 60  1  0  0  0
 54 61  1  0  0  0
 55 62  1  0  0  0
 55 63  1  0  0  0
 55 64  1  0  0  0
M  CHG  1  52   1
M  END
> <s_m_entry_id>
844

> <s_m_entry_name>
000000686.1

> <s_m_Source_Path>
/Users/zaksoul/Documents/3r_UNI/2nd_SEMESTER/BSC/FRAG_RECON/RESULTS/2

> <s_m_Source_File>
000000686.mol2

> <i_m_Source_File_Index>
1

$$$$
No_0_708
                    3D
 Schrodinger Suite 2022-4.
 64 69  0  0  1  0            999 V2000
   -5.3340    3.6900  -21.5740 C   0  0  0  0  0  0
   -5.6080    3.9420  -22.8970 C   0  0  0  0  0  0
   -4.0950    3.4140  -21.2540 C   0  0  0  0  0  0
   -3.2180    3.6380  -23.4170 C   0  0  0  0  0  0
   -3.0490    3.3260  -22.0110 C   0  0  0  0  0  0
   -4.5670    3.9320  -23.9160 C   0  0  0  0  0  0
   -3.8260    4.0530  -26.1160 C   0  0  0  0  0  0
    5.9330    3.0210  -20.9580 C   0  0  0  0  0  0
    5.7780    3.2840  -23.4970 C   0  0  0  0  0  0
   -4.8260    4.1230  -25.2420 C   0  0  0  0  0  0
    1.9970    3.8520  -23.4620 C   0  0  0  0  0  0
    1.1840    4.9500  -23.1060 C   0  0  0  0  0  0
    2.9930    6.1030  -22.3820 C   0  0  0  0  0  0
    3.4000    4.0210  -23.1500 C   0  0  0  0  0  0
    1.4400    2.7700  -24.1720 C   0  0  0  0  0  0
   -0.6820    3.5880  -24.0080 C   0  0  0  0  0  0
   -0.1450    4.7760  -23.3560 C   0  0  0  0  0  0
   -2.1370    3.6190  -24.3520 C   0  0  0  0  0  0
    3.9940    1.5090  -22.9800 C   0  0  0  0  0  0
    4.9330    1.0940  -21.8580 C   0  0  2  0  0  0
    6.5310    2.6510  -22.3320 C   0  0  2  0  0  0
    4.9290    2.0400  -20.6450 C   0  0  0  0  0  0
   -2.4710    3.8470  -25.7690 C   0  0  0  0  0  0
   -1.7030    2.8780  -21.4420 C   0  0  0  0  0  0
   -0.6710    2.5010  -20.9600 C   0  0  0  0  0  0
   -0.9780    5.8080  -22.9570 F   0  0  0  0  0  0
   -3.8770    3.1060  -19.8860 F   0  0  0  0  0  0
    1.6710    6.0800  -22.5230 N   0  0  0  0  0  0
    3.8830    5.1470  -22.6540 N   0  0  0  0  0  0
    0.1310    2.7020  -24.4720 N   0  0  0  0  0  0
    4.3110    2.9780  -23.3830 N   0  0  0  0  0  0
    6.3370    1.1770  -22.3470 N   0  0  1  0  0  0
   -4.0080    4.1350  -27.5020 O   0  0  0  0  0  0
   -6.1311    3.7221  -20.8401 H   0  0  0  0  0  0
   -6.6234    4.1577  -23.2091 H   0  0  0  0  0  0
    5.4670    4.0156  -21.0175 H   0  0  0  0  0  0
    6.7240    2.9917  -20.1942 H   0  0  0  0  0  0
    6.1647    2.8821  -24.4451 H   0  0  0  0  0  0
    5.9273    4.3737  -23.4788 H   0  0  0  0  0  0
   -5.8376    4.3297  -25.5722 H   0  0  0  0  0  0
    2.0724    1.9519  -24.4972 H   0  0  0  0  0  0
    2.9531    1.4414  -22.6307 H   0  0  0  0  0  0
    4.1473    0.8503  -23.8475 H   0  0  0  0  0  0
    4.7058    0.0671  -21.5359 H   0  0  0  0  0  0
    7.6006    2.9043  -22.3744 H   0  0  0  0  0  0
    3.9481    2.5324  -20.5713 H   0  0  0  0  0  0
    5.2316    1.4811  -19.7472 H   0  0  0  0  0  0
   -1.7066    3.8591  -26.5375 H   0  0  0  0  0  0
    0.2378    2.1701  -20.5361 H   0  0  0  0  0  0
    6.9870    0.6436  -21.6692 H   0  0  0  0  0  0
   -3.1668    4.0628  -27.9375 H   0  0  0  0  0  0
    4.5300    8.0280  -22.8360 N   0  3  0  0  0  0
    3.5630    7.4150  -21.8550 C   0  0  0  0  0  0
    5.1130    9.3590  -22.4360 C   0  0  0  0  0  0
    4.0760   10.4960  -22.5130 C   0  0  0  0  0  0
    4.0818    8.1170  -23.7345 H   0  0  0  0  0  0
    5.2792    7.3778  -23.0150 H   0  0  0  0  0  0
    2.7409    8.1201  -21.6630 H   0  0  0  0  0  0
    4.0760    7.2340  -20.8989 H   0  0  0  0  0  0
    5.9651    9.5960  -23.0901 H   0  0  0  0  0  0
    5.5082    9.2930  -21.4116 H   0  0  0  0  0  0
    4.5478   11.4437  -22.2141 H   0  0  0  0  0  0
    3.7029   10.5830  -23.5441 H   0  0  0  0  0  0
    3.2373   10.2748  -21.8365 H   0  0  0  0  0  0
  1  2  2  0  0  0
  1  3  1  0  0  0
  1 34  1  0  0  0
  2  6  1  0  0  0
  2 35  1  0  0  0
  3  5  2  0  0  0
  3 27  1  0  0  0
  4  5  1  0  0  0
  4  6  2  0  0  0
  4 18  1  0  0  0
  5 24  1  0  0  0
  6 10  1  0  0  0
  7 10  2  0  0  0
  7 23  1  0  0  0
  7 33  1  0  0  0
  8 21  1  0  0  0
  8 22  1  0  0  0
  8 36  1  0  0  0
  8 37  1  0  0  0
  9 21  1  0  0  0
  9 31  1  0  0  0
  9 38  1  0  0  0
  9 39  1  0  0  0
 10 40  1  0  0  0
 11 12  1  0  0  0
 11 14  2  0  0  0
 11 15  1  0  0  0
 12 17  1  0  0  0
 12 28  2  0  0  0
 13 28  1  0  0  0
 13 29  2  0  0  0
 13 53  1  0  0  0
 14 29  1  0  0  0
 14 31  1  0  0  0
 15 30  2  0  0  0
 15 41  1  0  0  0
 16 17  2  0  0  0
 16 18  1  0  0  0
 16 30  1  0  0  0
 17 26  1  0  0  0
 18 23  2  0  0  0
 19 20  1  0  0  0
 19 31  1  0  0  0
 19 42  1  0  0  0
 19 43  1  0  0  0
 20 22  1  0  0  0
 20 32  1  0  0  0
 20 44  1  0  0  0
 21 32  1  0  0  0
 21 45  1  0  0  0
 22 46  1  0  0  0
 22 47  1  0  0  0
 23 48  1  0  0  0
 24 25  3  0  0  0
 25 49  1  0  0  0
 32 50  1  0  0  0
 33 51  1  0  0  0
 52 53  1  0  0  0
 52 54  1  0  0  0
 52 56  1  0  0  0
 52 57  1  0  0  0
 53 58  1  0  0  0
 53 59  1  0  0  0
 54 55  1  0  0  0
 54 60  1  0  0  0
 54 61  1  0  0  0
 55 62  1  0  0  0
 55 63  1  0  0  0
 55 64  1  0  0  0
M  CHG  1  52   1
M  END
> <s_m_entry_id>
845

> <s_m_entry_name>
000000687.1

> <s_m_Source_Path>
/Users/zaksoul/Documents/3r_UNI/2nd_SEMESTER/BSC/FRAG_RECON/RESULTS/2

> <s_m_Source_File>
000000687.mol2

> <i_m_Source_File_Index>
1

$$$$
No_0_709
                    3D
 Schrodinger Suite 2022-4.
 64 69  0  0  1  0            999 V2000
   -4.9940    3.8000  -21.9100 C   0  0  0  0  0  0
   -5.2590    4.0020  -23.2440 C   0  0  0  0  0  0
   -3.7560    3.5430  -21.5700 C   0  0  0  0  0  0
   -2.8630    3.6920  -23.7340 C   0  0  0  0  0  0
   -2.7030    3.4330  -22.3160 C   0  0  0  0  0  0
   -4.2100    3.9590  -24.2530 C   0  0  0  0  0  0
   -3.4530    4.0030  -26.4510 C   0  0  0  0  0  0
    6.2720    3.2170  -21.1840 C   0  0  0  0  0  0
    6.1360    3.3850  -23.7320 C   0  0  0  0  0  0
   -4.4600    4.1000  -25.5880 C   0  0  0  0  0  0
    2.3510    3.9330  -23.7470 C   0  0  0  0  0  0
    1.5300    5.0380  -23.4380 C   0  0  0  0  0  0
    3.3270    6.2270  -22.7440 C   0  0  0  0  0  0
    3.7510    4.1200  -23.4310 C   0  0  0  0  0  0
    1.8050    2.8220  -24.4200 C   0  0  0  0  0  0
   -0.3220    3.6340  -24.3030 C   0  0  0  0  0  0
    0.2040    4.8480  -23.6920 C   0  0  0  0  0  0
   -1.7750    3.6440  -24.6590 C   0  0  0  0  0  0
    4.3570    1.6200  -23.1640 C   0  0  0  0  0  0
    5.2890    1.2530  -22.0200 C   0  0  2  0  0  0
    6.8830    2.7990  -22.5390 C   0  0  2  0  0  0
    5.2700    2.2420  -20.8430 C   0  0  0  0  0  0
   -2.0990    3.8170  -26.0850 C   0  0  0  0  0  0
   -1.3590    3.0140  -21.7200 C   0  0  0  0  0  0
   -0.3290    2.6610  -21.2170 C   0  0  0  0  0  0
   -0.6380    5.8900  -23.3370 F   0  0  0  0  0  0
   -3.5460    3.2870  -20.1910 F   0  0  0  0  0  0
    2.0060    6.1920  -22.8940 N   0  0  0  0  0  0
    4.2240    5.2670  -22.9730 N   0  0  0  0  0  0
    0.4990    2.7360  -24.7280 N   0  0  0  0  0  0
    4.6690    3.0740  -23.6180 N   0  0  0  0  0  0
    6.6960    1.3250  -22.5000 N   0  0  1  0  0  0
   -3.6240    4.0320  -27.8400 O   0  0  0  0  0  0
   -5.7962    3.8552  -21.1831 H   0  0  0  0  0  0
   -6.2736    4.1999  -23.5705 H   0  0  0  0  0  0
    5.8008    4.2059  -21.2839 H   0  0  0  0  0  0
    7.0573    3.2200  -20.4138 H   0  0  0  0  0  0
    6.5308    2.9498  -24.6619 H   0  0  0  0  0  0
    6.2782    4.4755  -23.7542 H   0  0  0  0  0  0
   -5.4700    4.2888  -25.9334 H   0  0  0  0  0  0
    2.4443    1.9960  -24.7100 H   0  0  0  0  0  0
    3.3139    1.5595  -22.8200 H   0  0  0  0  0  0
    4.5195    0.9307  -24.0057 H   0  0  0  0  0  0
    5.0651    0.2373  -21.6619 H   0  0  0  0  0  0
    7.9515    3.0565  -22.5824 H   0  0  0  0  0  0
    4.2866    2.7327  -20.7955 H   0  0  0  0  0  0
    5.5697    1.7193  -19.9227 H   0  0  0  0  0  0
   -1.3290    3.8060  -26.8479 H   0  0  0  0  0  0
    0.5778    2.3501  -20.7741 H   0  0  0  0  0  0
    7.3439    0.8204  -21.7986 H   0  0  0  0  0  0
   -2.7788    3.9479  -28.2656 H   0  0  0  0  0  0
    3.2680    8.7180  -23.0060 N   0  3  0  0  0  0
    3.8860    7.5620  -22.2620 C   0  0  0  0  0  0
    3.7120   10.0900  -22.5700 C   0  0  0  0  0  0
    3.1440   10.4750  -21.1900 C   0  0  0  0  0  0
    2.2639    8.6570  -22.9420 H   0  0  0  0  0  0
    3.4430    8.6100  -23.9928 H   0  0  0  0  0  0
    3.6901    7.6730  -21.1853 H   0  0  0  0  0  0
    4.9766    7.5750  -22.4051 H   0  0  0  0  0  0
    3.3928   10.8324  -23.3164 H   0  0  0  0  0  0
    4.8109   10.1260  -22.5360 H   0  0  0  0  0  0
    3.4941   11.4812  -20.9160 H   0  0  0  0  0  0
    2.0448   10.4690  -21.2310 H   0  0  0  0  0  0
    3.4861    9.7499  -20.4369 H   0  0  0  0  0  0
  1  2  2  0  0  0
  1  3  1  0  0  0
  1 34  1  0  0  0
  2  6  1  0  0  0
  2 35  1  0  0  0
  3  5  2  0  0  0
  3 27  1  0  0  0
  4  5  1  0  0  0
  4  6  2  0  0  0
  4 18  1  0  0  0
  5 24  1  0  0  0
  6 10  1  0  0  0
  7 10  2  0  0  0
  7 23  1  0  0  0
  7 33  1  0  0  0
  8 21  1  0  0  0
  8 22  1  0  0  0
  8 36  1  0  0  0
  8 37  1  0  0  0
  9 21  1  0  0  0
  9 31  1  0  0  0
  9 38  1  0  0  0
  9 39  1  0  0  0
 10 40  1  0  0  0
 11 12  1  0  0  0
 11 14  2  0  0  0
 11 15  1  0  0  0
 12 17  1  0  0  0
 12 28  2  0  0  0
 13 28  1  0  0  0
 13 29  2  0  0  0
 13 53  1  0  0  0
 14 29  1  0  0  0
 14 31  1  0  0  0
 15 30  2  0  0  0
 15 41  1  0  0  0
 16 17  2  0  0  0
 16 18  1  0  0  0
 16 30  1  0  0  0
 17 26  1  0  0  0
 18 23  2  0  0  0
 19 20  1  0  0  0
 19 31  1  0  0  0
 19 42  1  0  0  0
 19 43  1  0  0  0
 20 22  1  0  0  0
 20 32  1  0  0  0
 20 44  1  0  0  0
 21 32  1  0  0  0
 21 45  1  0  0  0
 22 46  1  0  0  0
 22 47  1  0  0  0
 23 48  1  0  0  0
 24 25  3  0  0  0
 25 49  1  0  0  0
 32 50  1  0  0  0
 33 51  1  0  0  0
 52 53  1  0  0  0
 52 54  1  0  0  0
 52 56  1  0  0  0
 52 57  1  0  0  0
 53 58  1  0  0  0
 53 59  1  0  0  0
 54 55  1  0  0  0
 54 60  1  0  0  0
 54 61  1  0  0  0
 55 62  1  0  0  0
 55 63  1  0  0  0
 55 64  1  0  0  0
M  CHG  1  52   1
M  END
> <s_m_entry_id>
846

> <s_m_entry_name>
000000688.1

> <s_m_Source_Path>
/Users/zaksoul/Documents/3r_UNI/2nd_SEMESTER/BSC/FRAG_RECON/RESULTS/2

> <s_m_Source_File>
000000688.mol2

> <i_m_Source_File_Index>
1

$$$$
No_0_710
                    3D
 Schrodinger Suite 2022-4.
 61 66  0  0  1  0            999 V2000
   -5.3420    3.6710  -21.9810 C   0  0  0  0  0  0
   -5.5790    3.8200  -23.3270 C   0  0  0  0  0  0
   -4.1160    3.4070  -21.6070 C   0  0  0  0  0  0
   -3.1810    3.4450  -23.7580 C   0  0  0  0  0  0
   -3.0520    3.2440  -22.3270 C   0  0  0  0  0  0
   -4.5130    3.7150  -24.3140 C   0  0  0  0  0  0
   -3.7150    3.6490  -26.4960 C   0  0  0  0  0  0
    5.8950    2.9110  -21.0170 C   0  0  0  0  0  0
    5.8080    2.9720  -23.5720 C   0  0  0  0  0  0
   -4.7360    3.8020  -25.6570 C   0  0  0  0  0  0
    2.0360    3.5880  -23.6820 C   0  0  0  0  0  0
    1.2300    4.7210  -23.4360 C   0  0  0  0  0  0
    3.0370    5.9050  -22.7600 C   0  0  0  0  0  0
    3.4330    3.7640  -23.3480 C   0  0  0  0  0  0
    1.4810    2.4600  -24.3170 C   0  0  0  0  0  0
   -0.6320    3.3160  -24.2760 C   0  0  0  0  0  0
   -0.0940    4.5450  -23.7070 C   0  0  0  0  0  0
   -2.0780    3.3370  -24.6590 C   0  0  0  0  0  0
    3.9850    1.2660  -22.9620 C   0  0  0  0  0  0
    4.8900    0.9310  -21.7860 C   0  0  2  0  0  0
    6.5220    2.4240  -22.3410 C   0  0  2  0  0  0
    4.8680    1.9710  -20.6530 C   0  0  0  0  0  0
   -2.3730    3.4550  -26.0980 C   0  0  0  0  0  0
   -1.7280    2.8270  -21.6890 C   0  0  0  0  0  0
   -0.7140    2.4770  -21.1510 C   0  0  0  0  0  0
   -0.9220    5.6160  -23.4130 F   0  0  0  0  0  0
   -3.9370    3.2060  -20.2140 F   0  0  0  0  0  0
    1.7190    5.8880  -22.9330 N   0  0  0  0  0  0
    3.9190    4.9200  -22.9310 N   0  0  0  0  0  0
    0.1790    2.3840  -24.6450 N   0  0  0  0  0  0
    4.3340    2.6940  -23.4720 N   0  0  0  0  0  0
    6.3060    0.9560  -22.2430 N   0  0  1  0  0  0
   -3.8610    3.6210  -27.8880 O   0  0  0  0  0  0
   -6.1564    3.7733  -21.2729 H   0  0  0  0  0  0
   -6.5833    4.0227  -23.6812 H   0  0  0  0  0  0
    5.4452    3.9034  -21.1683 H   0  0  0  0  0  0
    6.6661    2.9332  -20.2328 H   0  0  0  0  0  0
    6.2117    2.4895  -24.4743 H   0  0  0  0  0  0
    5.9726    4.0576  -23.6376 H   0  0  0  0  0  0
   -5.7358    3.9937  -26.0294 H   0  0  0  0  0  0
    2.1095    1.6106  -24.5590 H   0  0  0  0  0  0
    2.9348    1.2397  -22.6358 H   0  0  0  0  0  0
    4.1505    0.5385  -23.7703 H   0  0  0  0  0  0
    4.6388   -0.0638  -21.3895 H   0  0  0  0  0  0
    7.5960    2.6592  -22.3753 H   0  0  0  0  0  0
    3.8934    2.4810  -20.6449 H   0  0  0  0  0  0
    5.1416    1.4824  -19.7062 H   0  0  0  0  0  0
   -1.5888    3.3958  -26.8440 H   0  0  0  0  0  0
    0.1786    2.1691  -20.6782 H   0  0  0  0  0  0
    6.9303    0.4706  -21.5075 H   0  0  0  0  0  0
   -3.0101    3.5033  -28.2937 H   0  0  0  0  0  0
    3.5660    7.3660  -20.8240 N   0  3  0  0  0  0
    3.6130    7.2490  -22.3250 C   0  0  0  0  0  0
    4.3410    8.5180  -20.2500 C   0  0  0  0  0  0
    3.8921    6.5058  -20.4119 H   0  0  0  0  0  0
    2.6055    7.4290  -20.5248 H   0  0  0  0  0  0
    4.6558    7.3280  -22.6659 H   0  0  0  0  0  0
    3.0248    8.0623  -22.7751 H   0  0  0  0  0  0
    4.2440    8.5160  -19.1543 H   0  0  0  0  0  0
    5.4020    8.4190  -20.5230 H   0  0  0  0  0  0
    3.9460    9.4631  -20.6510 H   0  0  0  0  0  0
  1  2  2  0  0  0
  1  3  1  0  0  0
  1 34  1  0  0  0
  2  6  1  0  0  0
  2 35  1  0  0  0
  3  5  2  0  0  0
  3 27  1  0  0  0
  4  5  1  0  0  0
  4  6  2  0  0  0
  4 18  1  0  0  0
  5 24  1  0  0  0
  6 10  1  0  0  0
  7 10  2  0  0  0
  7 23  1  0  0  0
  7 33  1  0  0  0
  8 21  1  0  0  0
  8 22  1  0  0  0
  8 36  1  0  0  0
  8 37  1  0  0  0
  9 21  1  0  0  0
  9 31  1  0  0  0
  9 38  1  0  0  0
  9 39  1  0  0  0
 10 40  1  0  0  0
 11 12  1  0  0  0
 11 14  2  0  0  0
 11 15  1  0  0  0
 12 17  1  0  0  0
 12 28  2  0  0  0
 13 28  1  0  0  0
 13 29  2  0  0  0
 13 53  1  0  0  0
 14 29  1  0  0  0
 14 31  1  0  0  0
 15 30  2  0  0  0
 15 41  1  0  0  0
 16 17  2  0  0  0
 16 18  1  0  0  0
 16 30  1  0  0  0
 17 26  1  0  0  0
 18 23  2  0  0  0
 19 20  1  0  0  0
 19 31  1  0  0  0
 19 42  1  0  0  0
 19 43  1  0  0  0
 20 22  1  0  0  0
 20 32  1  0  0  0
 20 44  1  0  0  0
 21 32  1  0  0  0
 21 45  1  0  0  0
 22 46  1  0  0  0
 22 47  1  0  0  0
 23 48  1  0  0  0
 24 25  3  0  0  0
 25 49  1  0  0  0
 32 50  1  0  0  0
 33 51  1  0  0  0
 52 53  1  0  0  0
 52 54  1  0  0  0
 52 55  1  0  0  0
 52 56  1  0  0  0
 53 57  1  0  0  0
 53 58  1  0  0  0
 54 59  1  0  0  0
 54 60  1  0  0  0
 54 61  1  0  0  0
M  CHG  1  52   1
M  END
> <s_m_entry_id>
847

> <s_m_entry_name>
000000689.1

> <s_m_Source_Path>
/Users/zaksoul/Documents/3r_UNI/2nd_SEMESTER/BSC/FRAG_RECON/RESULTS/2

> <s_m_Source_File>
000000689.mol2

> <i_m_Source_File_Index>
1

$$$$
No_0_711
                    3D
 Schrodinger Suite 2022-4.
 61 66  0  0  1  0            999 V2000
   -5.1810    3.6090  -21.8530 C   0  0  0  0  0  0
   -5.4520    3.8050  -23.1860 C   0  0  0  0  0  0
   -3.9420    3.3510  -21.5190 C   0  0  0  0  0  0
   -3.0590    3.4860  -23.6870 C   0  0  0  0  0  0
   -2.8930    3.2340  -22.2690 C   0  0  0  0  0  0
   -4.4090    3.7540  -24.2010 C   0  0  0  0  0  0
   -3.6630    3.7850  -26.4030 C   0  0  0  0  0  0
    6.0870    3.0010  -21.1820 C   0  0  0  0  0  0
    5.9380    3.1560  -23.7310 C   0  0  0  0  0  0
   -4.6650    3.8890  -25.5350 C   0  0  0  0  0  0
    2.1540    3.7130  -23.7290 C   0  0  0  0  0  0
    1.3370    4.8230  -23.4210 C   0  0  0  0  0  0
    3.1410    6.0110  -22.7430 C   0  0  0  0  0  0
    3.5570    3.8990  -23.4210 C   0  0  0  0  0  0
    1.6030    2.6010  -24.3930 C   0  0  0  0  0  0
   -0.5220    3.4190  -24.2700 C   0  0  0  0  0  0
    0.0100    4.6350  -23.6670 C   0  0  0  0  0  0
   -1.9770    3.4300  -24.6180 C   0  0  0  0  0  0
    4.1570    1.3990  -23.1440 C   0  0  0  0  0  0
    5.0950    1.0350  -22.0030 C   0  0  2  0  0  0
    6.6890    2.5740  -22.5390 C   0  0  2  0  0  0
    5.0840    2.0310  -20.8310 C   0  0  0  0  0  0
   -2.3080    3.5970  -26.0440 C   0  0  0  0  0  0
   -1.5470    2.8150  -21.6780 C   0  0  0  0  0  0
   -0.5150    2.4620  -21.1780 C   0  0  0  0  0  0
   -0.8280    5.6800  -23.3140 F   0  0  0  0  0  0
   -3.7260    3.1020  -20.1390 F   0  0  0  0  0  0
    1.8200    5.9780  -22.8860 N   0  0  0  0  0  0
    4.0350    5.0470  -22.9720 N   0  0  0  0  0  0
    0.2950    2.5160  -24.6930 N   0  0  0  0  0  0
    4.4710    2.8500  -23.6070 N   0  0  0  0  0  0
    6.5000    1.1010  -22.4910 N   0  0  1  0  0  0
   -3.8410    3.8060  -27.7920 O   0  0  0  0  0  0
   -5.9796    3.6712  -21.1226 H   0  0  0  0  0  0
   -6.4675    4.0037  -23.5091 H   0  0  0  0  0  0
    5.6179    3.9906  -21.2849 H   0  0  0  0  0  0
    6.8763    3.0060  -20.4159 H   0  0  0  0  0  0
    6.3275    2.7150  -24.6604 H   0  0  0  0  0  0
    6.0833    4.2460  -23.7593 H   0  0  0  0  0  0
   -5.6765    4.0776  -25.8762 H   0  0  0  0  0  0
    2.2385    1.7718  -24.6821 H   0  0  0  0  0  0
    3.1157    1.3435  -22.7939 H   0  0  0  0  0  0
    4.3144    0.7047  -23.9826 H   0  0  0  0  0  0
    4.8700    0.0218  -21.6387 H   0  0  0  0  0  0
    7.7578    2.8293  -22.5885 H   0  0  0  0  0  0
    4.1018    2.5236  -20.7805 H   0  0  0  0  0  0
    5.3877    1.5123  -19.9097 H   0  0  0  0  0  0
   -1.5411    3.5789  -26.8099 H   0  0  0  0  0  0
    0.3934    2.1519  -20.7378 H   0  0  0  0  0  0
    7.1492    0.5983  -21.7894 H   0  0  0  0  0  0
   -2.9984    3.7179  -28.2217 H   0  0  0  0  0  0
    4.9620    7.1190  -21.4710 N   0  3  0  0  0  0
    3.7060    7.3460  -22.2710 C   0  0  0  0  0  0
    5.7620    8.3560  -21.1740 C   0  0  0  0  0  0
    5.5461    6.4509  -21.9491 H   0  0  0  0  0  0
    4.7269    6.6588  -20.6056 H   0  0  0  0  0  0
    3.9360    7.9760  -23.1429 H   0  0  0  0  0  0
    2.9610    7.8590  -21.6450 H   0  0  0  0  0  0
    6.6539    8.0850  -20.5900 H   0  0  0  0  0  0
    6.0728    8.8267  -22.1184 H   0  0  0  0  0  0
    5.1466    9.0625  -20.5976 H   0  0  0  0  0  0
  1  2  2  0  0  0
  1  3  1  0  0  0
  1 34  1  0  0  0
  2  6  1  0  0  0
  2 35  1  0  0  0
  3  5  2  0  0  0
  3 27  1  0  0  0
  4  5  1  0  0  0
  4  6  2  0  0  0
  4 18  1  0  0  0
  5 24  1  0  0  0
  6 10  1  0  0  0
  7 10  2  0  0  0
  7 23  1  0  0  0
  7 33  1  0  0  0
  8 21  1  0  0  0
  8 22  1  0  0  0
  8 36  1  0  0  0
  8 37  1  0  0  0
  9 21  1  0  0  0
  9 31  1  0  0  0
  9 38  1  0  0  0
  9 39  1  0  0  0
 10 40  1  0  0  0
 11 12  1  0  0  0
 11 14  2  0  0  0
 11 15  1  0  0  0
 12 17  1  0  0  0
 12 28  2  0  0  0
 13 28  1  0  0  0
 13 29  2  0  0  0
 13 53  1  0  0  0
 14 29  1  0  0  0
 14 31  1  0  0  0
 15 30  2  0  0  0
 15 41  1  0  0  0
 16 17  2  0  0  0
 16 18  1  0  0  0
 16 30  1  0  0  0
 17 26  1  0  0  0
 18 23  2  0  0  0
 19 20  1  0  0  0
 19 31  1  0  0  0
 19 42  1  0  0  0
 19 43  1  0  0  0
 20 22  1  0  0  0
 20 32  1  0  0  0
 20 44  1  0  0  0
 21 32  1  0  0  0
 21 45  1  0  0  0
 22 46  1  0  0  0
 22 47  1  0  0  0
 23 48  1  0  0  0
 24 25  3  0  0  0
 25 49  1  0  0  0
 32 50  1  0  0  0
 33 51  1  0  0  0
 52 53  1  0  0  0
 52 54  1  0  0  0
 52 55  1  0  0  0
 52 56  1  0  0  0
 53 57  1  0  0  0
 53 58  1  0  0  0
 54 59  1  0  0  0
 54 60  1  0  0  0
 54 61  1  0  0  0
M  CHG  1  52   1
M  END
> <s_m_entry_id>
848

> <s_m_entry_name>
000000690.1

> <s_m_Source_Path>
/Users/zaksoul/Documents/3r_UNI/2nd_SEMESTER/BSC/FRAG_RECON/RESULTS/2

> <s_m_Source_File>
000000690.mol2

> <i_m_Source_File_Index>
1

$$$$
No_0_712
                    3D
 Schrodinger Suite 2022-4.
 61 66  0  0  1  0            999 V2000
   -5.3410    3.3900  -21.7590 C   0  0  0  0  0  0
   -5.6030    3.5970  -23.0930 C   0  0  0  0  0  0
   -4.1060    3.1230  -21.4190 C   0  0  0  0  0  0
   -3.2090    3.2690  -23.5810 C   0  0  0  0  0  0
   -3.0530    3.0050  -22.1640 C   0  0  0  0  0  0
   -4.5540    3.5480  -24.1020 C   0  0  0  0  0  0
   -3.7950    3.5910  -26.2980 C   0  0  0  0  0  0
    5.9190    2.7170  -21.0250 C   0  0  0  0  0  0
    5.7860    2.8910  -23.5730 C   0  0  0  0  0  0
   -4.8020    3.6940  -25.4360 C   0  0  0  0  0  0
    2.0060    3.4690  -23.5900 C   0  0  0  0  0  0
    1.1930    4.5800  -23.2790 C   0  0  0  0  0  0
    2.9990    5.7530  -22.5810 C   0  0  0  0  0  0
    3.4070    3.6450  -23.2720 C   0  0  0  0  0  0
    1.4520    2.3640  -24.2660 C   0  0  0  0  0  0
   -0.6690    3.1920  -24.1490 C   0  0  0  0  0  0
   -0.1340    4.4010  -23.5340 C   0  0  0  0  0  0
   -2.1210    3.2140  -24.5060 C   0  0  0  0  0  0
    3.9930    1.1390  -23.0100 C   0  0  0  0  0  0
    4.9220    0.7620  -21.8660 C   0  0  2  0  0  0
    6.5270    2.2970  -22.3810 C   0  0  2  0  0  0
    4.9090    1.7490  -20.6860 C   0  0  0  0  0  0
   -2.4430    3.3930  -25.9320 C   0  0  0  0  0  0
   -1.7130    2.5740  -21.5680 C   0  0  0  0  0  0
   -0.6860    2.2130  -21.0650 C   0  0  0  0  0  0
   -0.9680    5.4480  -23.1780 F   0  0  0  0  0  0
   -3.9000    2.8620  -20.0400 F   0  0  0  0  0  0
    1.6780    5.7280  -22.7320 N   0  0  0  0  0  0
    3.8880    4.7860  -22.8110 N   0  0  0  0  0  0
    0.1460    2.2880  -24.5740 N   0  0  0  0  0  0
    4.3170    2.5920  -23.4600 N   0  0  0  0  0  0
    6.3300    0.8240  -22.3450 N   0  0  1  0  0  0
   -3.9650    3.6240  -27.6880 O   0  0  0  0  0  0
   -6.1440    3.4502  -21.0333 H   0  0  0  0  0  0
   -6.6156    3.8037  -23.4202 H   0  0  0  0  0  0
    5.4558    3.7099  -21.1229 H   0  0  0  0  0  0
    6.7038    2.7120  -20.2543 H   0  0  0  0  0  0
    6.1789    2.4547  -24.5032 H   0  0  0  0  0  0
    5.9373    3.9804  -23.5922 H   0  0  0  0  0  0
   -5.8104    3.8909  -25.7815 H   0  0  0  0  0  0
    2.0854    1.5339  -24.5571 H   0  0  0  0  0  0
    2.9491    1.0866  -22.6671 H   0  0  0  0  0  0
    4.1514    0.4498  -23.8526 H   0  0  0  0  0  0
    4.6890   -0.2527  -21.5110 H   0  0  0  0  0  0
    7.5976    2.5462  -22.4224 H   0  0  0  0  0  0
    3.9291    2.2465  -20.6386 H   0  0  0  0  0  0
    5.2038    1.2209  -19.7672 H   0  0  0  0  0  0
   -1.6721    3.3769  -26.6939 H   0  0  0  0  0  0
    0.2180    1.8940  -20.6220 H   0  0  0  0  0  0
    6.9720    0.3126  -21.6431 H   0  0  0  0  0  0
   -3.1199    3.5339  -28.1125 H   0  0  0  0  0  0
    5.0560    6.9620  -21.8940 N   0  3  0  0  0  0
    3.5680    7.0820  -22.0950 C   0  0  0  0  0  0
    5.7780    8.2610  -21.6770 C   0  0  0  0  0  0
    5.4607    6.4834  -22.6834 H   0  0  0  0  0  0
    5.2380    6.3450  -21.1180 H   0  0  0  0  0  0
    3.3611    7.8637  -22.8407 H   0  0  0  0  0  0
    3.0907    7.3592  -21.1435 H   0  0  0  0  0  0
    6.8520    8.0660  -21.5410 H   0  0  0  0  0  0
    5.6309    8.9133  -22.5504 H   0  0  0  0  0  0
    5.3793    8.7567  -20.7796 H   0  0  0  0  0  0
  1  2  2  0  0  0
  1  3  1  0  0  0
  1 34  1  0  0  0
  2  6  1  0  0  0
  2 35  1  0  0  0
  3  5  2  0  0  0
  3 27  1  0  0  0
  4  5  1  0  0  0
  4  6  2  0  0  0
  4 18  1  0  0  0
  5 24  1  0  0  0
  6 10  1  0  0  0
  7 10  2  0  0  0
  7 23  1  0  0  0
  7 33  1  0  0  0
  8 21  1  0  0  0
  8 22  1  0  0  0
  8 36  1  0  0  0
  8 37  1  0  0  0
  9 21  1  0  0  0
  9 31  1  0  0  0
  9 38  1  0  0  0
  9 39  1  0  0  0
 10 40  1  0  0  0
 11 12  1  0  0  0
 11 14  2  0  0  0
 11 15  1  0  0  0
 12 17  1  0  0  0
 12 28  2  0  0  0
 13 28  1  0  0  0
 13 29  2  0  0  0
 13 53  1  0  0  0
 14 29  1  0  0  0
 14 31  1  0  0  0
 15 30  2  0  0  0
 15 41  1  0  0  0
 16 17  2  0  0  0
 16 18  1  0  0  0
 16 30  1  0  0  0
 17 26  1  0  0  0
 18 23  2  0  0  0
 19 20  1  0  0  0
 19 31  1  0  0  0
 19 42  1  0  0  0
 19 43  1  0  0  0
 20 22  1  0  0  0
 20 32  1  0  0  0
 20 44  1  0  0  0
 21 32  1  0  0  0
 21 45  1  0  0  0
 22 46  1  0  0  0
 22 47  1  0  0  0
 23 48  1  0  0  0
 24 25  3  0  0  0
 25 49  1  0  0  0
 32 50  1  0  0  0
 33 51  1  0  0  0
 52 53  1  0  0  0
 52 54  1  0  0  0
 52 55  1  0  0  0
 52 56  1  0  0  0
 53 57  1  0  0  0
 53 58  1  0  0  0
 54 59  1  0  0  0
 54 60  1  0  0  0
 54 61  1  0  0  0
M  CHG  1  52   1
M  END
> <s_m_entry_id>
849

> <s_m_entry_name>
000000691.1

> <s_m_Source_Path>
/Users/zaksoul/Documents/3r_UNI/2nd_SEMESTER/BSC/FRAG_RECON/RESULTS/2

> <s_m_Source_File>
000000691.mol2

> <i_m_Source_File_Index>
1

$$$$
No_0_713
                    3D
 Schrodinger Suite 2022-4.
 61 66  0  0  1  0            999 V2000
   -5.2810    3.5400  -21.8940 C   0  0  0  0  0  0
   -5.5350    3.7750  -23.2250 C   0  0  0  0  0  0
   -4.0460    3.2750  -21.5510 C   0  0  0  0  0  0
   -3.1350    3.4760  -23.7030 C   0  0  0  0  0  0
   -2.9870    3.1830  -22.2910 C   0  0  0  0  0  0
   -4.4780    3.7580  -24.2270 C   0  0  0  0  0  0
   -3.7030    3.8560  -26.4160 C   0  0  0  0  0  0
    5.9780    2.9350  -21.0920 C   0  0  0  0  0  0
    5.8630    3.1660  -23.6360 C   0  0  0  0  0  0
   -4.7170    3.9320  -25.5590 C   0  0  0  0  0  0
    2.0780    3.7160  -23.6680 C   0  0  0  0  0  0
    1.2550    4.8130  -23.3380 C   0  0  0  0  0  0
    3.0470    5.9840  -22.6000 C   0  0  0  0  0  0
    3.4760    3.8950  -23.3360 C   0  0  0  0  0  0
    1.5380    2.6220  -24.3730 C   0  0  0  0  0  0
   -0.5900    3.4320  -24.2530 C   0  0  0  0  0  0
   -0.0690    4.6310  -23.6070 C   0  0  0  0  0  0
   -2.0400    3.4510  -24.6200 C   0  0  0  0  0  0
    4.0790    1.3880  -23.1260 C   0  0  0  0  0  0
    5.0020    0.9920  -21.9840 C   0  0  2  0  0  0
    6.6000    2.5500  -22.4520 C   0  0  2  0  0  0
    4.9730    1.9520  -20.7830 C   0  0  0  0  0  0
   -2.3530    3.6600  -26.0450 C   0  0  0  0  0  0
   -1.6490    2.7480  -21.6950 C   0  0  0  0  0  0
   -0.6220    2.3830  -21.1920 C   0  0  0  0  0  0
   -0.9140    5.6630  -23.2340 F   0  0  0  0  0  0
   -3.8480    2.9840  -20.1770 F   0  0  0  0  0  0
    1.7270    5.9530  -22.7620 N   0  0  0  0  0  0
    3.9450    5.0290  -22.8460 N   0  0  0  0  0  0
    0.2340    2.5440  -24.6930 N   0  0  0  0  0  0
    4.3950    2.8540  -23.5410 N   0  0  0  0  0  0
    6.4130    1.0760  -22.4510 N   0  0  1  0  0  0
   -3.8630    3.9190  -27.8060 O   0  0  0  0  0  0
   -6.0899    3.5781  -21.1734 H   0  0  0  0  0  0
   -6.5466    3.9817  -23.5552 H   0  0  0  0  0  0
    5.5084    3.9266  -21.1708 H   0  0  0  0  0  0
    6.7567    2.9179  -20.3153 H   0  0  0  0  0  0
    6.2659    2.7540  -24.5730 H   0  0  0  0  0  0
    6.0063    4.2566  -23.6289 H   0  0  0  0  0  0
   -5.7242    4.1286  -25.9081 H   0  0  0  0  0  0
    2.1798    1.8035  -24.6783 H   0  0  0  0  0  0
    3.0331    1.3204  -22.7921 H   0  0  0  0  0  0
    4.2486    0.7197  -23.9831 H   0  0  0  0  0  0
    4.7740   -0.0320  -21.6531 H   0  0  0  0  0  0
    7.6688    2.8084  -22.4803 H   0  0  0  0  0  0
    3.9892    2.4414  -20.7305 H   0  0  0  0  0  0
    5.2656    1.4061  -19.8739 H   0  0  0  0  0  0
   -1.5760    3.6670  -26.8009 H   0  0  0  0  0  0
    0.2813    2.0609  -20.7499 H   0  0  0  0  0  0
    7.0538    0.5529  -21.7567 H   0  0  0  0  0  0
   -3.0144    3.8457  -28.2268 H   0  0  0  0  0  0
    5.0470    7.4480  -22.4790 N   0  3  0  0  0  0
    3.6020    7.3060  -22.0810 C   0  0  0  0  0  0
    5.6370    8.8140  -22.2640 C   0  0  0  0  0  0
    5.1530    7.1880  -23.4471 H   0  0  0  0  0  0
    5.5983    6.7647  -21.9838 H   0  0  0  0  0  0
    3.0211    8.1389  -22.5039 H   0  0  0  0  0  0
    3.5200    7.3320  -20.9844 H   0  0  0  0  0  0
    6.6891    8.8130  -22.5850 H   0  0  0  0  0  0
    5.0750    9.5530  -22.8540 H   0  0  0  0  0  0
    5.5789    9.0752  -21.1970 H   0  0  0  0  0  0
  1  2  2  0  0  0
  1  3  1  0  0  0
  1 34  1  0  0  0
  2  6  1  0  0  0
  2 35  1  0  0  0
  3  5  2  0  0  0
  3 27  1  0  0  0
  4  5  1  0  0  0
  4  6  2  0  0  0
  4 18  1  0  0  0
  5 24  1  0  0  0
  6 10  1  0  0  0
  7 10  2  0  0  0
  7 23  1  0  0  0
  7 33  1  0  0  0
  8 21  1  0  0  0
  8 22  1  0  0  0
  8 36  1  0  0  0
  8 37  1  0  0  0
  9 21  1  0  0  0
  9 31  1  0  0  0
  9 38  1  0  0  0
  9 39  1  0  0  0
 10 40  1  0  0  0
 11 12  1  0  0  0
 11 14  2  0  0  0
 11 15  1  0  0  0
 12 17  1  0  0  0
 12 28  2  0  0  0
 13 28  1  0  0  0
 13 29  2  0  0  0
 13 53  1  0  0  0
 14 29  1  0  0  0
 14 31  1  0  0  0
 15 30  2  0  0  0
 15 41  1  0  0  0
 16 17  2  0  0  0
 16 18  1  0  0  0
 16 30  1  0  0  0
 17 26  1  0  0  0
 18 23  2  0  0  0
 19 20  1  0  0  0
 19 31  1  0  0  0
 19 42  1  0  0  0
 19 43  1  0  0  0
 20 22  1  0  0  0
 20 32  1  0  0  0
 20 44  1  0  0  0
 21 32  1  0  0  0
 21 45  1  0  0  0
 22 46  1  0  0  0
 22 47  1  0  0  0
 23 48  1  0  0  0
 24 25  3  0  0  0
 25 49  1  0  0  0
 32 50  1  0  0  0
 33 51  1  0  0  0
 52 53  1  0  0  0
 52 54  1  0  0  0
 52 55  1  0  0  0
 52 56  1  0  0  0
 53 57  1  0  0  0
 53 58  1  0  0  0
 54 59  1  0  0  0
 54 60  1  0  0  0
 54 61  1  0  0  0
M  CHG  1  52   1
M  END
> <s_m_entry_id>
850

> <s_m_entry_name>
000000692.1

> <s_m_Source_Path>
/Users/zaksoul/Documents/3r_UNI/2nd_SEMESTER/BSC/FRAG_RECON/RESULTS/2

> <s_m_Source_File>
000000692.mol2

> <i_m_Source_File_Index>
1

$$$$
No_0_714
                    3D
 Schrodinger Suite 2022-4.
 61 66  0  0  1  0            999 V2000
   -5.0540    3.7570  -21.4950 C   0  0  0  0  0  0
   -5.3580    3.9750  -22.8180 C   0  0  0  0  0  0
   -3.8060    3.5020  -21.1940 C   0  0  0  0  0  0
   -2.9750    3.6800  -23.3810 C   0  0  0  0  0  0
   -2.7740    3.4050  -21.9710 C   0  0  0  0  0  0
   -4.3380    3.9490  -23.8580 C   0  0  0  0  0  0
   -3.6440    4.0230  -26.0750 C   0  0  0  0  0  0
    6.2300    3.2110  -21.0990 C   0  0  0  0  0  0
    6.0200    3.4100  -23.6400 C   0  0  0  0  0  0
   -4.6260    4.1050  -25.1830 C   0  0  0  0  0  0
    2.2350    3.9420  -23.5400 C   0  0  0  0  0  0
    1.4180    5.0410  -23.1930 C   0  0  0  0  0  0
    3.2310    6.2280  -22.5370 C   0  0  0  0  0  0
    3.6430    4.1320  -23.2620 C   0  0  0  0  0  0
    1.6740    2.8380  -24.2110 C   0  0  0  0  0  0
   -0.4520    3.6400  -24.0230 C   0  0  0  0  0  0
    0.0870    4.8490  -23.4120 C   0  0  0  0  0  0
   -1.9140    3.6480  -24.3370 C   0  0  0  0  0  0
    4.2650    1.6310  -23.0430 C   0  0  0  0  0  0
    5.2310    1.2530  -21.9300 C   0  0  2  0  0  0
    6.8030    2.8120  -22.4760 C   0  0  2  0  0  0
    5.2420    2.2280  -20.7410 C   0  0  0  0  0  0
   -2.2800    3.8380  -25.7510 C   0  0  0  0  0  0
   -1.4120    2.9840  -21.4190 C   0  0  0  0  0  0
   -0.3670    2.6290  -20.9500 C   0  0  0  0  0  0
   -0.7490    5.8820  -23.0210 F   0  0  0  0  0  0
   -3.5560    3.2290  -19.8250 F   0  0  0  0  0  0
    1.9060    6.1890  -22.6490 N   0  0  0  0  0  0
    4.1240    5.2740  -22.8030 N   0  0  0  0  0  0
    0.3600    2.7500  -24.4820 N   0  0  0  0  0  0
    4.5590    3.0920  -23.4870 N   0  0  0  0  0  0
    6.6240    1.3370  -22.4500 N   0  0  1  0  0  0
   -3.8550    4.0680  -27.4590 O   0  0  0  0  0  0
   -5.8353    3.8012  -20.7449 H   0  0  0  0  0  0
   -6.3819    4.1727  -23.1141 H   0  0  0  0  0  0
    5.7530    4.1994  -21.1736 H   0  0  0  0  0  0
    7.0375    3.2080  -20.3521 H   0  0  0  0  0  0
    6.3905    2.9880  -24.5859 H   0  0  0  0  0  0
    6.1583    4.5012  -23.6521 H   0  0  0  0  0  0
   -5.6462    4.2936  -25.4970 H   0  0  0  0  0  0
    2.3081    2.0183  -24.5290 H   0  0  0  0  0  0
    3.2326    1.5624  -22.6696 H   0  0  0  0  0  0
    4.4063    0.9519  -23.8967 H   0  0  0  0  0  0
    5.0209    0.2320  -21.5786 H   0  0  0  0  0  0
    7.8689    3.0744  -22.5467 H   0  0  0  0  0  0
    4.2582    2.7133  -20.6593 H   0  0  0  0  0  0
    5.5701    1.6950  -19.8364 H   0  0  0  0  0  0
   -1.5318    3.8380  -26.5353 H   0  0  0  0  0  0
    0.5536    2.3171  -20.5372 H   0  0  0  0  0  0
    7.2924    0.8258  -21.7730 H   0  0  0  0  0  0
   -3.0221    3.9927  -27.9096 H   0  0  0  0  0  0
    4.9870    7.9460  -22.8940 N   0  3  0  0  0  0
    3.7980    7.5590  -22.0540 C   0  0  0  0  0  0
    5.4750    9.3540  -22.7010 C   0  0  0  0  0  0
    4.7701    7.7991  -23.8674 H   0  0  0  0  0  0
    5.7438    7.3042  -22.7170 H   0  0  0  0  0  0
    3.0247    8.3373  -22.1340 H   0  0  0  0  0  0
    4.1072    7.4660  -21.0024 H   0  0  0  0  0  0
    6.3405    9.5351  -23.3554 H   0  0  0  0  0  0
    4.6694   10.0587  -22.9549 H   0  0  0  0  0  0
    5.7720    9.4990  -21.6518 H   0  0  0  0  0  0
  1  2  2  0  0  0
  1  3  1  0  0  0
  1 34  1  0  0  0
  2  6  1  0  0  0
  2 35  1  0  0  0
  3  5  2  0  0  0
  3 27  1  0  0  0
  4  5  1  0  0  0
  4  6  2  0  0  0
  4 18  1  0  0  0
  5 24  1  0  0  0
  6 10  1  0  0  0
  7 10  2  0  0  0
  7 23  1  0  0  0
  7 33  1  0  0  0
  8 21  1  0  0  0
  8 22  1  0  0  0
  8 36  1  0  0  0
  8 37  1  0  0  0
  9 21  1  0  0  0
  9 31  1  0  0  0
  9 38  1  0  0  0
  9 39  1  0  0  0
 10 40  1  0  0  0
 11 12  1  0  0  0
 11 14  2  0  0  0
 11 15  1  0  0  0
 12 17  1  0  0  0
 12 28  2  0  0  0
 13 28  1  0  0  0
 13 29  2  0  0  0
 13 53  1  0  0  0
 14 29  1  0  0  0
 14 31  1  0  0  0
 15 30  2  0  0  0
 15 41  1  0  0  0
 16 17  2  0  0  0
 16 18  1  0  0  0
 16 30  1  0  0  0
 17 26  1  0  0  0
 18 23  2  0  0  0
 19 20  1  0  0  0
 19 31  1  0  0  0
 19 42  1  0  0  0
 19 43  1  0  0  0
 20 22  1  0  0  0
 20 32  1  0  0  0
 20 44  1  0  0  0
 21 32  1  0  0  0
 21 45  1  0  0  0
 22 46  1  0  0  0
 22 47  1  0  0  0
 23 48  1  0  0  0
 24 25  3  0  0  0
 25 49  1  0  0  0
 32 50  1  0  0  0
 33 51  1  0  0  0
 52 53  1  0  0  0
 52 54  1  0  0  0
 52 55  1  0  0  0
 52 56  1  0  0  0
 53 57  1  0  0  0
 53 58  1  0  0  0
 54 59  1  0  0  0
 54 60  1  0  0  0
 54 61  1  0  0  0
M  CHG  1  52   1
M  END
> <s_m_entry_id>
851

> <s_m_entry_name>
000000693.1

> <s_m_Source_Path>
/Users/zaksoul/Documents/3r_UNI/2nd_SEMESTER/BSC/FRAG_RECON/RESULTS/2

> <s_m_Source_File>
000000693.mol2

> <i_m_Source_File_Index>
1

$$$$
No_0_715
                    3D
 Schrodinger Suite 2022-4.
 61 66  0  0  1  0            999 V2000
   -5.2040    3.8760  -21.8150 C   0  0  0  0  0  0
   -5.4800    4.0750  -23.1470 C   0  0  0  0  0  0
   -3.9710    3.5830  -21.4890 C   0  0  0  0  0  0
   -3.1010    3.6830  -23.6650 C   0  0  0  0  0  0
   -2.9320    3.4320  -22.2470 C   0  0  0  0  0  0
   -4.4460    3.9890  -24.1700 C   0  0  0  0  0  0
   -3.7160    3.9890  -26.3770 C   0  0  0  0  0  0
    6.0460    2.9370  -21.2270 C   0  0  0  0  0  0
    5.8820    3.0860  -23.7740 C   0  0  0  0  0  0
   -4.7080    4.1260  -25.5020 C   0  0  0  0  0  0
    2.1170    3.7560  -23.7470 C   0  0  0  0  0  0
    1.3350    4.8900  -23.4370 C   0  0  0  0  0  0
    3.1790    6.0260  -22.7780 C   0  0  0  0  0  0
    3.5260    3.9010  -23.4500 C   0  0  0  0  0  0
    1.5270    2.6570  -24.4020 C   0  0  0  0  0  0
   -0.5720    3.5380  -24.2660 C   0  0  0  0  0  0
    0.0010    4.7410  -23.6730 C   0  0  0  0  0  0
   -2.0280    3.5920  -24.6030 C   0  0  0  0  0  0
    4.0540    1.3850  -23.1670 C   0  0  0  0  0  0
    4.9890    0.9980  -22.0310 C   0  0  2  0  0  0
    6.6250    2.4870  -22.5860 C   0  0  2  0  0  0
    5.0170    1.9980  -20.8640 C   0  0  0  0  0  0
   -2.3650    3.7630  -26.0270 C   0  0  0  0  0  0
   -1.5950    2.9750  -21.6640 C   0  0  0  0  0  0
   -0.5700    2.5940  -21.1710 C   0  0  0  0  0  0
   -0.8030    5.8120  -23.3180 F   0  0  0  0  0  0
   -3.7520    3.3330  -20.1100 F   0  0  0  0  0  0
    1.8550    6.0320  -22.9110 N   0  0  0  0  0  0
    4.0410    5.0360  -23.0090 N   0  0  0  0  0  0
    0.2150    2.6100  -24.6920 N   0  0  0  0  0  0
    4.4080    2.8240  -23.6390 N   0  0  0  0  0  0
    6.3920    1.0200  -22.5300 N   0  0  1  0  0  0
   -3.9050    4.0100  -27.7650 O   0  0  0  0  0  0
   -5.9951    3.9643  -21.0792 H   0  0  0  0  0  0
   -6.4916    4.3028  -23.4631 H   0  0  0  0  0  0
    5.6053    3.9395  -21.3309 H   0  0  0  0  0  0
    6.8407    2.9219  -20.4666 H   0  0  0  0  0  0
    6.2504    2.6298  -24.7046 H   0  0  0  0  0  0
    6.0595    4.1710  -23.8083 H   0  0  0  0  0  0
   -5.7160    4.3437  -25.8360 H   0  0  0  0  0  0
    2.1357    1.8083  -24.6923 H   0  0  0  0  0  0
    3.0143    1.3618  -22.8086 H   0  0  0  0  0  0
    4.1842    0.6827  -24.0035 H   0  0  0  0  0  0
    4.7376   -0.0067  -21.6604 H   0  0  0  0  0  0
    7.7005    2.7102  -22.6456 H   0  0  0  0  0  0
    4.0509    2.5210  -20.8085 H   0  0  0  0  0  0
    5.3117    1.4743  -19.9427 H   0  0  0  0  0  0
   -1.6057    3.7189  -26.7994 H   0  0  0  0  0  0
    0.3320    2.2590  -20.7360 H   0  0  0  0  0  0
    7.0317    0.5012  -21.8314 H   0  0  0  0  0  0
   -3.0686    3.8952  -28.2005 H   0  0  0  0  0  0
    3.1750    8.4900  -23.0820 N   0  3  0  0  0  0
    3.7860    7.3470  -22.3160 C   0  0  0  0  0  0
    3.4860    9.8580  -22.5440 C   0  0  0  0  0  0
    2.1754    8.3670  -23.1230 H   0  0  0  0  0  0
    3.4641    8.4380  -24.0463 H   0  0  0  0  0  0
    3.5950    7.4820  -21.2411 H   0  0  0  0  0  0
    4.8725    7.3300  -22.4869 H   0  0  0  0  0  0
    2.9960   10.6190  -23.1690 H   0  0  0  0  0  0
    3.1161    9.9390  -21.5112 H   0  0  0  0  0  0
    4.5741   10.0190  -22.5560 H   0  0  0  0  0  0
  1  2  2  0  0  0
  1  3  1  0  0  0
  1 34  1  0  0  0
  2  6  1  0  0  0
  2 35  1  0  0  0
  3  5  2  0  0  0
  3 27  1  0  0  0
  4  5  1  0  0  0
  4  6  2  0  0  0
  4 18  1  0  0  0
  5 24  1  0  0  0
  6 10  1  0  0  0
  7 10  2  0  0  0
  7 23  1  0  0  0
  7 33  1  0  0  0
  8 21  1  0  0  0
  8 22  1  0  0  0
  8 36  1  0  0  0
  8 37  1  0  0  0
  9 21  1  0  0  0
  9 31  1  0  0  0
  9 38  1  0  0  0
  9 39  1  0  0  0
 10 40  1  0  0  0
 11 12  1  0  0  0
 11 14  2  0  0  0
 11 15  1  0  0  0
 12 17  1  0  0  0
 12 28  2  0  0  0
 13 28  1  0  0  0
 13 29  2  0  0  0
 13 53  1  0  0  0
 14 29  1  0  0  0
 14 31  1  0  0  0
 15 30  2  0  0  0
 15 41  1  0  0  0
 16 17  2  0  0  0
 16 18  1  0  0  0
 16 30  1  0  0  0
 17 26  1  0  0  0
 18 23  2  0  0  0
 19 20  1  0  0  0
 19 31  1  0  0  0
 19 42  1  0  0  0
 19 43  1  0  0  0
 20 22  1  0  0  0
 20 32  1  0  0  0
 20 44  1  0  0  0
 21 32  1  0  0  0
 21 45  1  0  0  0
 22 46  1  0  0  0
 22 47  1  0  0  0
 23 48  1  0  0  0
 24 25  3  0  0  0
 25 49  1  0  0  0
 32 50  1  0  0  0
 33 51  1  0  0  0
 52 53  1  0  0  0
 52 54  1  0  0  0
 52 55  1  0  0  0
 52 56  1  0  0  0
 53 57  1  0  0  0
 53 58  1  0  0  0
 54 59  1  0  0  0
 54 60  1  0  0  0
 54 61  1  0  0  0
M  CHG  1  52   1
M  END
> <s_m_entry_id>
852

> <s_m_entry_name>
000000694.1

> <s_m_Source_Path>
/Users/zaksoul/Documents/3r_UNI/2nd_SEMESTER/BSC/FRAG_RECON/RESULTS/2

> <s_m_Source_File>
000000694.mol2

> <i_m_Source_File_Index>
1

$$$$
No_0_716
                    3D
 Schrodinger Suite 2022-4.
 67 73  0  0  1  0            999 V2000
   -5.3880    3.2770  -22.1740 C   0  0  0  0  0  0
   -5.6350    3.4320  -23.5180 C   0  0  0  0  0  0
   -4.1510    3.0570  -21.8070 C   0  0  0  0  0  0
   -3.2250    3.1550  -23.9600 C   0  0  0  0  0  0
   -3.0840    2.9450  -22.5320 C   0  0  0  0  0  0
   -4.5680    3.3790  -24.5090 C   0  0  0  0  0  0
   -3.7760    3.3690  -26.6940 C   0  0  0  0  0  0
    5.8730    2.9490  -21.2500 C   0  0  0  0  0  0
    5.7760    3.0340  -23.8040 C   0  0  0  0  0  0
   -4.7990    3.4720  -25.8510 C   0  0  0  0  0  0
    1.9820    3.5030  -23.8970 C   0  0  0  0  0  0
    1.1330    4.6000  -23.6360 C   0  0  0  0  0  0
    2.8950    5.8470  -22.9520 C   0  0  0  0  0  0
    3.3720    3.7290  -23.5650 C   0  0  0  0  0  0
    1.4700    2.3610  -24.5430 C   0  0  0  0  0  0
   -0.6750    3.1320  -24.4860 C   0  0  0  0  0  0
   -0.1840    4.3760  -23.9050 C   0  0  0  0  0  0
   -2.1220    3.1010  -24.8650 C   0  0  0  0  0  0
    4.0230    1.2510  -23.2090 C   0  0  0  0  0  0
    4.9440    0.9390  -22.0390 C   0  0  2  0  0  0
    6.5150    2.5010  -22.5820 C   0  0  2  0  0  0
    4.8860    1.9650  -20.8940 C   0  0  0  0  0  0
   -2.4250    3.2230  -26.3020 C   0  0  0  0  0  0
   -1.7420    2.5720  -21.9020 C   0  0  0  0  0  0
   -0.7140    2.2570  -21.3710 C   0  0  0  0  0  0
   -1.0520    5.4100  -23.5980 F   0  0  0  0  0  0
   -3.9600    2.8480  -20.4170 F   0  0  0  0  0  0
    1.5780    5.7800  -23.1220 N   0  0  0  0  0  0
    3.8140    4.8990  -23.1360 N   0  0  0  0  0  0
    0.1710    2.2380  -24.8690 N   0  0  0  0  0  0
    4.3150    2.6970  -23.7040 N   0  0  0  0  0  0
    6.3570    1.0250  -22.4990 N   0  0  1  0  0  0
   -3.9250    3.3510  -28.0870 O   0  0  0  0  0  0
   -6.2041    3.3392  -21.4633 H   0  0  0  0  0  0
   -6.6476    3.5986  -23.8672 H   0  0  0  0  0  0
    5.3842    3.9245  -21.3894 H   0  0  0  0  0  0
    6.6457    2.9914  -20.4682 H   0  0  0  0  0  0
    6.1956    2.5781  -24.7129 H   0  0  0  0  0  0
    5.8971    4.1260  -23.8585 H   0  0  0  0  0  0
   -5.8066    3.6296  -26.2183 H   0  0  0  0  0  0
    2.1302    1.5393  -24.7958 H   0  0  0  0  0  0
    2.9761    1.1803  -22.8789 H   0  0  0  0  0  0
    4.2138    0.5382  -24.0248 H   0  0  0  0  0  0
    4.7341   -0.0692  -21.6525 H   0  0  0  0  0  0
    7.5788    2.7788  -22.6163 H   0  0  0  0  0  0
    3.8918    2.4354  -20.8778 H   0  0  0  0  0  0
    5.1807    1.4766  -19.9535 H   0  0  0  0  0  0
   -1.6417    3.2029  -27.0511 H   0  0  0  0  0  0
    0.1916    1.9791  -20.9042 H   0  0  0  0  0  0
    7.0025    0.5558  -21.7712 H   0  0  0  0  0  0
   -3.0711    3.2709  -28.4956 H   0  0  0  0  0  0
    6.3800    8.6360  -19.8630 N   0  3  0  0  0  0
    4.7950    7.0480  -22.0160 N   0  0  1  0  0  0
    6.8220    8.2330  -21.2320 C   0  0  0  0  0  0
    4.9230    8.7590  -20.1740 C   0  0  0  0  0  0
    5.3290    8.3540  -21.6120 C   0  0  0  0  0  0
    3.4190    7.2070  -22.5040 C   0  0  0  0  0  0
    6.7458    9.5535  -19.6621 H   0  0  0  0  0  0
    6.5120    7.8570  -19.2370 H   0  0  0  0  0  0
    5.4093    6.6348  -22.8024 H   0  0  0  0  0  0
    7.0529    7.1584  -21.1880 H   0  0  0  0  0  0
    7.3328    9.1027  -21.6709 H   0  0  0  0  0  0
    4.6931    9.8344  -20.2000 H   0  0  0  0  0  0
    4.4271    7.8852  -19.7261 H   0  0  0  0  0  0
    5.1360    9.1448  -22.3518 H   0  0  0  0  0  0
    3.4110    7.9023  -23.3564 H   0  0  0  0  0  0
    2.7855    7.5947  -21.6926 H   0  0  0  0  0  0
  1  2  2  0  0  0
  1  3  1  0  0  0
  1 34  1  0  0  0
  2  6  1  0  0  0
  2 35  1  0  0  0
  3  5  2  0  0  0
  3 27  1  0  0  0
  4  5  1  0  0  0
  4  6  2  0  0  0
  4 18  1  0  0  0
  5 24  1  0  0  0
  6 10  1  0  0  0
  7 10  2  0  0  0
  7 23  1  0  0  0
  7 33  1  0  0  0
  8 21  1  0  0  0
  8 22  1  0  0  0
  8 36  1  0  0  0
  8 37  1  0  0  0
  9 21  1  0  0  0
  9 31  1  0  0  0
  9 38  1  0  0  0
  9 39  1  0  0  0
 10 40  1  0  0  0
 11 12  1  0  0  0
 11 14  2  0  0  0
 11 15  1  0  0  0
 12 17  1  0  0  0
 12 28  2  0  0  0
 13 28  1  0  0  0
 13 29  2  0  0  0
 13 57  1  0  0  0
 14 29  1  0  0  0
 14 31  1  0  0  0
 15 30  2  0  0  0
 15 41  1  0  0  0
 16 17  2  0  0  0
 16 18  1  0  0  0
 16 30  1  0  0  0
 17 26  1  0  0  0
 18 23  2  0  0  0
 19 20  1  0  0  0
 19 31  1  0  0  0
 19 42  1  0  0  0
 19 43  1  0  0  0
 20 22  1  0  0  0
 20 32  1  0  0  0
 20 44  1  0  0  0
 21 32  1  0  0  0
 21 45  1  0  0  0
 22 46  1  0  0  0
 22 47  1  0  0  0
 23 48  1  0  0  0
 24 25  3  0  0  0
 25 49  1  0  0  0
 32 50  1  0  0  0
 33 51  1  0  0  0
 52 54  1  0  0  0
 52 55  1  0  0  0
 52 58  1  0  0  0
 52 59  1  0  0  0
 53 56  1  0  0  0
 53 57  1  0  0  0
 53 60  1  0  0  0
 54 56  1  0  0  0
 54 61  1  0  0  0
 54 62  1  0  0  0
 55 56  1  0  0  0
 55 63  1  0  0  0
 55 64  1  0  0  0
 56 65  1  0  0  0
 57 66  1  0  0  0
 57 67  1  0  0  0
M  CHG  1  52   1
M  END
> <s_m_entry_id>
853

> <s_m_entry_name>
000000695.1

> <s_m_Source_Path>
/Users/zaksoul/Documents/3r_UNI/2nd_SEMESTER/BSC/FRAG_RECON/RESULTS/2

> <s_m_Source_File>
000000695.mol2

> <i_m_Source_File_Index>
1

$$$$
No_0_717
                    3D
 Schrodinger Suite 2022-4.
 67 73  0  0  1  0            999 V2000
   -5.4350    3.5530  -22.0780 C   0  0  0  0  0  0
   -5.6840    3.7600  -23.4140 C   0  0  0  0  0  0
   -4.2040    3.2780  -21.7270 C   0  0  0  0  0  0
   -3.2880    3.4160  -23.8820 C   0  0  0  0  0  0
   -3.1460    3.1530  -22.4620 C   0  0  0  0  0  0
   -4.6260    3.7040  -24.4140 C   0  0  0  0  0  0
   -3.8470    3.7390  -26.6040 C   0  0  0  0  0  0
    5.8130    2.8050  -21.2430 C   0  0  0  0  0  0
    5.7040    2.9780  -23.7920 C   0  0  0  0  0  0
   -4.8610    3.8500  -25.7500 C   0  0  0  0  0  0
    1.9280    3.5810  -23.8440 C   0  0  0  0  0  0
    1.1200    4.6980  -23.5410 C   0  0  0  0  0  0
    2.9280    5.8600  -22.8280 C   0  0  0  0  0  0
    3.3280    3.7480  -23.5130 C   0  0  0  0  0  0
    1.3730    2.4790  -24.5230 C   0  0  0  0  0  0
   -0.7430    3.3220  -24.4260 C   0  0  0  0  0  0
   -0.2060    4.5280  -23.8080 C   0  0  0  0  0  0
   -2.1920    3.3530  -24.7960 C   0  0  0  0  0  0
    3.8940    1.2390  -23.2440 C   0  0  0  0  0  0
    4.8100    0.8560  -22.0910 C   0  0  2  0  0  0
    6.4310    2.3800  -22.5930 C   0  0  2  0  0  0
    4.7940    1.8450  -20.9130 C   0  0  0  0  0  0
   -2.5000    3.5330  -26.2250 C   0  0  0  0  0  0
   -1.8150    2.7140  -21.8540 C   0  0  0  0  0  0
   -0.7940    2.3450  -21.3410 C   0  0  0  0  0  0
   -1.0360    5.5810  -23.4600 F   0  0  0  0  0  0
   -4.0120    3.0170  -20.3460 F   0  0  0  0  0  0
    1.6080    5.8440  -22.9910 N   0  0  0  0  0  0
    3.8130    4.8870  -23.0490 N   0  0  0  0  0  0
    0.0690    2.4120  -24.8440 N   0  0  0  0  0  0
    4.2330    2.6890  -23.6930 N   0  0  0  0  0  0
    6.2230    0.9090  -22.5580 N   0  0  1  0  0  0
   -4.0040    3.7720  -27.9950 O   0  0  0  0  0  0
   -6.2439    3.6192  -21.3594 H   0  0  0  0  0  0
   -6.6918    3.9738  -23.7513 H   0  0  0  0  0  0
    5.3579    3.8010  -21.3469 H   0  0  0  0  0  0
    6.5913    2.7959  -20.4657 H   0  0  0  0  0  0
    6.1026    2.5390  -24.7185 H   0  0  0  0  0  0
    5.8634    4.0662  -23.8112 H   0  0  0  0  0  0
   -5.8646    4.0537  -26.1053 H   0  0  0  0  0  0
    2.0035    1.6446  -24.8081 H   0  0  0  0  0  0
    2.8470    1.1936  -22.9098 H   0  0  0  0  0  0
    4.0554    0.5479  -24.0844 H   0  0  0  0  0  0
    4.5677   -0.1568  -21.7366 H   0  0  0  0  0  0
    7.5035    2.6222  -22.6253 H   0  0  0  0  0  0
    3.8169    2.3487  -20.8746 H   0  0  0  0  0  0
    5.0765    1.3163  -19.9907 H   0  0  0  0  0  0
   -1.7227    3.5109  -26.9802 H   0  0  0  0  0  0
    0.1041    2.0209  -20.8899 H   0  0  0  0  0  0
    6.8557    0.3938  -21.8504 H   0  0  0  0  0  0
   -3.1560    3.6770  -28.4126 H   0  0  0  0  0  0
    7.0890    8.5060  -20.5590 N   0  3  0  0  0  0
    4.9670    7.0980  -22.3440 N   0  0  1  0  0  0
    7.0770    8.3580  -22.0460 C   0  0  0  0  0  0
    5.6060    8.5220  -20.3690 C   0  0  0  0  0  0
    5.5380    8.3790  -21.9090 C   0  0  0  0  0  0
    3.5010    7.1850  -22.3380 C   0  0  0  0  0  0
    7.4548    9.4165  -20.3281 H   0  0  0  0  0  0
    7.4582    7.6606  -20.1528 H   0  0  0  0  0  0
    5.3091    6.8729  -23.3433 H   0  0  0  0  0  0
    7.3629    7.3184  -22.2639 H   0  0  0  0  0  0
    7.3721    9.3313  -22.4651 H   0  0  0  0  0  0
    5.3270    9.5600  -20.1350 H   0  0  0  0  0  0
    5.3287    7.5449  -19.9465 H   0  0  0  0  0  0
    5.0738    9.2463  -22.4012 H   0  0  0  0  0  0
    3.1791    7.9936  -23.0107 H   0  0  0  0  0  0
    3.1497    7.3812  -21.3142 H   0  0  0  0  0  0
  1  2  2  0  0  0
  1  3  1  0  0  0
  1 34  1  0  0  0
  2  6  1  0  0  0
  2 35  1  0  0  0
  3  5  2  0  0  0
  3 27  1  0  0  0
  4  5  1  0  0  0
  4  6  2  0  0  0
  4 18  1  0  0  0
  5 24  1  0  0  0
  6 10  1  0  0  0
  7 10  2  0  0  0
  7 23  1  0  0  0
  7 33  1  0  0  0
  8 21  1  0  0  0
  8 22  1  0  0  0
  8 36  1  0  0  0
  8 37  1  0  0  0
  9 21  1  0  0  0
  9 31  1  0  0  0
  9 38  1  0  0  0
  9 39  1  0  0  0
 10 40  1  0  0  0
 11 12  1  0  0  0
 11 14  2  0  0  0
 11 15  1  0  0  0
 12 17  1  0  0  0
 12 28  2  0  0  0
 13 28  1  0  0  0
 13 29  2  0  0  0
 13 57  1  0  0  0
 14 29  1  0  0  0
 14 31  1  0  0  0
 15 30  2  0  0  0
 15 41  1  0  0  0
 16 17  2  0  0  0
 16 18  1  0  0  0
 16 30  1  0  0  0
 17 26  1  0  0  0
 18 23  2  0  0  0
 19 20  1  0  0  0
 19 31  1  0  0  0
 19 42  1  0  0  0
 19 43  1  0  0  0
 20 22  1  0  0  0
 20 32  1  0  0  0
 20 44  1  0  0  0
 21 32  1  0  0  0
 21 45  1  0  0  0
 22 46  1  0  0  0
 22 47  1  0  0  0
 23 48  1  0  0  0
 24 25  3  0  0  0
 25 49  1  0  0  0
 32 50  1  0  0  0
 33 51  1  0  0  0
 52 54  1  0  0  0
 52 55  1  0  0  0
 52 58  1  0  0  0
 52 59  1  0  0  0
 53 56  1  0  0  0
 53 57  1  0  0  0
 53 60  1  0  0  0
 54 56  1  0  0  0
 54 61  1  0  0  0
 54 62  1  0  0  0
 55 56  1  0  0  0
 55 63  1  0  0  0
 55 64  1  0  0  0
 56 65  1  0  0  0
 57 66  1  0  0  0
 57 67  1  0  0  0
M  CHG  1  52   1
M  END
> <s_m_entry_id>
854

> <s_m_entry_name>
000000696.1

> <s_m_Source_Path>
/Users/zaksoul/Documents/3r_UNI/2nd_SEMESTER/BSC/FRAG_RECON/RESULTS/2

> <s_m_Source_File>
000000696.mol2

> <i_m_Source_File_Index>
1

$$$$
No_0_718
                    3D
 Schrodinger Suite 2022-4.
 67 73  0  0  1  0            999 V2000
   -5.1340    3.6190  -21.9360 C   0  0  0  0  0  0
   -5.3810    3.8360  -23.2710 C   0  0  0  0  0  0
   -3.9000    3.3670  -21.5820 C   0  0  0  0  0  0
   -2.9760    3.5480  -23.7300 C   0  0  0  0  0  0
   -2.8350    3.2730  -22.3130 C   0  0  0  0  0  0
   -4.3170    3.8130  -24.2660 C   0  0  0  0  0  0
   -3.5280    3.8890  -26.4510 C   0  0  0  0  0  0
    6.1230    3.1040  -21.0500 C   0  0  0  0  0  0
    6.0230    3.3020  -23.5980 C   0  0  0  0  0  0
   -4.5480    3.9680  -25.6020 C   0  0  0  0  0  0
    2.2350    3.8250  -23.6630 C   0  0  0  0  0  0
    1.4020    4.9200  -23.3520 C   0  0  0  0  0  0
    3.1810    6.1130  -22.6170 C   0  0  0  0  0  0
    3.6290    4.0180  -23.3230 C   0  0  0  0  0  0
    1.7080    2.7190  -24.3570 C   0  0  0  0  0  0
   -0.4270    3.5150  -24.2620 C   0  0  0  0  0  0
    0.0820    4.7250  -23.6280 C   0  0  0  0  0  0
   -1.8740    3.5190  -24.6390 C   0  0  0  0  0  0
    4.2480    1.5180  -23.0770 C   0  0  0  0  0  0
    5.1670    1.1430  -21.9240 C   0  0  2  0  0  0
    6.7560    2.7070  -22.4010 C   0  0  2  0  0  0
    5.1230    2.1180  -20.7360 C   0  0  0  0  0  0
   -2.1780    3.7080  -26.0680 C   0  0  0  0  0  0
   -1.4980    2.8560  -21.7020 C   0  0  0  0  0  0
   -0.4730    2.5040  -21.1880 C   0  0  0  0  0  0
   -0.7730    5.7560  -23.2730 F   0  0  0  0  0  0
   -3.7090    3.0950  -20.2020 F   0  0  0  0  0  0
    1.8620    6.0710  -22.7870 N   0  0  0  0  0  0
    4.0870    5.1620  -22.8440 N   0  0  0  0  0  0
    0.4070    2.6270  -24.6850 N   0  0  0  0  0  0
    4.5580    2.9810  -23.5090 N   0  0  0  0  0  0
    6.5800    1.2310  -22.3830 N   0  0  1  0  0  0
   -3.6790    3.9340  -27.8420 O   0  0  0  0  0  0
   -5.9480    3.6602  -21.2213 H   0  0  0  0  0  0
   -6.3915    4.0317  -23.6112 H   0  0  0  0  0  0
    5.6467    4.0910  -21.1449 H   0  0  0  0  0  0
    6.8973    3.1030  -20.2687 H   0  0  0  0  0  0
    6.4358    2.8811  -24.5266 H   0  0  0  0  0  0
    6.1592    4.3935  -23.6041 H   0  0  0  0  0  0
   -5.5540    4.1546  -25.9601 H   0  0  0  0  0  0
    2.3574    1.9010  -24.6471 H   0  0  0  0  0  0
    3.2001    1.4473  -22.7499 H   0  0  0  0  0  0
    4.4287    0.8408  -23.9248 H   0  0  0  0  0  0
    4.9440    0.1216  -21.5819 H   0  0  0  0  0  0
    7.8233    2.9723  -22.4252 H   0  0  0  0  0  0
    4.1356    2.6011  -20.6967 H   0  0  0  0  0  0
    5.4126    1.5862  -19.8177 H   0  0  0  0  0  0
   -1.3966    3.7110  -26.8193 H   0  0  0  0  0  0
    0.4294    2.1942  -20.7353 H   0  0  0  0  0  0
    7.2202    0.7222  -21.6776 H   0  0  0  0  0  0
   -2.8273    3.8608  -28.2565 H   0  0  0  0  0  0
    7.4800    9.0060  -21.0010 N   0  3  0  0  0  0
    5.1510    7.5320  -22.4410 N   0  0  1  0  0  0
    7.1460    8.9970  -22.4570 C   0  0  0  0  0  0
    6.0840    8.8300  -20.4970 C   0  0  0  0  0  0
    5.6830    8.8240  -21.9910 C   0  0  0  0  0  0
    3.7230    7.4450  -22.1100 C   0  0  0  0  0  0
    7.8008    9.9275  -20.7481 H   0  0  0  0  0  0
    8.0092    8.1757  -20.7849 H   0  0  0  0  0  0
    5.2780    7.4420  -23.5097 H   0  0  0  0  0  0
    7.4719    8.0234  -22.8518 H   0  0  0  0  0  0
    7.2460   10.0330  -22.8130 H   0  0  0  0  0  0
    5.7693    9.8012  -20.0874 H   0  0  0  0  0  0
    6.0020    7.7924  -20.1411 H   0  0  0  0  0  0
    5.0403    9.6727  -22.2679 H   0  0  0  0  0  0
    3.1831    8.2699  -22.5979 H   0  0  0  0  0  0
    3.5950    7.5020  -21.0190 H   0  0  0  0  0  0
  1  2  2  0  0  0
  1  3  1  0  0  0
  1 34  1  0  0  0
  2  6  1  0  0  0
  2 35  1  0  0  0
  3  5  2  0  0  0
  3 27  1  0  0  0
  4  5  1  0  0  0
  4  6  2  0  0  0
  4 18  1  0  0  0
  5 24  1  0  0  0
  6 10  1  0  0  0
  7 10  2  0  0  0
  7 23  1  0  0  0
  7 33  1  0  0  0
  8 21  1  0  0  0
  8 22  1  0  0  0
  8 36  1  0  0  0
  8 37  1  0  0  0
  9 21  1  0  0  0
  9 31  1  0  0  0
  9 38  1  0  0  0
  9 39  1  0  0  0
 10 40  1  0  0  0
 11 12  1  0  0  0
 11 14  2  0  0  0
 11 15  1  0  0  0
 12 17  1  0  0  0
 12 28  2  0  0  0
 13 28  1  0  0  0
 13 29  2  0  0  0
 13 57  1  0  0  0
 14 29  1  0  0  0
 14 31  1  0  0  0
 15 30  2  0  0  0
 15 41  1  0  0  0
 16 17  2  0  0  0
 16 18  1  0  0  0
 16 30  1  0  0  0
 17 26  1  0  0  0
 18 23  2  0  0  0
 19 20  1  0  0  0
 19 31  1  0  0  0
 19 42  1  0  0  0
 19 43  1  0  0  0
 20 22  1  0  0  0
 20 32  1  0  0  0
 20 44  1  0  0  0
 21 32  1  0  0  0
 21 45  1  0  0  0
 22 46  1  0  0  0
 22 47  1  0  0  0
 23 48  1  0  0  0
 24 25  3  0  0  0
 25 49  1  0  0  0
 32 50  1  0  0  0
 33 51  1  0  0  0
 52 54  1  0  0  0
 52 55  1  0  0  0
 52 58  1  0  0  0
 52 59  1  0  0  0
 53 56  1  0  0  0
 53 57  1  0  0  0
 53 60  1  0  0  0
 54 56  1  0  0  0
 54 61  1  0  0  0
 54 62  1  0  0  0
 55 56  1  0  0  0
 55 63  1  0  0  0
 55 64  1  0  0  0
 56 65  1  0  0  0
 57 66  1  0  0  0
 57 67  1  0  0  0
M  CHG  1  52   1
M  END
> <s_m_entry_id>
855

> <s_m_entry_name>
000000697.1

> <s_m_Source_Path>
/Users/zaksoul/Documents/3r_UNI/2nd_SEMESTER/BSC/FRAG_RECON/RESULTS/2

> <s_m_Source_File>
000000697.mol2

> <i_m_Source_File_Index>
1

$$$$
No_0_719
                    3D
 Schrodinger Suite 2022-4.
 67 73  0  0  1  0            999 V2000
   -5.2040    3.6260  -22.1430 C   0  0  0  0  0  0
   -5.4300    3.8410  -23.4820 C   0  0  0  0  0  0
   -3.9740    3.3760  -21.7690 C   0  0  0  0  0  0
   -3.0170    3.5570  -23.9030 C   0  0  0  0  0  0
   -2.8990    3.2830  -22.4830 C   0  0  0  0  0  0
   -4.3500    3.8190  -24.4600 C   0  0  0  0  0  0
   -3.5280    3.8950  -26.6320 C   0  0  0  0  0  0
    6.0400    3.1290  -21.0830 C   0  0  0  0  0  0
    5.9790    3.3250  -23.6320 C   0  0  0  0  0  0
   -4.5610    3.9740  -25.7990 C   0  0  0  0  0  0
    2.1920    3.8420  -23.7550 C   0  0  0  0  0  0
    1.3520    4.9360  -23.4580 C   0  0  0  0  0  0
    3.1170    6.1320  -22.6970 C   0  0  0  0  0  0
    3.5800    4.0370  -23.3950 C   0  0  0  0  0  0
    1.6760    2.7350  -24.4570 C   0  0  0  0  0  0
   -0.4610    3.5270  -24.3950 C   0  0  0  0  0  0
    0.0360    4.7390  -23.7540 C   0  0  0  0  0  0
   -1.9020    3.5290  -24.7950 C   0  0  0  0  0  0
    4.1990    1.5390  -23.1380 C   0  0  0  0  0  0
    5.1000    1.1660  -21.9710 C   0  0  2  0  0  0
    6.6950    2.7310  -22.4240 C   0  0  2  0  0  0
    5.0370    2.1410  -20.7830 C   0  0  0  0  0  0
   -2.1840    3.7170  -26.2280 C   0  0  0  0  0  0
   -1.5700    2.8680  -21.8520 C   0  0  0  0  0  0
   -0.5520    2.5180  -21.3220 C   0  0  0  0  0  0
   -0.8250    5.7690  -23.4140 F   0  0  0  0  0  0
   -3.8040    3.1050  -20.3870 F   0  0  0  0  0  0
    1.8020    6.0870  -22.8870 N   0  0  0  0  0  0
    4.0290    5.1820  -22.9100 N   0  0  0  0  0  0
    0.3810    2.6410  -24.8050 N   0  0  0  0  0  0
    4.5130    3.0010  -23.5660 N   0  0  0  0  0  0
    6.5200    1.2550  -22.4070 N   0  0  1  0  0  0
   -3.6580    3.9390  -28.0260 O   0  0  0  0  0  0
   -6.0283    3.6662  -21.4402 H   0  0  0  0  0  0
   -6.4356    4.0347  -23.8373 H   0  0  0  0  0  0
    5.5636    4.1151  -21.1860 H   0  0  0  0  0  0
    6.8020    3.1290  -20.2897 H   0  0  0  0  0  0
    6.4059    2.9042  -24.5543 H   0  0  0  0  0  0
    6.1132    4.4168  -23.6370 H   0  0  0  0  0  0
   -5.5621    4.1576  -26.1721 H   0  0  0  0  0  0
    2.3308    1.9177  -24.7368 H   0  0  0  0  0  0
    3.1466    1.4664  -22.8262 H   0  0  0  0  0  0
    4.3928    0.8606  -23.9819 H   0  0  0  0  0  0
    4.8739    0.1446  -21.6309 H   0  0  0  0  0  0
    7.7620    2.9985  -22.4321 H   0  0  0  0  0  0
    4.0482    2.6223  -20.7598 H   0  0  0  0  0  0
    5.3127    1.6098  -19.8600 H   0  0  0  0  0  0
   -1.3914    3.7200  -26.9675 H   0  0  0  0  0  0
    0.3437    2.2101  -20.8551 H   0  0  0  0  0  0
    7.1501    0.7479  -21.6913 H   0  0  0  0  0  0
   -2.7995    3.8678  -28.4266 H   0  0  0  0  0  0
    7.4310    9.2350  -21.5850 N   0  3  0  0  0  0
    4.9920    7.6840  -22.7350 N   0  0  1  0  0  0
    6.8570    9.2970  -22.9630 C   0  0  0  0  0  0
    6.1540    8.9180  -20.8740 C   0  0  0  0  0  0
    5.5080    8.9810  -22.2780 C   0  0  0  0  0  0
    3.6500    7.4650  -22.1830 C   0  0  0  0  0  0
    7.7302   10.1595  -21.3169 H   0  0  0  0  0  0
    8.0411    8.4349  -21.5240 H   0  0  0  0  0  0
    4.9420    7.6760  -23.8138 H   0  0  0  0  0  0
    7.1731    8.3796  -23.4812 H   0  0  0  0  0  0
    6.8270   10.3590  -23.2480 H   0  0  0  0  0  0
    5.8502    9.8324  -20.3434 H   0  0  0  0  0  0
    6.2020    7.8556  -20.5929 H   0  0  0  0  0  0
    4.7739    9.7941  -22.3780 H   0  0  0  0  0  0
    2.9825    8.2764  -22.5088 H   0  0  0  0  0  0
    3.7050    7.4390  -21.0847 H   0  0  0  0  0  0
  1  2  2  0  0  0
  1  3  1  0  0  0
  1 34  1  0  0  0
  2  6  1  0  0  0
  2 35  1  0  0  0
  3  5  2  0  0  0
  3 27  1  0  0  0
  4  5  1  0  0  0
  4  6  2  0  0  0
  4 18  1  0  0  0
  5 24  1  0  0  0
  6 10  1  0  0  0
  7 10  2  0  0  0
  7 23  1  0  0  0
  7 33  1  0  0  0
  8 21  1  0  0  0
  8 22  1  0  0  0
  8 36  1  0  0  0
  8 37  1  0  0  0
  9 21  1  0  0  0
  9 31  1  0  0  0
  9 38  1  0  0  0
  9 39  1  0  0  0
 10 40  1  0  0  0
 11 12  1  0  0  0
 11 14  2  0  0  0
 11 15  1  0  0  0
 12 17  1  0  0  0
 12 28  2  0  0  0
 13 28  1  0  0  0
 13 29  2  0  0  0
 13 57  1  0  0  0
 14 29  1  0  0  0
 14 31  1  0  0  0
 15 30  2  0  0  0
 15 41  1  0  0  0
 16 17  2  0  0  0
 16 18  1  0  0  0
 16 30  1  0  0  0
 17 26  1  0  0  0
 18 23  2  0  0  0
 19 20  1  0  0  0
 19 31  1  0  0  0
 19 42  1  0  0  0
 19 43  1  0  0  0
 20 22  1  0  0  0
 20 32  1  0  0  0
 20 44  1  0  0  0
 21 32  1  0  0  0
 21 45  1  0  0  0
 22 46  1  0  0  0
 22 47  1  0  0  0
 23 48  1  0  0  0
 24 25  3  0  0  0
 25 49  1  0  0  0
 32 50  1  0  0  0
 33 51  1  0  0  0
 52 54  1  0  0  0
 52 55  1  0  0  0
 52 58  1  0  0  0
 52 59  1  0  0  0
 53 56  1  0  0  0
 53 57  1  0  0  0
 53 60  1  0  0  0
 54 56  1  0  0  0
 54 61  1  0  0  0
 54 62  1  0  0  0
 55 56  1  0  0  0
 55 63  1  0  0  0
 55 64  1  0  0  0
 56 65  1  0  0  0
 57 66  1  0  0  0
 57 67  1  0  0  0
M  CHG  1  52   1
M  END
> <s_m_entry_id>
856

> <s_m_entry_name>
000000698.1

> <s_m_Source_Path>
/Users/zaksoul/Documents/3r_UNI/2nd_SEMESTER/BSC/FRAG_RECON/RESULTS/2

> <s_m_Source_File>
000000698.mol2

> <i_m_Source_File_Index>
1

$$$$
No_0_720
                    3D
 Schrodinger Suite 2022-4.
 67 73  0  0  1  0            999 V2000
   -5.2800    3.6340  -21.9840 C   0  0  0  0  0  0
   -5.4910    3.8480  -23.3260 C   0  0  0  0  0  0
   -4.0630    3.3400  -21.6020 C   0  0  0  0  0  0
   -3.0890    3.4710  -23.7310 C   0  0  0  0  0  0
   -2.9880    3.2020  -22.3100 C   0  0  0  0  0  0
   -4.4080    3.7790  -24.2970 C   0  0  0  0  0  0
   -3.5710    3.8100  -26.4660 C   0  0  0  0  0  0
    5.9300    2.7210  -20.8580 C   0  0  0  0  0  0
    5.8910    2.9030  -23.4080 C   0  0  0  0  0  0
   -4.6060    3.9330  -25.6390 C   0  0  0  0  0  0
    2.1260    3.5600  -23.5560 C   0  0  0  0  0  0
    1.3270    4.6880  -23.2710 C   0  0  0  0  0  0
    3.1320    5.8220  -22.5070 C   0  0  0  0  0  0
    3.5190    3.7060  -23.1890 C   0  0  0  0  0  0
    1.5740    2.4690  -24.2540 C   0  0  0  0  0  0
   -0.5320    3.3420  -24.2090 C   0  0  0  0  0  0
    0.0060    4.5380  -23.5730 C   0  0  0  0  0  0
   -1.9700    3.3950  -24.6170 C   0  0  0  0  0  0
    4.0420    1.1880  -22.9120 C   0  0  0  0  0  0
    4.9220    0.7890  -21.7380 C   0  0  2  0  0  0
    6.5770    2.2910  -22.1920 C   0  0  2  0  0  0
    4.8890    1.7750  -20.5570 C   0  0  0  0  0  0
   -2.2380    3.5840  -26.0530 C   0  0  0  0  0  0
   -1.6790    2.7420  -21.6680 C   0  0  0  0  0  0
   -0.6780    2.3570  -21.1300 C   0  0  0  0  0  0
   -0.8180    5.6020  -23.2440 F   0  0  0  0  0  0
   -3.9110    3.0720  -20.2170 F   0  0  0  0  0  0
    1.8160    5.8250  -22.7050 N   0  0  0  0  0  0
    4.0080    4.8370  -22.7090 N   0  0  0  0  0  0
    0.2780    2.4210  -24.6080 N   0  0  0  0  0  0
    4.4130    2.6350  -23.3480 N   0  0  0  0  0  0
    6.3470    0.8230  -22.1670 N   0  0  1  0  0  0
   -3.6920    3.8490  -27.8610 O   0  0  0  0  0  0
   -6.1066    3.7102  -21.2868 H   0  0  0  0  0  0
   -6.4867    4.0768  -23.6883 H   0  0  0  0  0  0
    5.4921    3.7239  -20.9700 H   0  0  0  0  0  0
    6.6867    2.6978  -20.0599 H   0  0  0  0  0  0
    6.3067    2.4601  -24.3251 H   0  0  0  0  0  0
    6.0656    3.9890  -23.4191 H   0  0  0  0  0  0
   -5.5971    4.1519  -26.0196 H   0  0  0  0  0  0
    2.1992    1.6260  -24.5250 H   0  0  0  0  0  0
    2.9859    1.1567  -22.6061 H   0  0  0  0  0  0
    4.2156    0.4977  -23.7507 H   0  0  0  0  0  0
    4.6554   -0.2208  -21.3927 H   0  0  0  0  0  0
    7.6533    2.5180  -22.1960 H   0  0  0  0  0  0
    3.9187    2.2930  -20.5429 H   0  0  0  0  0  0
    5.1402    1.2392  -19.6297 H   0  0  0  0  0  0
   -1.4414    3.5519  -26.7874 H   0  0  0  0  0  0
    0.2030    2.0190  -20.6560 H   0  0  0  0  0  0
    6.9536    0.2967  -21.4449 H   0  0  0  0  0  0
   -2.8347    3.7421  -28.2560 H   0  0  0  0  0  0
    7.4900    9.0080  -21.9420 N   0  3  0  0  0  0
    4.9290    7.4440  -22.7590 N   0  0  1  0  0  0
    6.6810    9.1390  -23.1920 C   0  0  0  0  0  0
    6.3680    8.5960  -21.0450 C   0  0  0  0  0  0
    5.4820    8.7260  -22.3070 C   0  0  0  0  0  0
    3.7110    7.1370  -21.9990 C   0  0  0  0  0  0
    7.8072    9.9235  -21.6639 H   0  0  0  0  0  0
    8.1227    8.2304  -22.0470 H   0  0  0  0  0  0
    4.6901    7.5060  -23.8104 H   0  0  0  0  0  0
    6.9250    8.2710  -23.8220 H   0  0  0  0  0  0
    6.5740   10.2157  -23.3900 H   0  0  0  0  0  0
    6.1389    9.4605  -20.4046 H   0  0  0  0  0  0
    6.4919    7.5198  -20.8541 H   0  0  0  0  0  0
    4.7209    9.5151  -22.2180 H   0  0  0  0  0  0
    2.9759    7.9421  -22.1450 H   0  0  0  0  0  0
    3.9600    7.0400  -20.9320 H   0  0  0  0  0  0
  1  2  2  0  0  0
  1  3  1  0  0  0
  1 34  1  0  0  0
  2  6  1  0  0  0
  2 35  1  0  0  0
  3  5  2  0  0  0
  3 27  1  0  0  0
  4  5  1  0  0  0
  4  6  2  0  0  0
  4 18  1  0  0  0
  5 24  1  0  0  0
  6 10  1  0  0  0
  7 10  2  0  0  0
  7 23  1  0  0  0
  7 33  1  0  0  0
  8 21  1  0  0  0
  8 22  1  0  0  0
  8 36  1  0  0  0
  8 37  1  0  0  0
  9 21  1  0  0  0
  9 31  1  0  0  0
  9 38  1  0  0  0
  9 39  1  0  0  0
 10 40  1  0  0  0
 11 12  1  0  0  0
 11 14  2  0  0  0
 11 15  1  0  0  0
 12 17  1  0  0  0
 12 28  2  0  0  0
 13 28  1  0  0  0
 13 29  2  0  0  0
 13 57  1  0  0  0
 14 29  1  0  0  0
 14 31  1  0  0  0
 15 30  2  0  0  0
 15 41  1  0  0  0
 16 17  2  0  0  0
 16 18  1  0  0  0
 16 30  1  0  0  0
 17 26  1  0  0  0
 18 23  2  0  0  0
 19 20  1  0  0  0
 19 31  1  0  0  0
 19 42  1  0  0  0
 19 43  1  0  0  0
 20 22  1  0  0  0
 20 32  1  0  0  0
 20 44  1  0  0  0
 21 32  1  0  0  0
 21 45  1  0  0  0
 22 46  1  0  0  0
 22 47  1  0  0  0
 23 48  1  0  0  0
 24 25  3  0  0  0
 25 49  1  0  0  0
 32 50  1  0  0  0
 33 51  1  0  0  0
 52 54  1  0  0  0
 52 55  1  0  0  0
 52 58  1  0  0  0
 52 59  1  0  0  0
 53 56  1  0  0  0
 53 57  1  0  0  0
 53 60  1  0  0  0
 54 56  1  0  0  0
 54 61  1  0  0  0
 54 62  1  0  0  0
 55 56  1  0  0  0
 55 63  1  0  0  0
 55 64  1  0  0  0
 56 65  1  0  0  0
 57 66  1  0  0  0
 57 67  1  0  0  0
M  CHG  1  52   1
M  END
> <s_m_entry_id>
857

> <s_m_entry_name>
000000699.1

> <s_m_Source_Path>
/Users/zaksoul/Documents/3r_UNI/2nd_SEMESTER/BSC/FRAG_RECON/RESULTS/2

> <s_m_Source_File>
000000699.mol2

> <i_m_Source_File_Index>
1

$$$$
No_0_721
                    3D
 Schrodinger Suite 2022-4.
 67 73  0  0  1  0            999 V2000
   -5.4400    3.1430  -21.7520 C   0  0  0  0  0  0
   -5.6940    3.3770  -23.0830 C   0  0  0  0  0  0
   -4.1990    2.9150  -21.4040 C   0  0  0  0  0  0
   -3.2840    3.1560  -23.5500 C   0  0  0  0  0  0
   -3.1340    2.8600  -22.1390 C   0  0  0  0  0  0
   -4.6320    3.3970  -24.0800 C   0  0  0  0  0  0
   -3.8500    3.5300  -26.2640 C   0  0  0  0  0  0
    5.8290    2.8870  -20.8950 C   0  0  0  0  0  0
    5.7190    3.1270  -23.4380 C   0  0  0  0  0  0
   -4.8700    3.5700  -25.4120 C   0  0  0  0  0  0
    1.9190    3.5580  -23.4880 C   0  0  0  0  0  0
    1.0600    4.6280  -23.1560 C   0  0  0  0  0  0
    2.8110    5.8500  -22.4040 C   0  0  0  0  0  0
    3.3090    3.7790  -23.1470 C   0  0  0  0  0  0
    1.4170    2.4520  -24.2000 C   0  0  0  0  0  0
   -0.7360    3.1940  -24.0880 C   0  0  0  0  0  0
   -0.2560    4.4050  -23.4330 C   0  0  0  0  0  0
   -2.1840    3.1690  -24.4620 C   0  0  0  0  0  0
    3.9890    1.2910  -22.9460 C   0  0  0  0  0  0
    4.9180    0.9190  -21.8010 C   0  0  2  0  0  0
    6.4690    2.5280  -22.2540 C   0  0  2  0  0  0
    4.8540    1.8720  -20.5960 C   0  0  0  0  0  0
   -2.4960    3.3760  -25.8870 C   0  0  0  0  0  0
   -1.7850    2.4640  -21.5380 C   0  0  0  0  0  0
   -0.7510    2.1290  -21.0320 C   0  0  0  0  0  0
   -1.1340    5.4090  -23.0600 F   0  0  0  0  0  0
   -3.9980    2.6240  -20.0300 F   0  0  0  0  0  0
    1.4940    5.7780  -22.5720 N   0  0  0  0  0  0
    3.7400    4.9250  -22.6500 N   0  0  0  0  0  0
    0.1180    2.3340  -24.5270 N   0  0  0  0  0  0
    4.2620    2.7680  -23.3530 N   0  0  0  0  0  0
    6.3280    1.0490  -22.2610 N   0  0  1  0  0  0
   -4.0050    3.5960  -27.6550 O   0  0  0  0  0  0
   -6.2527    3.1530  -21.0347 H   0  0  0  0  0  0
   -6.7099    3.5537  -23.4173 H   0  0  0  0  0  0
    5.3282    3.8634  -20.9717 H   0  0  0  0  0  0
    6.6043    2.8910  -20.1147 H   0  0  0  0  0  0
    6.1387    2.7326  -24.3752 H   0  0  0  0  0  0
    5.8280    4.2215  -23.4259 H   0  0  0  0  0  0
   -5.8810    3.7377  -25.7654 H   0  0  0  0  0  0
    2.0853    1.6553  -24.5060 H   0  0  0  0  0  0
    2.9439    1.1891  -22.6182 H   0  0  0  0  0  0
    4.1839    0.6326  -23.8054 H   0  0  0  0  0  0
    4.7212   -0.1136  -21.4770 H   0  0  0  0  0  0
    7.5292    2.8205  -22.2752 H   0  0  0  0  0  0
    3.8548    2.3292  -20.5465 H   0  0  0  0  0  0
    5.1578    1.3310  -19.6877 H   0  0  0  0  0  0
   -1.7165    3.4101  -26.6395 H   0  0  0  0  0  0
    0.1595    1.8332  -20.5863 H   0  0  0  0  0  0
    6.9822    0.5434  -21.5662 H   0  0  0  0  0  0
   -3.1523    3.5505  -28.0714 H   0  0  0  0  0  0
    6.2750    9.9910  -22.9670 N   0  3  0  0  0  0
    3.9540    7.9210  -22.9780 N   0  0  1  0  0  0
    4.9590   10.0760  -23.6690 C   0  0  0  0  0  0
    5.8090    9.1620  -21.8130 C   0  0  0  0  0  0
    4.4220    9.2260  -22.4950 C   0  0  0  0  0  0
    3.3220    7.1860  -21.8750 C   0  0  0  0  0  0
    6.5210   10.9079  -22.6280 H   0  0  0  0  0  0
    6.9068    9.4402  -23.5268 H   0  0  0  0  0  0
    3.2352    8.0670  -23.7708 H   0  0  0  0  0  0
    5.0210    9.4092  -24.5417 H   0  0  0  0  0  0
    4.5839   11.0993  -23.5200 H   0  0  0  0  0  0
    5.7660    9.8293  -20.9396 H   0  0  0  0  0  0
    6.1959    8.1453  -21.9760 H   0  0  0  0  0  0
    3.6708    9.7555  -21.8906 H   0  0  0  0  0  0
    2.4779    7.7710  -21.4810 H   0  0  0  0  0  0
    4.0630    7.0070  -21.0820 H   0  0  0  0  0  0
  1  2  2  0  0  0
  1  3  1  0  0  0
  1 34  1  0  0  0
  2  6  1  0  0  0
  2 35  1  0  0  0
  3  5  2  0  0  0
  3 27  1  0  0  0
  4  5  1  0  0  0
  4  6  2  0  0  0
  4 18  1  0  0  0
  5 24  1  0  0  0
  6 10  1  0  0  0
  7 10  2  0  0  0
  7 23  1  0  0  0
  7 33  1  0  0  0
  8 21  1  0  0  0
  8 22  1  0  0  0
  8 36  1  0  0  0
  8 37  1  0  0  0
  9 21  1  0  0  0
  9 31  1  0  0  0
  9 38  1  0  0  0
  9 39  1  0  0  0
 10 40  1  0  0  0
 11 12  1  0  0  0
 11 14  2  0  0  0
 11 15  1  0  0  0
 12 17  1  0  0  0
 12 28  2  0  0  0
 13 28  1  0  0  0
 13 29  2  0  0  0
 13 57  1  0  0  0
 14 29  1  0  0  0
 14 31  1  0  0  0
 15 30  2  0  0  0
 15 41  1  0  0  0
 16 17  2  0  0  0
 16 18  1  0  0  0
 16 30  1  0  0  0
 17 26  1  0  0  0
 18 23  2  0  0  0
 19 20  1  0  0  0
 19 31  1  0  0  0
 19 42  1  0  0  0
 19 43  1  0  0  0
 20 22  1  0  0  0
 20 32  1  0  0  0
 20 44  1  0  0  0
 21 32  1  0  0  0
 21 45  1  0  0  0
 22 46  1  0  0  0
 22 47  1  0  0  0
 23 48  1  0  0  0
 24 25  3  0  0  0
 25 49  1  0  0  0
 32 50  1  0  0  0
 33 51  1  0  0  0
 52 54  1  0  0  0
 52 55  1  0  0  0
 52 58  1  0  0  0
 52 59  1  0  0  0
 53 56  1  0  0  0
 53 57  1  0  0  0
 53 60  1  0  0  0
 54 56  1  0  0  0
 54 61  1  0  0  0
 54 62  1  0  0  0
 55 56  1  0  0  0
 55 63  1  0  0  0
 55 64  1  0  0  0
 56 65  1  0  0  0
 57 66  1  0  0  0
 57 67  1  0  0  0
M  CHG  1  52   1
M  END
> <s_m_entry_id>
858

> <s_m_entry_name>
000000700.1

> <s_m_Source_Path>
/Users/zaksoul/Documents/3r_UNI/2nd_SEMESTER/BSC/FRAG_RECON/RESULTS/2

> <s_m_Source_File>
000000700.mol2

> <i_m_Source_File_Index>
1

$$$$
No_0_722
                    3D
 Schrodinger Suite 2022-4.
 67 73  0  0  1  0            999 V2000
   -5.2250    3.7020  -21.7400 C   0  0  0  0  0  0
   -5.4750    3.9180  -23.0750 C   0  0  0  0  0  0
   -3.9920    3.4380  -21.3900 C   0  0  0  0  0  0
   -3.0740    3.6030  -23.5420 C   0  0  0  0  0  0
   -2.9310    3.3300  -22.1250 C   0  0  0  0  0  0
   -4.4150    3.8810  -24.0730 C   0  0  0  0  0  0
   -3.6330    3.9430  -26.2620 C   0  0  0  0  0  0
    6.0300    3.0720  -20.8970 C   0  0  0  0  0  0
    5.9220    3.2650  -23.4450 C   0  0  0  0  0  0
   -4.6500    4.0360  -25.4090 C   0  0  0  0  0  0
    2.1400    3.8260  -23.4960 C   0  0  0  0  0  0
    1.3190    4.9310  -23.1850 C   0  0  0  0  0  0
    3.1130    6.1070  -22.4600 C   0  0  0  0  0  0
    3.5370    4.0060  -23.1630 C   0  0  0  0  0  0
    1.5980    2.7240  -24.1860 C   0  0  0  0  0  0
   -0.5280    3.5430  -24.0840 C   0  0  0  0  0  0
   -0.0050    4.7490  -23.4550 C   0  0  0  0  0  0
   -1.9770    3.5610  -24.4550 C   0  0  0  0  0  0
    4.1310    1.5010  -22.9130 C   0  0  0  0  0  0
    5.0500    1.1190  -21.7630 C   0  0  2  0  0  0
    6.6540    2.6640  -22.2500 C   0  0  2  0  0  0
    5.0210    2.0970  -20.5760 C   0  0  0  0  0  0
   -2.2850    3.7490  -25.8840 C   0  0  0  0  0  0
   -1.5960    2.9010  -21.5190 C   0  0  0  0  0  0
   -0.5720    2.5400  -21.0080 C   0  0  0  0  0  0
   -0.8470    5.7900  -23.1000 F   0  0  0  0  0  0
   -3.7980    3.1670  -20.0100 F   0  0  0  0  0  0
    1.7930    6.0780  -22.6250 N   0  0  0  0  0  0
    4.0080    5.1460  -22.6890 N   0  0  0  0  0  0
    0.2950    2.6450  -24.5080 N   0  0  0  0  0  0
    4.4540    2.9580  -23.3500 N   0  0  0  0  0  0
    6.4620    1.1910  -22.2270 N   0  0  1  0  0  0
   -3.7900    3.9860  -27.6530 O   0  0  0  0  0  0
   -6.0354    3.7532  -21.0219 H   0  0  0  0  0  0
   -6.4850    4.1228  -23.4113 H   0  0  0  0  0  0
    5.5635    4.0636  -20.9929 H   0  0  0  0  0  0
    6.8073    3.0639  -20.1187 H   0  0  0  0  0  0
    6.3257    2.8371  -24.3745 H   0  0  0  0  0  0
    6.0694    4.3550  -23.4541 H   0  0  0  0  0  0
   -5.6558    4.2307  -25.7633 H   0  0  0  0  0  0
    2.2378    1.8985  -24.4762 H   0  0  0  0  0  0
    3.0840    1.4405  -22.5811 H   0  0  0  0  0  0
    4.3005    0.8191  -23.7593 H   0  0  0  0  0  0
    4.8179    0.1010  -21.4169 H   0  0  0  0  0  0
    7.7238    2.9183  -22.2793 H   0  0  0  0  0  0
    4.0388    2.5906  -20.5346 H   0  0  0  0  0  0
    5.3086    1.5642  -19.6577 H   0  0  0  0  0  0
   -1.5061    3.7420  -26.6378 H   0  0  0  0  0  0
    0.3289    2.2220  -20.5581 H   0  0  0  0  0  0
    7.0995    0.6765  -21.5232 H   0  0  0  0  0  0
   -2.9401    3.9039  -28.0695 H   0  0  0  0  0  0
    6.1640   10.4820  -23.4700 N   0  3  0  0  0  0
    3.9980    8.2780  -23.1160 N   0  0  1  0  0  0
    4.7190   10.5300  -23.8480 C   0  0  0  0  0  0
    6.0140    9.5520  -22.3090 C   0  0  0  0  0  0
    4.5050    9.5750  -22.6520 C   0  0  0  0  0  0
    3.6710    7.4350  -21.9590 C   0  0  0  0  0  0
    6.4392   11.3886  -23.1258 H   0  0  0  0  0  0
    6.6729   10.0081  -24.1998 H   0  0  0  0  0  0
    3.1105    8.4301  -23.7123 H   0  0  0  0  0  0
    4.6080    9.9269  -24.7612 H   0  0  0  0  0  0
    4.3423   11.5163  -23.5392 H   0  0  0  0  0  0
    6.1430   10.1568  -21.3993 H   0  0  0  0  0  0
    6.3989    8.5741  -22.6340 H   0  0  0  0  0  0
    3.8901   10.0169  -21.8541 H   0  0  0  0  0  0
    2.9149    7.9401  -21.3399 H   0  0  0  0  0  0
    4.5817    7.2511  -21.3702 H   0  0  0  0  0  0
  1  2  2  0  0  0
  1  3  1  0  0  0
  1 34  1  0  0  0
  2  6  1  0  0  0
  2 35  1  0  0  0
  3  5  2  0  0  0
  3 27  1  0  0  0
  4  5  1  0  0  0
  4  6  2  0  0  0
  4 18  1  0  0  0
  5 24  1  0  0  0
  6 10  1  0  0  0
  7 10  2  0  0  0
  7 23  1  0  0  0
  7 33  1  0  0  0
  8 21  1  0  0  0
  8 22  1  0  0  0
  8 36  1  0  0  0
  8 37  1  0  0  0
  9 21  1  0  0  0
  9 31  1  0  0  0
  9 38  1  0  0  0
  9 39  1  0  0  0
 10 40  1  0  0  0
 11 12  1  0  0  0
 11 14  2  0  0  0
 11 15  1  0  0  0
 12 17  1  0  0  0
 12 28  2  0  0  0
 13 28  1  0  0  0
 13 29  2  0  0  0
 13 57  1  0  0  0
 14 29  1  0  0  0
 14 31  1  0  0  0
 15 30  2  0  0  0
 15 41  1  0  0  0
 16 17  2  0  0  0
 16 18  1  0  0  0
 16 30  1  0  0  0
 17 26  1  0  0  0
 18 23  2  0  0  0
 19 20  1  0  0  0
 19 31  1  0  0  0
 19 42  1  0  0  0
 19 43  1  0  0  0
 20 22  1  0  0  0
 20 32  1  0  0  0
 20 44  1  0  0  0
 21 32  1  0  0  0
 21 45  1  0  0  0
 22 46  1  0  0  0
 22 47  1  0  0  0
 23 48  1  0  0  0
 24 25  3  0  0  0
 25 49  1  0  0  0
 32 50  1  0  0  0
 33 51  1  0  0  0
 52 54  1  0  0  0
 52 55  1  0  0  0
 52 58  1  0  0  0
 52 59  1  0  0  0
 53 56  1  0  0  0
 53 57  1  0  0  0
 53 60  1  0  0  0
 54 56  1  0  0  0
 54 61  1  0  0  0
 54 62  1  0  0  0
 55 56  1  0  0  0
 55 63  1  0  0  0
 55 64  1  0  0  0
 56 65  1  0  0  0
 57 66  1  0  0  0
 57 67  1  0  0  0
M  CHG  1  52   1
M  END
> <s_m_entry_id>
859

> <s_m_entry_name>
000000701.1

> <s_m_Source_Path>
/Users/zaksoul/Documents/3r_UNI/2nd_SEMESTER/BSC/FRAG_RECON/RESULTS/2

> <s_m_Source_File>
000000701.mol2

> <i_m_Source_File_Index>
1

$$$$
No_0_723
                    3D
 Schrodinger Suite 2022-4.
 67 73  0  0  1  0            999 V2000
   -5.0550    3.6620  -21.8780 C   0  0  0  0  0  0
   -5.2890    3.9100  -23.2100 C   0  0  0  0  0  0
   -3.8250    3.3930  -21.5190 C   0  0  0  0  0  0
   -2.8820    3.6140  -23.6550 C   0  0  0  0  0  0
   -2.7560    3.3060  -22.2430 C   0  0  0  0  0  0
   -4.2170    3.9010  -24.1960 C   0  0  0  0  0  0
   -3.4100    4.0190  -26.3720 C   0  0  0  0  0  0
    6.1910    3.0420  -20.9130 C   0  0  0  0  0  0
    6.1130    3.2970  -23.4560 C   0  0  0  0  0  0
   -4.4360    4.0870  -25.5300 C   0  0  0  0  0  0
    2.3300    3.8490  -23.5400 C   0  0  0  0  0  0
    1.5020    4.9440  -23.2120 C   0  0  0  0  0  0
    3.2840    6.1070  -22.4370 C   0  0  0  0  0  0
    3.7220    4.0240  -23.1850 C   0  0  0  0  0  0
    1.8000    2.7630  -24.2630 C   0  0  0  0  0  0
   -0.3300    3.5730  -24.1670 C   0  0  0  0  0  0
    0.1830    4.7650  -23.5030 C   0  0  0  0  0  0
   -1.7740    3.5960  -24.5560 C   0  0  0  0  0  0
    4.3210    1.5150  -22.9900 C   0  0  0  0  0  0
    5.2270    1.1080  -21.8380 C   0  0  2  0  0  0
    6.8320    2.6690  -22.2680 C   0  0  2  0  0  0
    5.1810    2.0570  -20.6290 C   0  0  0  0  0  0
   -2.0650    3.8190  -25.9830 C   0  0  0  0  0  0
   -1.4260    2.8660  -21.6320 C   0  0  0  0  0  0
   -0.4080    2.4950  -21.1170 C   0  0  0  0  0  0
   -0.6670    5.7950  -23.1320 F   0  0  0  0  0  0
   -3.6480    3.0890  -20.1440 F   0  0  0  0  0  0
    1.9660    6.0780  -22.6180 N   0  0  0  0  0  0
    4.1850    5.1540  -22.6780 N   0  0  0  0  0  0
    0.5010    2.6880  -24.6030 N   0  0  0  0  0  0
    4.6450    2.9840  -23.3870 N   0  0  0  0  0  0
    6.6450    1.1950  -22.2830 N   0  0  1  0  0  0
   -3.5490    4.0950  -27.7640 O   0  0  0  0  0  0
   -5.8739    3.6941  -21.1685 H   0  0  0  0  0  0
   -6.2954    4.1207  -23.5532 H   0  0  0  0  0  0
    5.7226    4.0343  -20.9907 H   0  0  0  0  0  0
    6.9584    3.0168  -20.1254 H   0  0  0  0  0  0
    6.5295    2.8936  -24.3908 H   0  0  0  0  0  0
    6.2574    4.3873  -23.4378 H   0  0  0  0  0  0
   -5.4379    4.2888  -25.8914 H   0  0  0  0  0  0
    2.4456    1.9467  -24.5662 H   0  0  0  0  0  0
    3.2703    1.4443  -22.6721 H   0  0  0  0  0  0
    4.5027    0.8549  -23.8510 H   0  0  0  0  0  0
    4.9940    0.0810  -21.5202 H   0  0  0  0  0  0
    7.9012    2.9272  -22.2771 H   0  0  0  0  0  0
    4.1969    2.5465  -20.5866 H   0  0  0  0  0  0
    5.4585    1.5020  -19.7208 H   0  0  0  0  0  0
   -1.2773    3.8320  -26.7276 H   0  0  0  0  0  0
    0.4881    2.1680  -20.6640 H   0  0  0  0  0  0
    7.2754    0.6652  -21.5841 H   0  0  0  0  0  0
   -2.6942    4.0257  -28.1726 H   0  0  0  0  0  0
    5.6890   10.8580  -23.4890 N   0  3  0  0  0  0
    3.8320    8.4160  -22.9780 N   0  0  1  0  0  0
    4.1970   10.7970  -23.5500 C   0  0  0  0  0  0
    5.8690    9.7980  -22.4510 C   0  0  0  0  0  0
    4.3250    9.7010  -22.4680 C   0  0  0  0  0  0
    3.8320    7.4230  -21.8960 C   0  0  0  0  0  0
    5.9600   11.7458  -23.0961 H   0  0  0  0  0  0
    6.0620   10.5220  -24.3631 H   0  0  0  0  0  0
    2.8266    8.5380  -23.3531 H   0  0  0  0  0  0
    3.9371   10.2873  -24.4895 H   0  0  0  0  0  0
    3.8208   11.6994  -23.0458 H   0  0  0  0  0  0
    6.1449   10.3099  -21.5173 H   0  0  0  0  0  0
    6.2491    8.9058  -22.9701 H   0  0  0  0  0  0
    3.8652    9.9869  -21.5105 H   0  0  0  0  0  0
    3.1911    7.7770  -21.0751 H   0  0  0  0  0  0
    4.8610    7.2719  -21.5377 H   0  0  0  0  0  0
  1  2  2  0  0  0
  1  3  1  0  0  0
  1 34  1  0  0  0
  2  6  1  0  0  0
  2 35  1  0  0  0
  3  5  2  0  0  0
  3 27  1  0  0  0
  4  5  1  0  0  0
  4  6  2  0  0  0
  4 18  1  0  0  0
  5 24  1  0  0  0
  6 10  1  0  0  0
  7 10  2  0  0  0
  7 23  1  0  0  0
  7 33  1  0  0  0
  8 21  1  0  0  0
  8 22  1  0  0  0
  8 36  1  0  0  0
  8 37  1  0  0  0
  9 21  1  0  0  0
  9 31  1  0  0  0
  9 38  1  0  0  0
  9 39  1  0  0  0
 10 40  1  0  0  0
 11 12  1  0  0  0
 11 14  2  0  0  0
 11 15  1  0  0  0
 12 17  1  0  0  0
 12 28  2  0  0  0
 13 28  1  0  0  0
 13 29  2  0  0  0
 13 57  1  0  0  0
 14 29  1  0  0  0
 14 31  1  0  0  0
 15 30  2  0  0  0
 15 41  1  0  0  0
 16 17  2  0  0  0
 16 18  1  0  0  0
 16 30  1  0  0  0
 17 26  1  0  0  0
 18 23  2  0  0  0
 19 20  1  0  0  0
 19 31  1  0  0  0
 19 42  1  0  0  0
 19 43  1  0  0  0
 20 22  1  0  0  0
 20 32  1  0  0  0
 20 44  1  0  0  0
 21 32  1  0  0  0
 21 45  1  0  0  0
 22 46  1  0  0  0
 22 47  1  0  0  0
 23 48  1  0  0  0
 24 25  3  0  0  0
 25 49  1  0  0  0
 32 50  1  0  0  0
 33 51  1  0  0  0
 52 54  1  0  0  0
 52 55  1  0  0  0
 52 58  1  0  0  0
 52 59  1  0  0  0
 53 56  1  0  0  0
 53 57  1  0  0  0
 53 60  1  0  0  0
 54 56  1  0  0  0
 54 61  1  0  0  0
 54 62  1  0  0  0
 55 56  1  0  0  0
 55 63  1  0  0  0
 55 64  1  0  0  0
 56 65  1  0  0  0
 57 66  1  0  0  0
 57 67  1  0  0  0
M  CHG  1  52   1
M  END
> <s_m_entry_id>
860

> <s_m_entry_name>
000000702.1

> <s_m_Source_Path>
/Users/zaksoul/Documents/3r_UNI/2nd_SEMESTER/BSC/FRAG_RECON/RESULTS/2

> <s_m_Source_File>
000000702.mol2

> <i_m_Source_File_Index>
1

$$$$
No_0_724
                    3D
 Schrodinger Suite 2022-4.
 67 73  0  0  1  0            999 V2000
   -5.1800    3.3820  -22.1450 C   0  0  0  0  0  0
   -5.3980    3.5950  -23.4850 C   0  0  0  0  0  0
   -3.9610    3.0910  -21.7680 C   0  0  0  0  0  0
   -2.9970    3.2220  -23.9020 C   0  0  0  0  0  0
   -2.8890    2.9550  -22.4800 C   0  0  0  0  0  0
   -4.3190    3.5270  -24.4620 C   0  0  0  0  0  0
   -3.4930    3.5580  -26.6340 C   0  0  0  0  0  0
    6.0370    2.4940  -21.0700 C   0  0  0  0  0  0
    5.9850    2.6740  -23.6200 C   0  0  0  0  0  0
   -4.5240    3.6790  -25.8030 C   0  0  0  0  0  0
    2.2190    3.3230  -23.7510 C   0  0  0  0  0  0
    1.4180    4.4490  -23.4630 C   0  0  0  0  0  0
    3.2240    5.5870  -22.7090 C   0  0  0  0  0  0
    3.6130    3.4720  -23.3910 C   0  0  0  0  0  0
    1.6650    2.2300  -24.4460 C   0  0  0  0  0  0
   -0.4420    3.0980  -24.3920 C   0  0  0  0  0  0
    0.0970    4.2960  -23.7590 C   0  0  0  0  0  0
   -1.8830    3.1480  -24.7930 C   0  0  0  0  0  0
    4.1430    0.9550  -23.1150 C   0  0  0  0  0  0
    5.0290    0.5590  -21.9440 C   0  0  2  0  0  0
    6.6790    2.0640  -22.4070 C   0  0  2  0  0  0
    5.0000    1.5450  -20.7640 C   0  0  0  0  0  0
   -2.1570    3.3350  -26.2280 C   0  0  0  0  0  0
   -1.5760    2.4980  -21.8450 C   0  0  0  0  0  0
   -0.5720    2.1160  -21.3110 C   0  0  0  0  0  0
   -0.7280    5.3590  -23.4270 F   0  0  0  0  0  0
   -3.8020    2.8250  -20.3830 F   0  0  0  0  0  0
    1.9080    5.5880  -22.9000 N   0  0  0  0  0  0
    4.1020    4.6040  -22.9140 N   0  0  0  0  0  0
    0.3670    2.1790  -24.7940 N   0  0  0  0  0  0
    4.5080    2.4020  -23.5530 N   0  0  0  0  0  0
    6.4520    0.5950  -22.3800 N   0  0  1  0  0  0
   -3.6200    3.5960  -28.0280 O   0  0  0  0  0  0
   -6.0034    3.4562  -21.4439 H   0  0  0  0  0  0
   -6.3956    3.8218  -23.8433 H   0  0  0  0  0  0
    5.5970    3.4960  -21.1810 H   0  0  0  0  0  0
    6.7978    2.4728  -20.2759 H   0  0  0  0  0  0
    6.3974    2.2313  -24.5387 H   0  0  0  0  0  0
    6.1576    3.7603  -23.6331 H   0  0  0  0  0  0
   -5.5176    3.8958  -26.1783 H   0  0  0  0  0  0
    2.2912    1.3880  -24.7180 H   0  0  0  0  0  0
    3.0884    0.9217  -22.8042 H   0  0  0  0  0  0
    4.3136    0.2644  -23.9540 H   0  0  0  0  0  0
    4.7665   -0.4515  -21.5977 H   0  0  0  0  0  0
    7.7548    2.2931  -22.4161 H   0  0  0  0  0  0
    4.0289    2.0613  -20.7448 H   0  0  0  0  0  0
    5.2564    1.0109  -19.8372 H   0  0  0  0  0  0
   -1.3637    3.3049  -26.9661 H   0  0  0  0  0  0
    0.3120    1.7800  -20.8410 H   0  0  0  0  0  0
    7.0629    0.0708  -21.6600 H   0  0  0  0  0  0
   -2.7647    3.4911  -28.4279 H   0  0  0  0  0  0
    4.3790   10.7910  -23.7370 N   0  3  0  0  0  0
    3.2190    8.0070  -22.9790 N   0  0  1  0  0  0
    3.0280   10.4660  -23.1860 C   0  0  0  0  0  0
    5.1130    9.6610  -23.0890 C   0  0  0  0  0  0
    3.7390    9.2870  -22.4830 C   0  0  0  0  0  0
    3.8030    6.9050  -22.2050 C   0  0  0  0  0  0
    4.6952   11.6576  -23.3307 H   0  0  0  0  0  0
    4.3660   10.6391  -24.7334 H   0  0  0  0  0  0
    2.1444    7.9890  -22.8730 H   0  0  0  0  0  0
    2.4417   10.0378  -24.0124 H   0  0  0  0  0  0
    2.8129   11.2152  -22.4098 H   0  0  0  0  0  0
    5.7111   10.0961  -22.2748 H   0  0  0  0  0  0
    5.3231    8.9245  -23.8785 H   0  0  0  0  0  0
    3.7170    9.3640  -21.3859 H   0  0  0  0  0  0
    3.5530    7.0310  -21.1412 H   0  0  0  0  0  0
    4.8948    6.9010  -22.3390 H   0  0  0  0  0  0
  1  2  2  0  0  0
  1  3  1  0  0  0
  1 34  1  0  0  0
  2  6  1  0  0  0
  2 35  1  0  0  0
  3  5  2  0  0  0
  3 27  1  0  0  0
  4  5  1  0  0  0
  4  6  2  0  0  0
  4 18  1  0  0  0
  5 24  1  0  0  0
  6 10  1  0  0  0
  7 10  2  0  0  0
  7 23  1  0  0  0
  7 33  1  0  0  0
  8 21  1  0  0  0
  8 22  1  0  0  0
  8 36  1  0  0  0
  8 37  1  0  0  0
  9 21  1  0  0  0
  9 31  1  0  0  0
  9 38  1  0  0  0
  9 39  1  0  0  0
 10 40  1  0  0  0
 11 12  1  0  0  0
 11 14  2  0  0  0
 11 15  1  0  0  0
 12 17  1  0  0  0
 12 28  2  0  0  0
 13 28  1  0  0  0
 13 29  2  0  0  0
 13 57  1  0  0  0
 14 29  1  0  0  0
 14 31  1  0  0  0
 15 30  2  0  0  0
 15 41  1  0  0  0
 16 17  2  0  0  0
 16 18  1  0  0  0
 16 30  1  0  0  0
 17 26  1  0  0  0
 18 23  2  0  0  0
 19 20  1  0  0  0
 19 31  1  0  0  0
 19 42  1  0  0  0
 19 43  1  0  0  0
 20 22  1  0  0  0
 20 32  1  0  0  0
 20 44  1  0  0  0
 21 32  1  0  0  0
 21 45  1  0  0  0
 22 46  1  0  0  0
 22 47  1  0  0  0
 23 48  1  0  0  0
 24 25  3  0  0  0
 25 49  1  0  0  0
 32 50  1  0  0  0
 33 51  1  0  0  0
 52 54  1  0  0  0
 52 55  1  0  0  0
 52 58  1  0  0  0
 52 59  1  0  0  0
 53 56  1  0  0  0
 53 57  1  0  0  0
 53 60  1  0  0  0
 54 56  1  0  0  0
 54 61  1  0  0  0
 54 62  1  0  0  0
 55 56  1  0  0  0
 55 63  1  0  0  0
 55 64  1  0  0  0
 56 65  1  0  0  0
 57 66  1  0  0  0
 57 67  1  0  0  0
M  CHG  1  52   1
M  END
> <s_m_entry_id>
861

> <s_m_entry_name>
000000703.1

> <s_m_Source_Path>
/Users/zaksoul/Documents/3r_UNI/2nd_SEMESTER/BSC/FRAG_RECON/RESULTS/2

> <s_m_Source_File>
000000703.mol2

> <i_m_Source_File_Index>
1

$$$$
No_0_725
                    3D
 Schrodinger Suite 2022-4.
 64 69  0  0  1  0            999 V2000
   -5.0390    3.7580  -22.0100 C   0  0  0  0  0  0
   -5.3010    3.9620  -23.3440 C   0  0  0  0  0  0
   -3.8100    3.4600  -21.6720 C   0  0  0  0  0  0
   -2.9180    3.5660  -23.8390 C   0  0  0  0  0  0
   -2.7640    3.3100  -22.4200 C   0  0  0  0  0  0
   -4.2570    3.8780  -24.3560 C   0  0  0  0  0  0
   -3.5050    3.8840  -26.5560 C   0  0  0  0  0  0
    6.2010    2.7900  -21.3100 C   0  0  0  0  0  0
    6.0640    2.9490  -23.8590 C   0  0  0  0  0  0
   -4.5060    4.0200  -25.6910 C   0  0  0  0  0  0
    2.3000    3.6270  -23.8670 C   0  0  0  0  0  0
    1.5180    4.7620  -23.5610 C   0  0  0  0  0  0
    3.3580    5.8920  -22.8790 C   0  0  0  0  0  0
    3.7070    3.7680  -23.5560 C   0  0  0  0  0  0
    1.7150    2.5330  -24.5330 C   0  0  0  0  0  0
   -0.3830    3.4180  -24.4150 C   0  0  0  0  0  0
    0.1860    4.6170  -23.8110 C   0  0  0  0  0  0
   -1.8360    3.4760  -24.7670 C   0  0  0  0  0  0
    4.2260    1.2500  -23.2770 C   0  0  0  0  0  0
    5.1490    0.8560  -22.1330 C   0  0  2  0  0  0
    6.7930    2.3440  -22.6650 C   0  0  2  0  0  0
    5.1670    1.8520  -20.9610 C   0  0  0  0  0  0
   -2.1580    3.6540  -26.1930 C   0  0  0  0  0  0
   -1.4340    2.8480  -21.8260 C   0  0  0  0  0  0
   -0.4150    2.4620  -21.3230 C   0  0  0  0  0  0
   -0.6190    5.6890  -23.4600 F   0  0  0  0  0  0
   -3.6060    3.2040  -20.2920 F   0  0  0  0  0  0
    2.0360    5.9010  -23.0250 N   0  0  0  0  0  0
    4.2200    4.9000  -23.1050 N   0  0  0  0  0  0
    0.4060    2.4900  -24.8360 N   0  0  0  0  0  0
    4.5880    2.6900  -23.7390 N   0  0  0  0  0  0
    6.5570    0.8770  -22.6180 N   0  0  1  0  0  0
   -3.6790    3.9110  -27.9450 O   0  0  0  0  0  0
   -5.8373    3.8453  -21.2819 H   0  0  0  0  0  0
   -6.3089    4.1929  -23.6693 H   0  0  0  0  0  0
    5.7649    3.7944  -21.4150 H   0  0  0  0  0  0
    6.9887    2.7698  -20.5425 H   0  0  0  0  0  0
    6.4415    2.4958  -24.7875 H   0  0  0  0  0  0
    6.2436    4.0339  -23.8873 H   0  0  0  0  0  0
   -5.5100    4.2419  -26.0344 H   0  0  0  0  0  0
    2.3244    1.6837  -24.8201 H   0  0  0  0  0  0
    3.1825    1.2278  -22.9298 H   0  0  0  0  0  0
    4.3633    0.5505  -24.1148 H   0  0  0  0  0  0
    4.8905   -0.1495  -21.7696 H   0  0  0  0  0  0
    7.8697    2.5640  -22.7124 H   0  0  0  0  0  0
    4.2009    2.3759  -20.9136 H   0  0  0  0  0  0
    5.4518    1.3239  -20.0391 H   0  0  0  0  0  0
   -1.3906    3.6109  -26.9574 H   0  0  0  0  0  0
    0.4821    2.1230  -20.8810 H   0  0  0  0  0  0
    7.1879    0.3541  -21.9144 H   0  0  0  0  0  0
   -2.8385    3.7962  -28.3727 H   0  0  0  0  0  0
    3.9760    8.9850  -20.5940 N   0  3  0  0  0  0
    3.3700    7.6970  -21.0690 C   0  0  0  0  0  0
    3.4380    9.4360  -19.2670 C   0  0  0  0  0  0
    3.9640    7.2090  -22.4050 C   0  0  0  0  0  0
    3.8160    9.7041  -21.2821 H   0  0  0  0  0  0
    4.9767    8.8810  -20.5320 H   0  0  0  0  0  0
    2.2825    7.8231  -21.1761 H   0  0  0  0  0  0
    3.5110    6.9221  -20.3011 H   0  0  0  0  0  0
    3.9209   10.3808  -18.9770 H   0  0  0  0  0  0
    2.3513    9.5880  -19.3440 H   0  0  0  0  0  0
    3.6479    8.6695  -18.5065 H   0  0  0  0  0  0
    5.0529    7.0930  -22.3010 H   0  0  0  0  0  0
    3.8120    7.9789  -23.1759 H   0  0  0  0  0  0
  1  2  2  0  0  0
  1  3  1  0  0  0
  1 34  1  0  0  0
  2  6  1  0  0  0
  2 35  1  0  0  0
  3  5  2  0  0  0
  3 27  1  0  0  0
  4  5  1  0  0  0
  4  6  2  0  0  0
  4 18  1  0  0  0
  5 24  1  0  0  0
  6 10  1  0  0  0
  7 10  2  0  0  0
  7 23  1  0  0  0
  7 33  1  0  0  0
  8 21  1  0  0  0
  8 22  1  0  0  0
  8 36  1  0  0  0
  8 37  1  0  0  0
  9 21  1  0  0  0
  9 31  1  0  0  0
  9 38  1  0  0  0
  9 39  1  0  0  0
 10 40  1  0  0  0
 11 12  1  0  0  0
 11 14  2  0  0  0
 11 15  1  0  0  0
 12 17  1  0  0  0
 12 28  2  0  0  0
 13 28  1  0  0  0
 13 29  2  0  0  0
 13 55  1  0  0  0
 14 29  1  0  0  0
 14 31  1  0  0  0
 15 30  2  0  0  0
 15 41  1  0  0  0
 16 17  2  0  0  0
 16 18  1  0  0  0
 16 30  1  0  0  0
 17 26  1  0  0  0
 18 23  2  0  0  0
 19 20  1  0  0  0
 19 31  1  0  0  0
 19 42  1  0  0  0
 19 43  1  0  0  0
 20 22  1  0  0  0
 20 32  1  0  0  0
 20 44  1  0  0  0
 21 32  1  0  0  0
 21 45  1  0  0  0
 22 46  1  0  0  0
 22 47  1  0  0  0
 23 48  1  0  0  0
 24 25  3  0  0  0
 25 49  1  0  0  0
 32 50  1  0  0  0
 33 51  1  0  0  0
 52 53  1  0  0  0
 52 54  1  0  0  0
 52 56  1  0  0  0
 52 57  1  0  0  0
 53 55  1  0  0  0
 53 58  1  0  0  0
 53 59  1  0  0  0
 54 60  1  0  0  0
 54 61  1  0  0  0
 54 62  1  0  0  0
 55 63  1  0  0  0
 55 64  1  0  0  0
M  CHG  1  52   1
M  END
> <s_m_entry_id>
862

> <s_m_entry_name>
000000704.1

> <s_m_Source_Path>
/Users/zaksoul/Documents/3r_UNI/2nd_SEMESTER/BSC/FRAG_RECON/RESULTS/2

> <s_m_Source_File>
000000704.mol2

> <i_m_Source_File_Index>
1

$$$$
No_0_726
                    3D
 Schrodinger Suite 2022-4.
 64 69  0  0  1  0            999 V2000
   -5.1750    3.5350  -21.9410 C   0  0  0  0  0  0
   -5.4790    3.6990  -23.2720 C   0  0  0  0  0  0
   -3.9260    3.2980  -21.6300 C   0  0  0  0  0  0
   -3.0950    3.3950  -23.8210 C   0  0  0  0  0  0
   -2.8940    3.1760  -22.4020 C   0  0  0  0  0  0
   -4.4580    3.6370  -24.3100 C   0  0  0  0  0  0
   -3.7630    3.6270  -26.5280 C   0  0  0  0  0  0
    6.1110    3.0650  -21.5170 C   0  0  0  0  0  0
    5.9020    3.1620  -24.0640 C   0  0  0  0  0  0
   -4.7470    3.7390  -25.6400 C   0  0  0  0  0  0
    2.1140    3.6780  -23.9880 C   0  0  0  0  0  0
    1.2910    4.7850  -23.6850 C   0  0  0  0  0  0
    3.0970    6.0070  -23.0750 C   0  0  0  0  0  0
    3.5200    3.8860  -23.7160 C   0  0  0  0  0  0
    1.5600    2.5450  -24.6150 C   0  0  0  0  0  0
   -0.5710    3.3420  -24.4600 C   0  0  0  0  0  0
   -0.0390    4.5770  -23.8970 C   0  0  0  0  0  0
   -2.0330    3.3300  -24.7750 C   0  0  0  0  0  0
    4.1560    1.3980  -23.3980 C   0  0  0  0  0  0
    5.1230    1.0700  -22.2720 C   0  0  2  0  0  0
    6.6870    2.6150  -22.8780 C   0  0  2  0  0  0
    5.1280    2.0910  -21.1220 C   0  0  0  0  0  0
   -2.3980    3.4620  -26.1960 C   0  0  0  0  0  0
   -1.5300    2.7840  -21.8330 C   0  0  0  0  0  0
   -0.4830    2.4540  -21.3500 C   0  0  0  0  0  0
   -0.8800    5.6210  -23.5470 F   0  0  0  0  0  0
   -3.6760    3.0820  -20.2500 F   0  0  0  0  0  0
    1.7730    5.9570  -23.1870 N   0  0  0  0  0  0
    3.9950    5.0480  -23.3030 N   0  0  0  0  0  0
    0.2460    2.4390  -24.8830 N   0  0  0  0  0  0
    4.4430    2.8430  -23.9000 N   0  0  0  0  0  0
    6.5160    1.1410  -22.7930 N   0  0  1  0  0  0
   -3.9740    3.6160  -27.9120 O   0  0  0  0  0  0
   -5.9578    3.6042  -21.1943 H   0  0  0  0  0  0
   -6.5037    3.8796  -23.5761 H   0  0  0  0  0  0
    5.6286    4.0470  -21.6310 H   0  0  0  0  0  0
    6.9177    3.0953  -20.7698 H   0  0  0  0  0  0
    6.2753    2.7049  -24.9923 H   0  0  0  0  0  0
    6.0342    4.2526  -24.1195 H   0  0  0  0  0  0
   -5.7681    3.9097  -25.9613 H   0  0  0  0  0  0
    2.1985    1.7167  -24.9001 H   0  0  0  0  0  0
    3.1232    1.3395  -23.0238 H   0  0  0  0  0  0
    4.3014    0.6872  -24.2249 H   0  0  0  0  0  0
    4.9181    0.0627  -21.8804 H   0  0  0  0  0  0
    7.7515    2.8804  -22.9577 H   0  0  0  0  0  0
    4.1419    2.5745  -21.0594 H   0  0  0  0  0  0
    5.4580    1.5965  -20.1965 H   0  0  0  0  0  0
   -1.6490    3.4359  -26.9792 H   0  0  0  0  0  0
    0.4385    2.1631  -20.9242 H   0  0  0  0  0  0
    7.1870    0.6605  -22.0963 H   0  0  0  0  0  0
   -3.1404    3.5280  -28.3590 H   0  0  0  0  0  0
    5.3010    8.5690  -21.1390 N   0  3  0  0  0  0
    4.7380    7.2410  -21.5530 C   0  0  0  0  0  0
    6.3920    8.4540  -20.1140 C   0  0  0  0  0  0
    3.6570    7.3590  -22.6450 C   0  0  0  0  0  0
    4.5597    9.1482  -20.7769 H   0  0  0  0  0  0
    5.6547    9.0496  -21.9514 H   0  0  0  0  0  0
    4.3151    6.7341  -20.6731 H   0  0  0  0  0  0
    5.5529    6.5951  -21.9119 H   0  0  0  0  0  0
    6.7599    9.4578  -19.8551 H   0  0  0  0  0  0
    5.9971    7.9651  -19.2112 H   0  0  0  0  0  0
    7.2190    7.8550  -20.5230 H   0  0  0  0  0  0
    4.0770    7.8750  -23.5210 H   0  0  0  0  0  0
    2.8368    7.9952  -22.2809 H   0  0  0  0  0  0
  1  2  2  0  0  0
  1  3  1  0  0  0
  1 34  1  0  0  0
  2  6  1  0  0  0
  2 35  1  0  0  0
  3  5  2  0  0  0
  3 27  1  0  0  0
  4  5  1  0  0  0
  4  6  2  0  0  0
  4 18  1  0  0  0
  5 24  1  0  0  0
  6 10  1  0  0  0
  7 10  2  0  0  0
  7 23  1  0  0  0
  7 33  1  0  0  0
  8 21  1  0  0  0
  8 22  1  0  0  0
  8 36  1  0  0  0
  8 37  1  0  0  0
  9 21  1  0  0  0
  9 31  1  0  0  0
  9 38  1  0  0  0
  9 39  1  0  0  0
 10 40  1  0  0  0
 11 12  1  0  0  0
 11 14  2  0  0  0
 11 15  1  0  0  0
 12 17  1  0  0  0
 12 28  2  0  0  0
 13 28  1  0  0  0
 13 29  2  0  0  0
 13 55  1  0  0  0
 14 29  1  0  0  0
 14 31  1  0  0  0
 15 30  2  0  0  0
 15 41  1  0  0  0
 16 17  2  0  0  0
 16 18  1  0  0  0
 16 30  1  0  0  0
 17 26  1  0  0  0
 18 23  2  0  0  0
 19 20  1  0  0  0
 19 31  1  0  0  0
 19 42  1  0  0  0
 19 43  1  0  0  0
 20 22  1  0  0  0
 20 32  1  0  0  0
 20 44  1  0  0  0
 21 32  1  0  0  0
 21 45  1  0  0  0
 22 46  1  0  0  0
 22 47  1  0  0  0
 23 48  1  0  0  0
 24 25  3  0  0  0
 25 49  1  0  0  0
 32 50  1  0  0  0
 33 51  1  0  0  0
 52 53  1  0  0  0
 52 54  1  0  0  0
 52 56  1  0  0  0
 52 57  1  0  0  0
 53 55  1  0  0  0
 53 58  1  0  0  0
 53 59  1  0  0  0
 54 60  1  0  0  0
 54 61  1  0  0  0
 54 62  1  0  0  0
 55 63  1  0  0  0
 55 64  1  0  0  0
M  CHG  1  52   1
M  END
> <s_m_entry_id>
863

> <s_m_entry_name>
000000705.1

> <s_m_Source_Path>
/Users/zaksoul/Documents/3r_UNI/2nd_SEMESTER/BSC/FRAG_RECON/RESULTS/2

> <s_m_Source_File>
000000705.mol2

> <i_m_Source_File_Index>
1

$$$$
No_0_727
                    3D
 Schrodinger Suite 2022-4.
 64 69  0  0  1  0            999 V2000
   -5.2590    3.6090  -21.8620 C   0  0  0  0  0  0
   -5.5380    3.8020  -23.1940 C   0  0  0  0  0  0
   -4.0190    3.3430  -21.5350 C   0  0  0  0  0  0
   -3.1510    3.4640  -23.7110 C   0  0  0  0  0  0
   -2.9770    3.2160  -22.2920 C   0  0  0  0  0  0
   -4.5020    3.7400  -24.2160 C   0  0  0  0  0  0
   -3.7720    3.7580  -26.4230 C   0  0  0  0  0  0
    6.0090    2.9210  -21.2690 C   0  0  0  0  0  0
    5.8430    3.0690  -23.8170 C   0  0  0  0  0  0
   -4.7670    3.8720  -25.5480 C   0  0  0  0  0  0
    2.0640    3.6530  -23.7900 C   0  0  0  0  0  0
    1.2570    4.7690  -23.4800 C   0  0  0  0  0  0
    3.0740    5.9470  -22.8190 C   0  0  0  0  0  0
    3.4690    3.8300  -23.4930 C   0  0  0  0  0  0
    1.4990    2.5430  -24.4470 C   0  0  0  0  0  0
   -0.6190    3.3770  -24.3110 C   0  0  0  0  0  0
   -0.0740    4.5910  -23.7160 C   0  0  0  0  0  0
   -2.0760    3.3970  -24.6490 C   0  0  0  0  0  0
    4.0540    1.3260  -23.2110 C   0  0  0  0  0  0
    4.9970    0.9590  -22.0760 C   0  0  2  0  0  0
    6.5990    2.4850  -22.6280 C   0  0  2  0  0  0
    5.0020    1.9590  -20.9070 C   0  0  0  0  0  0
   -2.4160    3.5620  -26.0730 C   0  0  0  0  0  0
   -1.6300    2.7880  -21.7100 C   0  0  0  0  0  0
   -0.5970    2.4300  -21.2160 C   0  0  0  0  0  0
   -0.9010    5.6430  -23.3610 F   0  0  0  0  0  0
   -3.7950    3.0960  -20.1560 F   0  0  0  0  0  0
    1.7510    5.9230  -22.9530 N   0  0  0  0  0  0
    3.9590    4.9760  -23.0510 N   0  0  0  0  0  0
    0.1880    2.4660  -24.7370 N   0  0  0  0  0  0
    4.3750    2.7730  -23.6820 N   0  0  0  0  0  0
    6.3990    1.0140  -22.5740 N   0  0  1  0  0  0
   -3.9600    3.7760  -27.8100 O   0  0  0  0  0  0
   -6.0515    3.6782  -21.1257 H   0  0  0  0  0  0
   -6.5543    4.0077  -23.5100 H   0  0  0  0  0  0
    5.5469    3.9139  -21.3719 H   0  0  0  0  0  0
    6.8043    2.9230  -20.5090 H   0  0  0  0  0  0
    6.2225    2.6219  -24.7476 H   0  0  0  0  0  0
    5.9965    4.1577  -23.8503 H   0  0  0  0  0  0
   -5.7795    4.0677  -25.8821 H   0  0  0  0  0  0
    2.1263    1.7079  -24.7371 H   0  0  0  0  0  0
    3.0147    1.2796  -22.8538 H   0  0  0  0  0  0
    4.1993    0.6278  -24.0485 H   0  0  0  0  0  0
    4.7669   -0.0513  -21.7066 H   0  0  0  0  0  0
    7.6692    2.7324  -22.6876 H   0  0  0  0  0  0
    4.0241    2.4596  -20.8515 H   0  0  0  0  0  0
    5.3080    1.4410  -19.9861 H   0  0  0  0  0  0
   -1.6553    3.5359  -26.8448 H   0  0  0  0  0  0
    0.3123    2.1139  -20.7819 H   0  0  0  0  0  0
    7.0492    0.5081  -21.8756 H   0  0  0  0  0  0
   -3.1212    3.6809  -28.2457 H   0  0  0  0  0  0
    5.5260    8.4320  -21.0920 N   0  3  0  0  0  0
    4.9480    7.1200  -21.5360 C   0  0  0  0  0  0
    6.8160    8.2830  -20.3380 C   0  0  0  0  0  0
    3.6520    7.2800  -22.3560 C   0  0  0  0  0  0
    4.8555    8.9146  -20.5144 H   0  0  0  0  0  0
    5.6741    9.0224  -21.8955 H   0  0  0  0  0  0
    4.7480    6.4921  -20.6552 H   0  0  0  0  0  0
    5.6944    6.5757  -22.1333 H   0  0  0  0  0  0
    7.1851    9.2763  -20.0429 H   0  0  0  0  0  0
    6.6480    7.6719  -19.4389 H   0  0  0  0  0  0
    7.5608    7.7911  -20.9809 H   0  0  0  0  0  0
    3.8491    7.9163  -23.2314 H   0  0  0  0  0  0
    2.9017    7.8132  -21.7537 H   0  0  0  0  0  0
  1  2  2  0  0  0
  1  3  1  0  0  0
  1 34  1  0  0  0
  2  6  1  0  0  0
  2 35  1  0  0  0
  3  5  2  0  0  0
  3 27  1  0  0  0
  4  5  1  0  0  0
  4  6  2  0  0  0
  4 18  1  0  0  0
  5 24  1  0  0  0
  6 10  1  0  0  0
  7 10  2  0  0  0
  7 23  1  0  0  0
  7 33  1  0  0  0
  8 21  1  0  0  0
  8 22  1  0  0  0
  8 36  1  0  0  0
  8 37  1  0  0  0
  9 21  1  0  0  0
  9 31  1  0  0  0
  9 38  1  0  0  0
  9 39  1  0  0  0
 10 40  1  0  0  0
 11 12  1  0  0  0
 11 14  2  0  0  0
 11 15  1  0  0  0
 12 17  1  0  0  0
 12 28  2  0  0  0
 13 28  1  0  0  0
 13 29  2  0  0  0
 13 55  1  0  0  0
 14 29  1  0  0  0
 14 31  1  0  0  0
 15 30  2  0  0  0
 15 41  1  0  0  0
 16 17  2  0  0  0
 16 18  1  0  0  0
 16 30  1  0  0  0
 17 26  1  0  0  0
 18 23  2  0  0  0
 19 20  1  0  0  0
 19 31  1  0  0  0
 19 42  1  0  0  0
 19 43  1  0  0  0
 20 22  1  0  0  0
 20 32  1  0  0  0
 20 44  1  0  0  0
 21 32  1  0  0  0
 21 45  1  0  0  0
 22 46  1  0  0  0
 22 47  1  0  0  0
 23 48  1  0  0  0
 24 25  3  0  0  0
 25 49  1  0  0  0
 32 50  1  0  0  0
 33 51  1  0  0  0
 52 53  1  0  0  0
 52 54  1  0  0  0
 52 56  1  0  0  0
 52 57  1  0  0  0
 53 55  1  0  0  0
 53 58  1  0  0  0
 53 59  1  0  0  0
 54 60  1  0  0  0
 54 61  1  0  0  0
 54 62  1  0  0  0
 55 63  1  0  0  0
 55 64  1  0  0  0
M  CHG  1  52   1
M  END
> <s_m_entry_id>
864

> <s_m_entry_name>
000000706.1

> <s_m_Source_Path>
/Users/zaksoul/Documents/3r_UNI/2nd_SEMESTER/BSC/FRAG_RECON/RESULTS/2

> <s_m_Source_File>
000000706.mol2

> <i_m_Source_File_Index>
1

$$$$
No_0_728
                    3D
 Schrodinger Suite 2022-4.
 64 69  0  0  1  0            999 V2000
   -5.1810    3.6090  -21.8530 C   0  0  0  0  0  0
   -5.4520    3.8050  -23.1860 C   0  0  0  0  0  0
   -3.9420    3.3510  -21.5190 C   0  0  0  0  0  0
   -3.0590    3.4860  -23.6870 C   0  0  0  0  0  0
   -2.8930    3.2340  -22.2690 C   0  0  0  0  0  0
   -4.4090    3.7540  -24.2010 C   0  0  0  0  0  0
   -3.6630    3.7850  -26.4030 C   0  0  0  0  0  0
    6.0870    3.0010  -21.1820 C   0  0  0  0  0  0
    5.9380    3.1560  -23.7310 C   0  0  0  0  0  0
   -4.6650    3.8890  -25.5350 C   0  0  0  0  0  0
    2.1540    3.7130  -23.7290 C   0  0  0  0  0  0
    1.3370    4.8230  -23.4210 C   0  0  0  0  0  0
    3.1410    6.0110  -22.7430 C   0  0  0  0  0  0
    3.5570    3.8990  -23.4210 C   0  0  0  0  0  0
    1.6030    2.6010  -24.3930 C   0  0  0  0  0  0
   -0.5220    3.4190  -24.2700 C   0  0  0  0  0  0
    0.0100    4.6350  -23.6670 C   0  0  0  0  0  0
   -1.9770    3.4300  -24.6180 C   0  0  0  0  0  0
    4.1570    1.3990  -23.1440 C   0  0  0  0  0  0
    5.0950    1.0350  -22.0030 C   0  0  2  0  0  0
    6.6890    2.5740  -22.5390 C   0  0  2  0  0  0
    5.0840    2.0310  -20.8310 C   0  0  0  0  0  0
   -2.3080    3.5970  -26.0440 C   0  0  0  0  0  0
   -1.5470    2.8150  -21.6780 C   0  0  0  0  0  0
   -0.5150    2.4620  -21.1780 C   0  0  0  0  0  0
   -0.8280    5.6800  -23.3140 F   0  0  0  0  0  0
   -3.7260    3.1020  -20.1390 F   0  0  0  0  0  0
    1.8200    5.9780  -22.8860 N   0  0  0  0  0  0
    4.0350    5.0470  -22.9720 N   0  0  0  0  0  0
    0.2950    2.5160  -24.6930 N   0  0  0  0  0  0
    4.4710    2.8500  -23.6070 N   0  0  0  0  0  0
    6.5000    1.1010  -22.4910 N   0  0  1  0  0  0
   -3.8410    3.8060  -27.7920 O   0  0  0  0  0  0
   -5.9796    3.6712  -21.1226 H   0  0  0  0  0  0
   -6.4675    4.0037  -23.5091 H   0  0  0  0  0  0
    5.6179    3.9906  -21.2849 H   0  0  0  0  0  0
    6.8763    3.0060  -20.4159 H   0  0  0  0  0  0
    6.3275    2.7150  -24.6604 H   0  0  0  0  0  0
    6.0833    4.2460  -23.7593 H   0  0  0  0  0  0
   -5.6765    4.0776  -25.8762 H   0  0  0  0  0  0
    2.2385    1.7718  -24.6821 H   0  0  0  0  0  0
    3.1157    1.3435  -22.7939 H   0  0  0  0  0  0
    4.3144    0.7047  -23.9826 H   0  0  0  0  0  0
    4.8700    0.0218  -21.6387 H   0  0  0  0  0  0
    7.7578    2.8293  -22.5885 H   0  0  0  0  0  0
    4.1018    2.5236  -20.7805 H   0  0  0  0  0  0
    5.3877    1.5123  -19.9097 H   0  0  0  0  0  0
   -1.5411    3.5789  -26.8099 H   0  0  0  0  0  0
    0.3934    2.1519  -20.7378 H   0  0  0  0  0  0
    7.1492    0.5983  -21.7894 H   0  0  0  0  0  0
   -2.9984    3.7179  -28.2217 H   0  0  0  0  0  0
    5.7230    8.5570  -21.3210 N   0  3  0  0  0  0
    5.1610    7.2410  -21.7710 C   0  0  0  0  0  0
    7.1560    8.4670  -20.8840 C   0  0  0  0  0  0
    3.7060    7.3460  -22.2710 C   0  0  0  0  0  0
    5.1644    8.9178  -20.5635 H   0  0  0  0  0  0
    5.6420    9.2290  -22.0680 H   0  0  0  0  0  0
    5.2110    6.5188  -20.9428 H   0  0  0  0  0  0
    5.7930    6.8280  -22.5710 H   0  0  0  0  0  0
    7.5067    9.4603  -20.5672 H   0  0  0  0  0  0
    7.2400    7.7641  -20.0421 H   0  0  0  0  0  0
    7.7742    8.1109  -21.7213 H   0  0  0  0  0  0
    3.6540    8.0756  -23.0926 H   0  0  0  0  0  0
    3.0718    7.7471  -21.4667 H   0  0  0  0  0  0
  1  2  2  0  0  0
  1  3  1  0  0  0
  1 34  1  0  0  0
  2  6  1  0  0  0
  2 35  1  0  0  0
  3  5  2  0  0  0
  3 27  1  0  0  0
  4  5  1  0  0  0
  4  6  2  0  0  0
  4 18  1  0  0  0
  5 24  1  0  0  0
  6 10  1  0  0  0
  7 10  2  0  0  0
  7 23  1  0  0  0
  7 33  1  0  0  0
  8 21  1  0  0  0
  8 22  1  0  0  0
  8 36  1  0  0  0
  8 37  1  0  0  0
  9 21  1  0  0  0
  9 31  1  0  0  0
  9 38  1  0  0  0
  9 39  1  0  0  0
 10 40  1  0  0  0
 11 12  1  0  0  0
 11 14  2  0  0  0
 11 15  1  0  0  0
 12 17  1  0  0  0
 12 28  2  0  0  0
 13 28  1  0  0  0
 13 29  2  0  0  0
 13 55  1  0  0  0
 14 29  1  0  0  0
 14 31  1  0  0  0
 15 30  2  0  0  0
 15 41  1  0  0  0
 16 17  2  0  0  0
 16 18  1  0  0  0
 16 30  1  0  0  0
 17 26  1  0  0  0
 18 23  2  0  0  0
 19 20  1  0  0  0
 19 31  1  0  0  0
 19 42  1  0  0  0
 19 43  1  0  0  0
 20 22  1  0  0  0
 20 32  1  0  0  0
 20 44  1  0  0  0
 21 32  1  0  0  0
 21 45  1  0  0  0
 22 46  1  0  0  0
 22 47  1  0  0  0
 23 48  1  0  0  0
 24 25  3  0  0  0
 25 49  1  0  0  0
 32 50  1  0  0  0
 33 51  1  0  0  0
 52 53  1  0  0  0
 52 54  1  0  0  0
 52 56  1  0  0  0
 52 57  1  0  0  0
 53 55  1  0  0  0
 53 58  1  0  0  0
 53 59  1  0  0  0
 54 60  1  0  0  0
 54 61  1  0  0  0
 54 62  1  0  0  0
 55 63  1  0  0  0
 55 64  1  0  0  0
M  CHG  1  52   1
M  END
> <s_m_entry_id>
865

> <s_m_entry_name>
000000707.1

> <s_m_Source_Path>
/Users/zaksoul/Documents/3r_UNI/2nd_SEMESTER/BSC/FRAG_RECON/RESULTS/2

> <s_m_Source_File>
000000707.mol2

> <i_m_Source_File_Index>
1

$$$$
No_0_729
                    3D
 Schrodinger Suite 2022-4.
 64 69  0  0  1  0            999 V2000
   -5.4420    3.3460  -22.0030 C   0  0  0  0  0  0
   -5.7020    3.5290  -23.3410 C   0  0  0  0  0  0
   -4.2040    3.0990  -21.6550 C   0  0  0  0  0  0
   -3.3020    3.2230  -23.8160 C   0  0  0  0  0  0
   -3.1480    2.9840  -22.3940 C   0  0  0  0  0  0
   -4.6480    3.4780  -24.3450 C   0  0  0  0  0  0
   -3.8810    3.4960  -26.5400 C   0  0  0  0  0  0
    5.8230    2.8240  -21.2210 C   0  0  0  0  0  0
    5.6970    2.9580  -23.7710 C   0  0  0  0  0  0
   -4.8930    3.6000  -25.6830 C   0  0  0  0  0  0
    1.9100    3.4880  -23.8100 C   0  0  0  0  0  0
    1.0830    4.5930  -23.5190 C   0  0  0  0  0  0
    2.8720    5.8000  -22.8330 C   0  0  0  0  0  0
    3.3080    3.6860  -23.4900 C   0  0  0  0  0  0
    1.3730    2.3660  -24.4710 C   0  0  0  0  0  0
   -0.7590    3.1700  -24.3740 C   0  0  0  0  0  0
   -0.2410    4.3940  -23.7760 C   0  0  0  0  0  0
   -2.2100    3.1680  -24.7360 C   0  0  0  0  0  0
    3.9240    1.1920  -23.1880 C   0  0  0  0  0  0
    4.8530    0.8440  -22.0350 C   0  0  2  0  0  0
    6.4420    2.3910  -22.5680 C   0  0  2  0  0  0
    4.8240    1.8490  -20.8710 C   0  0  0  0  0  0
   -2.5290    3.3220  -26.1660 C   0  0  0  0  0  0
   -1.8050    2.5790  -21.7880 C   0  0  0  0  0  0
   -0.7750    2.2370  -21.2750 C   0  0  0  0  0  0
   -1.0900    5.4370  -23.4390 F   0  0  0  0  0  0
   -4.0000    2.8620  -20.2710 F   0  0  0  0  0  0
    1.5510    5.7560  -22.9880 N   0  0  0  0  0  0
    3.7740    4.8410  -23.0460 N   0  0  0  0  0  0
    0.0680    2.2700  -24.7830 N   0  0  0  0  0  0
    4.2320    2.6420  -23.6600 N   0  0  0  0  0  0
    6.2620    0.9160  -22.5100 N   0  0  1  0  0  0
   -4.0470    3.5060  -27.9300 O   0  0  0  0  0  0
   -6.2483    3.4072  -21.2811 H   0  0  0  0  0  0
   -6.7158    3.7177  -23.6752 H   0  0  0  0  0  0
    5.3484    3.8096  -21.3361 H   0  0  0  0  0  0
    6.6053    2.8401  -20.4478 H   0  0  0  0  0  0
    6.0985    2.5121  -24.6930 H   0  0  0  0  0  0
    5.8354    4.0487  -23.8074 H   0  0  0  0  0  0
   -5.9025    3.7798  -26.0346 H   0  0  0  0  0  0
    2.0173    1.5391  -24.7470 H   0  0  0  0  0  0
    2.8799    1.1315  -22.8470 H   0  0  0  0  0  0
    4.0936    0.4925  -24.0198 H   0  0  0  0  0  0
    4.6320   -0.1680  -21.6647 H   0  0  0  0  0  0
    7.5096    2.6526  -22.6104 H   0  0  0  0  0  0
    3.8381    2.3354  -20.8347 H   0  0  0  0  0  0
    5.1217    1.3394  -19.9427 H   0  0  0  0  0  0
   -1.7551    3.3029  -26.9248 H   0  0  0  0  0  0
    0.1314    1.9369  -20.8238 H   0  0  0  0  0  0
    6.9083    0.4238  -21.7984 H   0  0  0  0  0  0
   -3.1999    3.4209  -28.3516 H   0  0  0  0  0  0
    5.5000    8.4650  -21.7580 N   0  3  0  0  0  0
    4.9550    7.1400  -22.2020 C   0  0  0  0  0  0
    6.9970    8.4800  -21.6480 C   0  0  0  0  0  0
    3.4220    7.1430  -22.3660 C   0  0  0  0  0  0
    5.0971    8.7109  -20.8673 H   0  0  0  0  0  0
    5.2039    9.1823  -22.4013 H   0  0  0  0  0  0
    5.2440    6.3640  -21.4780 H   0  0  0  0  0  0
    5.4239    6.8531  -23.1548 H   0  0  0  0  0  0
    7.3308    9.4755  -21.3202 H   0  0  0  0  0  0
    7.3200    7.7251  -20.9161 H   0  0  0  0  0  0
    7.4390    8.2510  -22.6289 H   0  0  0  0  0  0
    3.1331    7.9258  -23.0828 H   0  0  0  0  0  0
    2.9529    7.4181  -21.4098 H   0  0  0  0  0  0
  1  2  2  0  0  0
  1  3  1  0  0  0
  1 34  1  0  0  0
  2  6  1  0  0  0
  2 35  1  0  0  0
  3  5  2  0  0  0
  3 27  1  0  0  0
  4  5  1  0  0  0
  4  6  2  0  0  0
  4 18  1  0  0  0
  5 24  1  0  0  0
  6 10  1  0  0  0
  7 10  2  0  0  0
  7 23  1  0  0  0
  7 33  1  0  0  0
  8 21  1  0  0  0
  8 22  1  0  0  0
  8 36  1  0  0  0
  8 37  1  0  0  0
  9 21  1  0  0  0
  9 31  1  0  0  0
  9 38  1  0  0  0
  9 39  1  0  0  0
 10 40  1  0  0  0
 11 12  1  0  0  0
 11 14  2  0  0  0
 11 15  1  0  0  0
 12 17  1  0  0  0
 12 28  2  0  0  0
 13 28  1  0  0  0
 13 29  2  0  0  0
 13 55  1  0  0  0
 14 29  1  0  0  0
 14 31  1  0  0  0
 15 30  2  0  0  0
 15 41  1  0  0  0
 16 17  2  0  0  0
 16 18  1  0  0  0
 16 30  1  0  0  0
 17 26  1  0  0  0
 18 23  2  0  0  0
 19 20  1  0  0  0
 19 31  1  0  0  0
 19 42  1  0  0  0
 19 43  1  0  0  0
 20 22  1  0  0  0
 20 32  1  0  0  0
 20 44  1  0  0  0
 21 32  1  0  0  0
 21 45  1  0  0  0
 22 46  1  0  0  0
 22 47  1  0  0  0
 23 48  1  0  0  0
 24 25  3  0  0  0
 25 49  1  0  0  0
 32 50  1  0  0  0
 33 51  1  0  0  0
 52 53  1  0  0  0
 52 54  1  0  0  0
 52 56  1  0  0  0
 52 57  1  0  0  0
 53 55  1  0  0  0
 53 58  1  0  0  0
 53 59  1  0  0  0
 54 60  1  0  0  0
 54 61  1  0  0  0
 54 62  1  0  0  0
 55 63  1  0  0  0
 55 64  1  0  0  0
M  CHG  1  52   1
M  END
> <s_m_entry_id>
866

> <s_m_entry_name>
000000708.1

> <s_m_Source_Path>
/Users/zaksoul/Documents/3r_UNI/2nd_SEMESTER/BSC/FRAG_RECON/RESULTS/2

> <s_m_Source_File>
000000708.mol2

> <i_m_Source_File_Index>
1

$$$$
No_0_730
                    3D
 Schrodinger Suite 2022-4.
 64 69  0  0  1  0            999 V2000
   -5.3540    3.5110  -21.7770 C   0  0  0  0  0  0
   -5.6110    3.6920  -23.1150 C   0  0  0  0  0  0
   -4.1170    3.2650  -21.4260 C   0  0  0  0  0  0
   -3.2110    3.3850  -23.5860 C   0  0  0  0  0  0
   -3.0590    3.1480  -22.1630 C   0  0  0  0  0  0
   -4.5560    3.6390  -24.1180 C   0  0  0  0  0  0
   -3.7860    3.6540  -26.3110 C   0  0  0  0  0  0
    5.9100    2.9900  -20.9740 C   0  0  0  0  0  0
    5.7880    3.1200  -23.5250 C   0  0  0  0  0  0
   -4.7980    3.7590  -25.4550 C   0  0  0  0  0  0
    2.0010    3.6500  -23.5710 C   0  0  0  0  0  0
    1.1730    4.7560  -23.2830 C   0  0  0  0  0  0
    2.9610    5.9630  -22.5960 C   0  0  0  0  0  0
    3.3990    3.8490  -23.2490 C   0  0  0  0  0  0
    1.4650    2.5270  -24.2310 C   0  0  0  0  0  0
   -0.6670    3.3310  -24.1390 C   0  0  0  0  0  0
   -0.1500    4.5570  -23.5420 C   0  0  0  0  0  0
   -2.1170    3.3290  -24.5040 C   0  0  0  0  0  0
    4.0140    1.3550  -22.9410 C   0  0  0  0  0  0
    4.9410    1.0090  -21.7860 C   0  0  2  0  0  0
    6.5310    2.5550  -22.3190 C   0  0  2  0  0  0
    4.9100    2.0160  -20.6240 C   0  0  0  0  0  0
   -2.4340    3.4800  -25.9350 C   0  0  0  0  0  0
   -1.7170    2.7440  -21.5530 C   0  0  0  0  0  0
   -0.6880    2.4040  -21.0390 C   0  0  0  0  0  0
   -0.9990    5.5990  -23.2090 F   0  0  0  0  0  0
   -3.9150    3.0300  -20.0410 F   0  0  0  0  0  0
    1.6410    5.9200  -22.7540 N   0  0  0  0  0  0
    3.8630    5.0040  -22.8060 N   0  0  0  0  0  0
    0.1610    2.4300  -24.5450 N   0  0  0  0  0  0
    4.3230    2.8040  -23.4150 N   0  0  0  0  0  0
    6.3510    1.0810  -22.2590 N   0  0  1  0  0  0
   -3.9490    3.6610  -27.7010 O   0  0  0  0  0  0
   -6.1612    3.5732  -21.0562 H   0  0  0  0  0  0
   -6.6242    3.8806  -23.4511 H   0  0  0  0  0  0
    5.4355    3.9753  -21.0921 H   0  0  0  0  0  0
    6.6902    3.0082  -20.1988 H   0  0  0  0  0  0
    6.1917    2.6729  -24.4454 H   0  0  0  0  0  0
    5.9262    4.2106  -23.5623 H   0  0  0  0  0  0
   -5.8068    3.9377  -25.8093 H   0  0  0  0  0  0
    2.1097    1.6995  -24.5042 H   0  0  0  0  0  0
    2.9689    1.2955  -22.6031 H   0  0  0  0  0  0
    4.1855    0.6540  -23.7711 H   0  0  0  0  0  0
    4.7190   -0.0023  -21.4146 H   0  0  0  0  0  0
    7.5987    2.8166  -22.3594 H   0  0  0  0  0  0
    3.9240    2.5024  -20.5897 H   0  0  0  0  0  0
    5.2067    1.5083  -19.6944 H   0  0  0  0  0  0
   -1.6582    3.4599  -26.6918 H   0  0  0  0  0  0
    0.2174    2.1039  -20.5858 H   0  0  0  0  0  0
    6.9958    0.5891  -21.5458 H   0  0  0  0  0  0
   -3.1010    3.5749  -28.1205 H   0  0  0  0  0  0
    5.5770    8.7560  -21.8700 N   0  3  0  0  0  0
    5.0370    7.4280  -22.3130 C   0  0  0  0  0  0
    7.0550    8.8960  -22.0960 C   0  0  0  0  0  0
    3.5110    7.3070  -22.1310 C   0  0  0  0  0  0
    5.3742    8.8899  -20.8917 H   0  0  0  0  0  0
    5.0928    9.4944  -22.3562 H   0  0  0  0  0  0
    5.5373    6.6245  -21.7526 H   0  0  0  0  0  0
    5.2919    7.2651  -23.3706 H   0  0  0  0  0  0
    7.3868    9.8865  -21.7512 H   0  0  0  0  0  0
    7.5880    8.1150  -21.5340 H   0  0  0  0  0  0
    7.2741    8.7899  -23.1687 H   0  0  0  0  0  0
    3.0117    8.1174  -22.6823 H   0  0  0  0  0  0
    3.2571    7.4589  -21.0715 H   0  0  0  0  0  0
  1  2  2  0  0  0
  1  3  1  0  0  0
  1 34  1  0  0  0
  2  6  1  0  0  0
  2 35  1  0  0  0
  3  5  2  0  0  0
  3 27  1  0  0  0
  4  5  1  0  0  0
  4  6  2  0  0  0
  4 18  1  0  0  0
  5 24  1  0  0  0
  6 10  1  0  0  0
  7 10  2  0  0  0
  7 23  1  0  0  0
  7 33  1  0  0  0
  8 21  1  0  0  0
  8 22  1  0  0  0
  8 36  1  0  0  0
  8 37  1  0  0  0
  9 21  1  0  0  0
  9 31  1  0  0  0
  9 38  1  0  0  0
  9 39  1  0  0  0
 10 40  1  0  0  0
 11 12  1  0  0  0
 11 14  2  0  0  0
 11 15  1  0  0  0
 12 17  1  0  0  0
 12 28  2  0  0  0
 13 28  1  0  0  0
 13 29  2  0  0  0
 13 55  1  0  0  0
 14 29  1  0  0  0
 14 31  1  0  0  0
 15 30  2  0  0  0
 15 41  1  0  0  0
 16 17  2  0  0  0
 16 18  1  0  0  0
 16 30  1  0  0  0
 17 26  1  0  0  0
 18 23  2  0  0  0
 19 20  1  0  0  0
 19 31  1  0  0  0
 19 42  1  0  0  0
 19 43  1  0  0  0
 20 22  1  0  0  0
 20 32  1  0  0  0
 20 44  1  0  0  0
 21 32  1  0  0  0
 21 45  1  0  0  0
 22 46  1  0  0  0
 22 47  1  0  0  0
 23 48  1  0  0  0
 24 25  3  0  0  0
 25 49  1  0  0  0
 32 50  1  0  0  0
 33 51  1  0  0  0
 52 53  1  0  0  0
 52 54  1  0  0  0
 52 56  1  0  0  0
 52 57  1  0  0  0
 53 55  1  0  0  0
 53 58  1  0  0  0
 53 59  1  0  0  0
 54 60  1  0  0  0
 54 61  1  0  0  0
 54 62  1  0  0  0
 55 63  1  0  0  0
 55 64  1  0  0  0
M  CHG  1  52   1
M  END
> <s_m_entry_id>
867

> <s_m_entry_name>
000000709.1

> <s_m_Source_Path>
/Users/zaksoul/Documents/3r_UNI/2nd_SEMESTER/BSC/FRAG_RECON/RESULTS/2

> <s_m_Source_File>
000000709.mol2

> <i_m_Source_File_Index>
1

$$$$
No_0_731
                    3D
 Schrodinger Suite 2022-4.
 64 69  0  0  1  0            999 V2000
   -5.3960    3.5530  -21.8370 C   0  0  0  0  0  0
   -5.6440    3.7760  -23.1700 C   0  0  0  0  0  0
   -4.1620    3.2890  -21.4860 C   0  0  0  0  0  0
   -3.2420    3.4690  -23.6360 C   0  0  0  0  0  0
   -3.1010    3.1880  -22.2200 C   0  0  0  0  0  0
   -4.5830    3.7480  -24.1680 C   0  0  0  0  0  0
   -3.7990    3.8250  -26.3550 C   0  0  0  0  0  0
    5.8600    2.9380  -20.9830 C   0  0  0  0  0  0
    5.7550    3.1470  -23.5290 C   0  0  0  0  0  0
   -4.8160    3.9100  -25.5030 C   0  0  0  0  0  0
    1.9710    3.7010  -23.5820 C   0  0  0  0  0  0
    1.1480    4.8030  -23.2650 C   0  0  0  0  0  0
    2.9390    5.9780  -22.5310 C   0  0  0  0  0  0
    3.3680    3.8820  -23.2460 C   0  0  0  0  0  0
    1.4320    2.6030  -24.2790 C   0  0  0  0  0  0
   -0.6950    3.4170  -24.1750 C   0  0  0  0  0  0
   -0.1750    4.6200  -23.5380 C   0  0  0  0  0  0
   -2.1440    3.4340  -24.5490 C   0  0  0  0  0  0
    3.9660    1.3760  -23.0110 C   0  0  0  0  0  0
    4.8840    0.9890  -21.8620 C   0  0  2  0  0  0
    6.4860    2.5400  -22.3370 C   0  0  2  0  0  0
    4.8520    1.9600  -20.6690 C   0  0  0  0  0  0
   -2.4500    3.6310  -25.9760 C   0  0  0  0  0  0
   -1.7650    2.7570  -21.6150 C   0  0  0  0  0  0
   -0.7410    2.3950  -21.1050 C   0  0  0  0  0  0
   -1.0200    5.6570  -23.1780 F   0  0  0  0  0  0
   -3.9700    3.0100  -20.1080 F   0  0  0  0  0  0
    1.6190    5.9470  -22.6970 N   0  0  0  0  0  0
    3.8370    5.0200  -22.7640 N   0  0  0  0  0  0
    0.1300    2.5230  -24.6040 N   0  0  0  0  0  0
    4.2870    2.8370  -23.4380 N   0  0  0  0  0  0
    6.2970    1.0660  -22.3240 N   0  0  1  0  0  0
   -3.9530    3.8760  -27.7460 O   0  0  0  0  0  0
   -6.2071    3.5982  -21.1193 H   0  0  0  0  0  0
   -6.6538    3.9818  -23.5063 H   0  0  0  0  0  0
    5.3916    3.9292  -21.0728 H   0  0  0  0  0  0
    6.6358    2.9269  -20.2032 H   0  0  0  0  0  0
    6.1605    2.7264  -24.4610 H   0  0  0  0  0  0
    5.8994    4.2375  -23.5320 H   0  0  0  0  0  0
   -5.8216    4.1057  -25.8573 H   0  0  0  0  0  0
    2.0732    1.7802  -24.5740 H   0  0  0  0  0  0
    2.9186    1.3124  -22.6810 H   0  0  0  0  0  0
    4.1377    0.6995  -23.8612 H   0  0  0  0  0  0
    4.6540   -0.0319  -21.5230 H   0  0  0  0  0  0
    7.5551    2.7974  -22.3632 H   0  0  0  0  0  0
    3.8685    2.4507  -20.6256 H   0  0  0  0  0  0
    5.1396    1.4221  -19.7536 H   0  0  0  0  0  0
   -1.6701    3.6300  -26.7288 H   0  0  0  0  0  0
    0.1597    2.0751  -20.6561 H   0  0  0  0  0  0
    6.9347    0.5492  -21.6221 H   0  0  0  0  0  0
   -3.1028    3.7978  -28.1627 H   0  0  0  0  0  0
    5.4410    8.9290  -22.0800 N   0  3  0  0  0  0
    4.9000    7.6180  -22.5700 C   0  0  0  0  0  0
    6.7870    9.2620  -22.6550 C   0  0  0  0  0  0
    3.4940    7.3030  -22.0210 C   0  0  0  0  0  0
    5.5010    8.9110  -21.0739 H   0  0  0  0  0  0
    4.7895    9.6645  -22.3052 H   0  0  0  0  0  0
    5.5906    6.8095  -22.2882 H   0  0  0  0  0  0
    4.8700    7.6220  -23.6696 H   0  0  0  0  0  0
    7.1262   10.2305  -22.2588 H   0  0  0  0  0  0
    7.5090    8.4800  -22.3770 H   0  0  0  0  0  0
    6.7140    9.3200  -23.7510 H   0  0  0  0  0  0
    2.8054    8.1166  -22.2929 H   0  0  0  0  0  0
    3.5260    7.2870  -20.9216 H   0  0  0  0  0  0
  1  2  2  0  0  0
  1  3  1  0  0  0
  1 34  1  0  0  0
  2  6  1  0  0  0
  2 35  1  0  0  0
  3  5  2  0  0  0
  3 27  1  0  0  0
  4  5  1  0  0  0
  4  6  2  0  0  0
  4 18  1  0  0  0
  5 24  1  0  0  0
  6 10  1  0  0  0
  7 10  2  0  0  0
  7 23  1  0  0  0
  7 33  1  0  0  0
  8 21  1  0  0  0
  8 22  1  0  0  0
  8 36  1  0  0  0
  8 37  1  0  0  0
  9 21  1  0  0  0
  9 31  1  0  0  0
  9 38  1  0  0  0
  9 39  1  0  0  0
 10 40  1  0  0  0
 11 12  1  0  0  0
 11 14  2  0  0  0
 11 15  1  0  0  0
 12 17  1  0  0  0
 12 28  2  0  0  0
 13 28  1  0  0  0
 13 29  2  0  0  0
 13 55  1  0  0  0
 14 29  1  0  0  0
 14 31  1  0  0  0
 15 30  2  0  0  0
 15 41  1  0  0  0
 16 17  2  0  0  0
 16 18  1  0  0  0
 16 30  1  0  0  0
 17 26  1  0  0  0
 18 23  2  0  0  0
 19 20  1  0  0  0
 19 31  1  0  0  0
 19 42  1  0  0  0
 19 43  1  0  0  0
 20 22  1  0  0  0
 20 32  1  0  0  0
 20 44  1  0  0  0
 21 32  1  0  0  0
 21 45  1  0  0  0
 22 46  1  0  0  0
 22 47  1  0  0  0
 23 48  1  0  0  0
 24 25  3  0  0  0
 25 49  1  0  0  0
 32 50  1  0  0  0
 33 51  1  0  0  0
 52 53  1  0  0  0
 52 54  1  0  0  0
 52 56  1  0  0  0
 52 57  1  0  0  0
 53 55  1  0  0  0
 53 58  1  0  0  0
 53 59  1  0  0  0
 54 60  1  0  0  0
 54 61  1  0  0  0
 54 62  1  0  0  0
 55 63  1  0  0  0
 55 64  1  0  0  0
M  CHG  1  52   1
M  END
> <s_m_entry_id>
868

> <s_m_entry_name>
000000710.1

> <s_m_Source_Path>
/Users/zaksoul/Documents/3r_UNI/2nd_SEMESTER/BSC/FRAG_RECON/RESULTS/2

> <s_m_Source_File>
000000710.mol2

> <i_m_Source_File_Index>
1

$$$$
No_0_732
                    3D
 Schrodinger Suite 2022-4.
 64 69  0  0  1  0            999 V2000
   -5.1920    3.5320  -21.6640 C   0  0  0  0  0  0
   -5.4630    3.7280  -22.9980 C   0  0  0  0  0  0
   -3.9530    3.2740  -21.3300 C   0  0  0  0  0  0
   -3.0710    3.4080  -23.4990 C   0  0  0  0  0  0
   -2.9050    3.1570  -22.0800 C   0  0  0  0  0  0
   -4.4200    3.6770  -24.0130 C   0  0  0  0  0  0
   -3.6740    3.7070  -26.2140 C   0  0  0  0  0  0
    6.0750    2.9230  -20.9920 C   0  0  0  0  0  0
    5.9260    3.0770  -23.5400 C   0  0  0  0  0  0
   -4.6760    3.8110  -25.3470 C   0  0  0  0  0  0
    2.1430    3.6350  -23.5400 C   0  0  0  0  0  0
    1.3260    4.7450  -23.2320 C   0  0  0  0  0  0
    3.1300    5.9320  -22.5540 C   0  0  0  0  0  0
    3.5450    3.8210  -23.2310 C   0  0  0  0  0  0
    1.5910    2.5230  -24.2040 C   0  0  0  0  0  0
   -0.5330    3.3410  -24.0810 C   0  0  0  0  0  0
   -0.0010    4.5570  -23.4780 C   0  0  0  0  0  0
   -1.9880    3.3520  -24.4290 C   0  0  0  0  0  0
    4.1460    1.3200  -22.9540 C   0  0  0  0  0  0
    5.0830    0.9570  -21.8120 C   0  0  2  0  0  0
    6.6780    2.4960  -22.3480 C   0  0  2  0  0  0
    5.0730    1.9530  -20.6410 C   0  0  0  0  0  0
   -2.3190    3.5190  -25.8550 C   0  0  0  0  0  0
   -1.5590    2.7370  -21.4890 C   0  0  0  0  0  0
   -0.5270    2.3850  -20.9890 C   0  0  0  0  0  0
   -0.8390    5.6030  -23.1250 F   0  0  0  0  0  0
   -3.7380    3.0250  -19.9500 F   0  0  0  0  0  0
    1.8090    5.9000  -22.6970 N   0  0  0  0  0  0
    4.0230    4.9690  -22.7820 N   0  0  0  0  0  0
    0.2830    2.4380  -24.5040 N   0  0  0  0  0  0
    4.4600    2.7720  -23.4170 N   0  0  0  0  0  0
    6.4880    1.0220  -22.3000 N   0  0  1  0  0  0
   -3.8520    3.7280  -27.6030 O   0  0  0  0  0  0
   -5.9911    3.5942  -20.9342 H   0  0  0  0  0  0
   -6.4785    3.9267  -23.3211 H   0  0  0  0  0  0
    5.6068    3.9129  -21.0959 H   0  0  0  0  0  0
    6.8643    2.9280  -20.2259 H   0  0  0  0  0  0
    6.3155    2.6360  -24.4694 H   0  0  0  0  0  0
    6.0722    4.1669  -23.5692 H   0  0  0  0  0  0
   -5.6876    4.0007  -25.6872 H   0  0  0  0  0  0
    2.2268    1.6936  -24.4918 H   0  0  0  0  0  0
    3.1047    1.2645  -22.6039 H   0  0  0  0  0  0
    4.3025    0.6252  -23.7923 H   0  0  0  0  0  0
    4.8580   -0.0562  -21.4477 H   0  0  0  0  0  0
    7.7470    2.7504  -22.3985 H   0  0  0  0  0  0
    4.0908    2.4456  -20.5905 H   0  0  0  0  0  0
    5.3756    1.4346  -19.7192 H   0  0  0  0  0  0
   -1.5521    3.5009  -26.6209 H   0  0  0  0  0  0
    0.3811    2.0740  -20.5489 H   0  0  0  0  0  0
    7.1372    0.5193  -21.5984 H   0  0  0  0  0  0
   -3.0091    3.6400  -28.0323 H   0  0  0  0  0  0
    3.9220    9.7460  -22.5750 N   0  3  0  0  0  0
    3.3800    8.4290  -23.0460 C   0  0  0  0  0  0
    3.5700   10.8870  -23.4850 C   0  0  0  0  0  0
    3.6950    7.2680  -22.0820 C   0  0  0  0  0  0
    4.9243    9.6840  -22.4880 H   0  0  0  0  0  0
    3.5760    9.9380  -21.6479 H   0  0  0  0  0  0
    3.7898    8.1991  -24.0406 H   0  0  0  0  0  0
    2.2908    8.5079  -23.1779 H   0  0  0  0  0  0
    3.9949   11.8199  -23.0861 H   0  0  0  0  0  0
    3.9809   10.6981  -24.4877 H   0  0  0  0  0  0
    2.4760   10.9820  -23.5500 H   0  0  0  0  0  0
    3.2948    7.5021  -21.0845 H   0  0  0  0  0  0
    4.7846    7.1810  -21.9590 H   0  0  0  0  0  0
  1  2  2  0  0  0
  1  3  1  0  0  0
  1 34  1  0  0  0
  2  6  1  0  0  0
  2 35  1  0  0  0
  3  5  2  0  0  0
  3 27  1  0  0  0
  4  5  1  0  0  0
  4  6  2  0  0  0
  4 18  1  0  0  0
  5 24  1  0  0  0
  6 10  1  0  0  0
  7 10  2  0  0  0
  7 23  1  0  0  0
  7 33  1  0  0  0
  8 21  1  0  0  0
  8 22  1  0  0  0
  8 36  1  0  0  0
  8 37  1  0  0  0
  9 21  1  0  0  0
  9 31  1  0  0  0
  9 38  1  0  0  0
  9 39  1  0  0  0
 10 40  1  0  0  0
 11 12  1  0  0  0
 11 14  2  0  0  0
 11 15  1  0  0  0
 12 17  1  0  0  0
 12 28  2  0  0  0
 13 28  1  0  0  0
 13 29  2  0  0  0
 13 55  1  0  0  0
 14 29  1  0  0  0
 14 31  1  0  0  0
 15 30  2  0  0  0
 15 41  1  0  0  0
 16 17  2  0  0  0
 16 18  1  0  0  0
 16 30  1  0  0  0
 17 26  1  0  0  0
 18 23  2  0  0  0
 19 20  1  0  0  0
 19 31  1  0  0  0
 19 42  1  0  0  0
 19 43  1  0  0  0
 20 22  1  0  0  0
 20 32  1  0  0  0
 20 44  1  0  0  0
 21 32  1  0  0  0
 21 45  1  0  0  0
 22 46  1  0  0  0
 22 47  1  0  0  0
 23 48  1  0  0  0
 24 25  3  0  0  0
 25 49  1  0  0  0
 32 50  1  0  0  0
 33 51  1  0  0  0
 52 53  1  0  0  0
 52 54  1  0  0  0
 52 56  1  0  0  0
 52 57  1  0  0  0
 53 55  1  0  0  0
 53 58  1  0  0  0
 53 59  1  0  0  0
 54 60  1  0  0  0
 54 61  1  0  0  0
 54 62  1  0  0  0
 55 63  1  0  0  0
 55 64  1  0  0  0
M  CHG  1  52   1
M  END
> <s_m_entry_id>
869

> <s_m_entry_name>
000000711.1

> <s_m_Source_Path>
/Users/zaksoul/Documents/3r_UNI/2nd_SEMESTER/BSC/FRAG_RECON/RESULTS/2

> <s_m_Source_File>
000000711.mol2

> <i_m_Source_File_Index>
1

$$$$
No_0_733
                    3D
 Schrodinger Suite 2022-4.
 64 69  0  0  1  0            999 V2000
   -4.9890    3.4950  -21.8890 C   0  0  0  0  0  0
   -5.2490    3.7360  -23.2170 C   0  0  0  0  0  0
   -3.7540    3.2190  -21.5540 C   0  0  0  0  0  0
   -2.8550    3.4200  -23.7110 C   0  0  0  0  0  0
   -2.7000    3.1210  -22.3010 C   0  0  0  0  0  0
   -4.1990    3.7130  -24.2260 C   0  0  0  0  0  0
   -3.4370    3.8110  -26.4190 C   0  0  0  0  0  0
    6.2700    2.8000  -21.1600 C   0  0  0  0  0  0
    6.1400    3.0390  -23.7030 C   0  0  0  0  0  0
   -4.4450    3.8920  -25.5560 C   0  0  0  0  0  0
    2.3600    3.6180  -23.7090 C   0  0  0  0  0  0
    1.5470    4.7210  -23.3710 C   0  0  0  0  0  0
    3.3530    5.8760  -22.6420 C   0  0  0  0  0  0
    3.7610    3.7860  -23.3860 C   0  0  0  0  0  0
    1.8070    2.5310  -24.4130 C   0  0  0  0  0  0
   -0.3140    3.3570  -24.2780 C   0  0  0  0  0  0
    0.2210    4.5500  -23.6320 C   0  0  0  0  0  0
   -1.7660    3.3880  -24.6360 C   0  0  0  0  0  0
    4.3460    1.2740  -23.1860 C   0  0  0  0  0  0
    5.2730    0.8670  -22.0510 C   0  0  2  0  0  0
    6.8800    2.4140  -22.5260 C   0  0  2  0  0  0
    5.2600    1.8240  -20.8480 C   0  0  0  0  0  0
   -2.0860    3.6040  -26.0570 C   0  0  0  0  0  0
   -1.3610    2.6740  -21.7150 C   0  0  0  0  0  0
   -0.3350    2.2990  -21.2190 C   0  0  0  0  0  0
   -0.6140    5.5880  -23.2510 F   0  0  0  0  0  0
   -3.5490    2.9230  -20.1820 F   0  0  0  0  0  0
    2.0320    5.8560  -22.7950 N   0  0  0  0  0  0
    4.2420    4.9150  -22.8960 N   0  0  0  0  0  0
    0.5010    2.4640  -24.7250 N   0  0  0  0  0  0
    4.6710    2.7380  -23.6000 N   0  0  0  0  0  0
    6.6820    0.9410  -22.5270 N   0  0  1  0  0  0
   -3.6060    3.8790  -27.8080 O   0  0  0  0  0  0
   -5.7921    3.5372  -21.1622 H   0  0  0  0  0  0
   -6.2610    3.9516  -23.5400 H   0  0  0  0  0  0
    5.8076    3.7954  -21.2337 H   0  0  0  0  0  0
    7.0541    2.7748  -20.3890 H   0  0  0  0  0  0
    6.5336    2.6262  -24.6436 H   0  0  0  0  0  0
    6.2924    4.1284  -23.6949 H   0  0  0  0  0  0
   -5.4529    4.0988  -25.8973 H   0  0  0  0  0  0
    2.4401    1.7083  -24.7250 H   0  0  0  0  0  0
    3.3017    1.2125  -22.8460 H   0  0  0  0  0  0
    4.5044    0.6061  -24.0456 H   0  0  0  0  0  0
    5.0399   -0.1564  -21.7220 H   0  0  0  0  0  0
    7.9506    2.6642  -22.5603 H   0  0  0  0  0  0
    4.2802    2.3205  -20.7885 H   0  0  0  0  0  0
    5.5537    1.2740  -19.9418 H   0  0  0  0  0  0
   -1.3145    3.6070  -26.8185 H   0  0  0  0  0  0
    0.5689    1.9690  -20.7840 H   0  0  0  0  0  0
    7.3237    0.4116  -21.8383 H   0  0  0  0  0  0
   -2.7608    3.8008  -28.2346 H   0  0  0  0  0  0
    3.8730    9.7220  -22.3070 N   0  3  0  0  0  0
    3.3250    8.4250  -22.8280 C   0  0  0  0  0  0
    3.2540   10.9260  -22.9560 C   0  0  0  0  0  0
    3.9220    7.1920  -22.1220 C   0  0  0  0  0  0
    4.8713    9.7430  -22.4450 H   0  0  0  0  0  0
    3.7309    9.7680  -21.3101 H   0  0  0  0  0  0
    3.5160    8.3560  -23.9091 H   0  0  0  0  0  0
    2.2310    8.4180  -22.7130 H   0  0  0  0  0  0
    3.6971   11.8392  -22.5319 H   0  0  0  0  0  0
    3.4419   10.8970  -24.0394 H   0  0  0  0  0  0
    2.1693   10.9260  -22.7731 H   0  0  0  0  0  0
    3.7400    7.2670  -21.0398 H   0  0  0  0  0  0
    5.0149    7.1920  -22.2470 H   0  0  0  0  0  0
  1  2  2  0  0  0
  1  3  1  0  0  0
  1 34  1  0  0  0
  2  6  1  0  0  0
  2 35  1  0  0  0
  3  5  2  0  0  0
  3 27  1  0  0  0
  4  5  1  0  0  0
  4  6  2  0  0  0
  4 18  1  0  0  0
  5 24  1  0  0  0
  6 10  1  0  0  0
  7 10  2  0  0  0
  7 23  1  0  0  0
  7 33  1  0  0  0
  8 21  1  0  0  0
  8 22  1  0  0  0
  8 36  1  0  0  0
  8 37  1  0  0  0
  9 21  1  0  0  0
  9 31  1  0  0  0
  9 38  1  0  0  0
  9 39  1  0  0  0
 10 40  1  0  0  0
 11 12  1  0  0  0
 11 14  2  0  0  0
 11 15  1  0  0  0
 12 17  1  0  0  0
 12 28  2  0  0  0
 13 28  1  0  0  0
 13 29  2  0  0  0
 13 55  1  0  0  0
 14 29  1  0  0  0
 14 31  1  0  0  0
 15 30  2  0  0  0
 15 41  1  0  0  0
 16 17  2  0  0  0
 16 18  1  0  0  0
 16 30  1  0  0  0
 17 26  1  0  0  0
 18 23  2  0  0  0
 19 20  1  0  0  0
 19 31  1  0  0  0
 19 42  1  0  0  0
 19 43  1  0  0  0
 20 22  1  0  0  0
 20 32  1  0  0  0
 20 44  1  0  0  0
 21 32  1  0  0  0
 21 45  1  0  0  0
 22 46  1  0  0  0
 22 47  1  0  0  0
 23 48  1  0  0  0
 24 25  3  0  0  0
 25 49  1  0  0  0
 32 50  1  0  0  0
 33 51  1  0  0  0
 52 53  1  0  0  0
 52 54  1  0  0  0
 52 56  1  0  0  0
 52 57  1  0  0  0
 53 55  1  0  0  0
 53 58  1  0  0  0
 53 59  1  0  0  0
 54 60  1  0  0  0
 54 61  1  0  0  0
 54 62  1  0  0  0
 55 63  1  0  0  0
 55 64  1  0  0  0
M  CHG  1  52   1
M  END
> <s_m_entry_id>
870

> <s_m_entry_name>
000000712.1

> <s_m_Source_Path>
/Users/zaksoul/Documents/3r_UNI/2nd_SEMESTER/BSC/FRAG_RECON/RESULTS/2

> <s_m_Source_File>
000000712.mol2

> <i_m_Source_File_Index>
1

$$$$
No_0_734
                    3D
 Schrodinger Suite 2022-4.
 68 74  0  0  1  0            999 V2000
   -5.2890    3.4800  -21.9110 C   0  0  0  0  0  0
   -5.5760    3.6290  -23.2470 C   0  0  0  0  0  0
   -4.0430    3.2530  -21.5810 C   0  0  0  0  0  0
   -3.1840    3.3300  -23.7620 C   0  0  0  0  0  0
   -3.0000    3.1270  -22.3380 C   0  0  0  0  0  0
   -4.5420    3.5610  -24.2710 C   0  0  0  0  0  0
   -3.8180    3.5320  -26.4790 C   0  0  0  0  0  0
    5.9930    3.0670  -21.3360 C   0  0  0  0  0  0
    5.8170    3.1380  -23.8860 C   0  0  0  0  0  0
   -4.8130    3.6490  -25.6050 C   0  0  0  0  0  0
    2.0250    3.6370  -23.8640 C   0  0  0  0  0  0
    1.1940    4.7420  -23.5840 C   0  0  0  0  0  0
    2.9860    5.9790  -22.9630 C   0  0  0  0  0  0
    3.4270    3.8540  -23.5770 C   0  0  0  0  0  0
    1.4840    2.4950  -24.4870 C   0  0  0  0  0  0
   -0.6520    3.2840  -24.3680 C   0  0  0  0  0  0
   -0.1330    4.5270  -23.8100 C   0  0  0  0  0  0
   -2.1090    3.2610  -24.7010 C   0  0  0  0  0  0
    4.0700    1.3730  -23.2250 C   0  0  0  0  0  0
    5.0240    1.0610  -22.0830 C   0  0  2  0  0  0
    6.5890    2.6060  -22.6840 C   0  0  2  0  0  0
    5.0090    2.0940  -20.9430 C   0  0  0  0  0  0
   -2.4570    3.3770  -26.1280 C   0  0  0  0  0  0
   -1.6420    2.7480  -21.7480 C   0  0  0  0  0  0
   -0.6000    2.4270  -21.2470 C   0  0  0  0  0  0
   -0.9830    5.5700  -23.4820 F   0  0  0  0  0  0
   -3.8100    3.0510  -20.1960 F   0  0  0  0  0  0
    1.6630    5.9220  -23.0910 N   0  0  0  0  0  0
    3.8920    5.0220  -23.1690 N   0  0  0  0  0  0
    0.1750    2.3800  -24.7700 N   0  0  0  0  0  0
    4.3570    2.8130  -23.7380 N   0  0  0  0  0  0
    6.4230    1.1320  -22.5870 N   0  0  1  0  0  0
   -4.0100    3.5060  -27.8660 O   0  0  0  0  0  0
   -6.0814    3.5533  -21.1749 H   0  0  0  0  0  0
   -6.5975    3.8016  -23.5661 H   0  0  0  0  0  0
    5.5078    4.0456  -21.4661 H   0  0  0  0  0  0
    6.7897    3.1094  -20.5787 H   0  0  0  0  0  0
    6.2033    2.6730  -24.8050 H   0  0  0  0  0  0
    5.9452    4.2285  -23.9516 H   0  0  0  0  0  0
   -5.8305    3.8106  -25.9422 H   0  0  0  0  0  0
    2.1303    1.6670  -24.7550 H   0  0  0  0  0  0
    3.0331    1.3125  -22.8629 H   0  0  0  0  0  0
    4.2295    0.6544  -24.0425 H   0  0  0  0  0  0
    4.8182    0.0570  -21.6834 H   0  0  0  0  0  0
    7.6532    2.8756  -22.7537 H   0  0  0  0  0  0
    4.0196    2.5726  -20.8986 H   0  0  0  0  0  0
    5.3289    1.6097  -20.0086 H   0  0  0  0  0  0
   -1.6984    3.3459  -26.9017 H   0  0  0  0  0  0
    0.3177    2.1451  -20.8071 H   0  0  0  0  0  0
    7.0869    0.6627  -21.8761 H   0  0  0  0  0  0
   -3.1705    3.4169  -28.3016 H   0  0  0  0  0  0
    6.0180    9.0900  -21.4720 N   0  3  0  0  0  0
    6.8290   10.1600  -20.8570 C   0  0  0  0  0  0
    7.3140    8.6460  -20.9190 C   0  0  0  0  0  0
    4.7630    8.6960  -20.7450 C   0  0  0  0  0  0
    4.2480    7.3090  -21.1730 C   0  0  0  0  0  0
    3.5340    7.3380  -22.5400 C   0  0  0  0  0  0
    5.9540    9.1110  -22.4777 H   0  0  0  0  0  0
    6.3792   10.1370  -19.8534 H   0  0  0  0  0  0
    7.3281   10.5191  -21.7691 H   0  0  0  0  0  0
    7.9071    8.7110  -21.8431 H   0  0  0  0  0  0
    6.9582    8.3292  -19.9275 H   0  0  0  0  0  0
    3.9817    9.4483  -20.9281 H   0  0  0  0  0  0
    4.9519    8.6970  -19.6613 H   0  0  0  0  0  0
    3.5589    6.9220  -20.4079 H   0  0  0  0  0  0
    5.0912    6.6039  -21.2160 H   0  0  0  0  0  0
    4.2301    7.7061  -23.3081 H   0  0  0  0  0  0
    2.7128    8.0692  -22.5070 H   0  0  0  0  0  0
  1  2  2  0  0  0
  1  3  1  0  0  0
  1 34  1  0  0  0
  2  6  1  0  0  0
  2 35  1  0  0  0
  3  5  2  0  0  0
  3 27  1  0  0  0
  4  5  1  0  0  0
  4  6  2  0  0  0
  4 18  1  0  0  0
  5 24  1  0  0  0
  6 10  1  0  0  0
  7 10  2  0  0  0
  7 23  1  0  0  0
  7 33  1  0  0  0
  8 21  1  0  0  0
  8 22  1  0  0  0
  8 36  1  0  0  0
  8 37  1  0  0  0
  9 21  1  0  0  0
  9 31  1  0  0  0
  9 38  1  0  0  0
  9 39  1  0  0  0
 10 40  1  0  0  0
 11 12  1  0  0  0
 11 14  2  0  0  0
 11 15  1  0  0  0
 12 17  1  0  0  0
 12 28  2  0  0  0
 13 28  1  0  0  0
 13 29  2  0  0  0
 13 57  1  0  0  0
 14 29  1  0  0  0
 14 31  1  0  0  0
 15 30  2  0  0  0
 15 41  1  0  0  0
 16 17  2  0  0  0
 16 18  1  0  0  0
 16 30  1  0  0  0
 17 26  1  0  0  0
 18 23  2  0  0  0
 19 20  1  0  0  0
 19 31  1  0  0  0
 19 42  1  0  0  0
 19 43  1  0  0  0
 20 22  1  0  0  0
 20 32  1  0  0  0
 20 44  1  0  0  0
 21 32  1  0  0  0
 21 45  1  0  0  0
 22 46  1  0  0  0
 22 47  1  0  0  0
 23 48  1  0  0  0
 24 25  3  0  0  0
 25 49  1  0  0  0
 32 50  1  0  0  0
 33 51  1  0  0  0
 52 53  1  0  0  0
 52 54  1  0  0  0
 52 55  1  0  0  0
 52 58  1  0  0  0
 53 54  1  0  0  0
 53 59  1  0  0  0
 53 60  1  0  0  0
 54 61  1  0  0  0
 54 62  1  0  0  0
 55 56  1  0  0  0
 55 63  1  0  0  0
 55 64  1  0  0  0
 56 57  1  0  0  0
 56 65  1  0  0  0
 56 66  1  0  0  0
 57 67  1  0  0  0
 57 68  1  0  0  0
M  CHG  1  52   1
M  END
> <s_m_entry_id>
871

> <s_m_entry_name>
000000713.1

> <s_m_Source_Path>
/Users/zaksoul/Documents/3r_UNI/2nd_SEMESTER/BSC/FRAG_RECON/RESULTS/2

> <s_m_Source_File>
000000713.mol2

> <i_m_Source_File_Index>
1

$$$$
No_0_735
                    3D
 Schrodinger Suite 2022-4.
 68 74  0  0  1  0            999 V2000
   -5.2560    3.3730  -21.7380 C   0  0  0  0  0  0
   -5.5620    3.5350  -23.0690 C   0  0  0  0  0  0
   -4.0020    3.1590  -21.4280 C   0  0  0  0  0  0
   -3.1730    3.2790  -23.6180 C   0  0  0  0  0  0
   -2.9680    3.0590  -22.1990 C   0  0  0  0  0  0
   -4.5400    3.4970  -24.1060 C   0  0  0  0  0  0
   -3.8450    3.5090  -26.3240 C   0  0  0  0  0  0
    6.0370    3.1180  -21.3130 C   0  0  0  0  0  0
    5.8270    3.2200  -23.8600 C   0  0  0  0  0  0
   -4.8310    3.5990  -25.4360 C   0  0  0  0  0  0
    2.0300    3.6630  -23.7820 C   0  0  0  0  0  0
    1.1860    4.7530  -23.4760 C   0  0  0  0  0  0
    2.9680    6.0070  -22.8610 C   0  0  0  0  0  0
    3.4320    3.8970  -23.5090 C   0  0  0  0  0  0
    1.4970    2.5220  -24.4130 C   0  0  0  0  0  0
   -0.6480    3.2780  -24.2560 C   0  0  0  0  0  0
   -0.1400    4.5210  -23.6880 C   0  0  0  0  0  0
   -2.1100    3.2390  -24.5720 C   0  0  0  0  0  0
    4.1150    1.4210  -23.2010 C   0  0  0  0  0  0
    5.0880    1.1070  -22.0750 C   0  0  2  0  0  0
    6.6220    2.6840  -22.6750 C   0  0  2  0  0  0
    5.0730    2.1240  -20.9210 C   0  0  0  0  0  0
   -2.4770    3.3690  -25.9920 C   0  0  0  0  0  0
   -1.5970    2.6920  -21.6320 C   0  0  0  0  0  0
   -0.5440    2.3800  -21.1490 C   0  0  0  0  0  0
   -1.0010    5.5470  -23.3350 F   0  0  0  0  0  0
   -3.7480    2.9420  -20.0490 F   0  0  0  0  0  0
    1.6450    5.9320  -22.9730 N   0  0  0  0  0  0
    3.8840    5.0660  -23.0920 N   0  0  0  0  0  0
    0.1860    2.3920  -24.6820 N   0  0  0  0  0  0
    4.3740    2.8720  -23.6970 N   0  0  0  0  0  0
    6.4790    1.2060  -22.5960 N   0  0  1  0  0  0
   -4.0550    3.4990  -27.7080 O   0  0  0  0  0  0
   -6.0400    3.4242  -20.9911 H   0  0  0  0  0  0
   -6.5901    3.6975  -23.3719 H   0  0  0  0  0  0
    5.5363    4.0912  -21.4230 H   0  0  0  0  0  0
    6.8429    3.1604  -20.5656 H   0  0  0  0  0  0
    6.2096    2.7738  -24.7898 H   0  0  0  0  0  0
    5.9390    4.3131  -23.9115 H   0  0  0  0  0  0
   -5.8551    3.7506  -25.7573 H   0  0  0  0  0  0
    2.1513    1.7071  -24.7010 H   0  0  0  0  0  0
    3.0838    1.3403  -22.8267 H   0  0  0  0  0  0
    4.2735    0.7153  -24.0298 H   0  0  0  0  0  0
    4.9023    0.0945  -21.6873 H   0  0  0  0  0  0
    7.6814    2.9695  -22.7537 H   0  0  0  0  0  0
    4.0778    2.5883  -20.8574 H   0  0  0  0  0  0
    5.4121    1.6316  -19.9977 H   0  0  0  0  0  0
   -1.7283    3.3600  -26.7758 H   0  0  0  0  0  0
    0.3828    2.1051  -20.7241 H   0  0  0  0  0  0
    7.1592    0.7365  -21.9008 H   0  0  0  0  0  0
   -3.2199    3.4278  -28.1552 H   0  0  0  0  0  0
    6.0350    9.2780  -21.8690 N   0  3  0  0  0  0
    6.9000   10.3640  -21.3650 C   0  0  0  0  0  0
    7.4690    8.9340  -21.7690 C   0  0  0  0  0  0
    5.0870    8.6610  -20.8790 C   0  0  0  0  0  0
    4.5860    7.2770  -21.3330 C   0  0  0  0  0  0
    3.5020    7.3680  -22.4260 C   0  0  0  0  0  0
    5.6768    9.3991  -22.8034 H   0  0  0  0  0  0
    6.7690   10.1789  -20.2886 H   0  0  0  0  0  0
    7.0770   10.8761  -22.3223 H   0  0  0  0  0  0
    7.7561    9.1691  -22.8045 H   0  0  0  0  0  0
    7.4470    8.4720  -20.7710 H   0  0  0  0  0  0
    4.2267    9.3303  -20.7309 H   0  0  0  0  0  0
    5.5863    8.5669  -19.9034 H   0  0  0  0  0  0
    4.1861    6.7302  -20.4663 H   0  0  0  0  0  0
    5.4339    6.6850  -21.7080 H   0  0  0  0  0  0
    3.9082    7.8973  -23.3005 H   0  0  0  0  0  0
    2.6690    7.9880  -22.0630 H   0  0  0  0  0  0
  1  2  2  0  0  0
  1  3  1  0  0  0
  1 34  1  0  0  0
  2  6  1  0  0  0
  2 35  1  0  0  0
  3  5  2  0  0  0
  3 27  1  0  0  0
  4  5  1  0  0  0
  4  6  2  0  0  0
  4 18  1  0  0  0
  5 24  1  0  0  0
  6 10  1  0  0  0
  7 10  2  0  0  0
  7 23  1  0  0  0
  7 33  1  0  0  0
  8 21  1  0  0  0
  8 22  1  0  0  0
  8 36  1  0  0  0
  8 37  1  0  0  0
  9 21  1  0  0  0
  9 31  1  0  0  0
  9 38  1  0  0  0
  9 39  1  0  0  0
 10 40  1  0  0  0
 11 12  1  0  0  0
 11 14  2  0  0  0
 11 15  1  0  0  0
 12 17  1  0  0  0
 12 28  2  0  0  0
 13 28  1  0  0  0
 13 29  2  0  0  0
 13 57  1  0  0  0
 14 29  1  0  0  0
 14 31  1  0  0  0
 15 30  2  0  0  0
 15 41  1  0  0  0
 16 17  2  0  0  0
 16 18  1  0  0  0
 16 30  1  0  0  0
 17 26  1  0  0  0
 18 23  2  0  0  0
 19 20  1  0  0  0
 19 31  1  0  0  0
 19 42  1  0  0  0
 19 43  1  0  0  0
 20 22  1  0  0  0
 20 32  1  0  0  0
 20 44  1  0  0  0
 21 32  1  0  0  0
 21 45  1  0  0  0
 22 46  1  0  0  0
 22 47  1  0  0  0
 23 48  1  0  0  0
 24 25  3  0  0  0
 25 49  1  0  0  0
 32 50  1  0  0  0
 33 51  1  0  0  0
 52 53  1  0  0  0
 52 54  1  0  0  0
 52 55  1  0  0  0
 52 58  1  0  0  0
 53 54  1  0  0  0
 53 59  1  0  0  0
 53 60  1  0  0  0
 54 61  1  0  0  0
 54 62  1  0  0  0
 55 56  1  0  0  0
 55 63  1  0  0  0
 55 64  1  0  0  0
 56 57  1  0  0  0
 56 65  1  0  0  0
 56 66  1  0  0  0
 57 67  1  0  0  0
 57 68  1  0  0  0
M  CHG  1  52   1
M  END
> <s_m_entry_id>
872

> <s_m_entry_name>
000000714.1

> <s_m_Source_Path>
/Users/zaksoul/Documents/3r_UNI/2nd_SEMESTER/BSC/FRAG_RECON/RESULTS/2

> <s_m_Source_File>
000000714.mol2

> <i_m_Source_File_Index>
1

$$$$
No_0_736
                    3D
 Schrodinger Suite 2022-4.
 68 74  0  0  1  0            999 V2000
   -5.1810    3.6090  -21.8530 C   0  0  0  0  0  0
   -5.4520    3.8050  -23.1860 C   0  0  0  0  0  0
   -3.9420    3.3510  -21.5190 C   0  0  0  0  0  0
   -3.0590    3.4860  -23.6870 C   0  0  0  0  0  0
   -2.8930    3.2340  -22.2690 C   0  0  0  0  0  0
   -4.4090    3.7540  -24.2010 C   0  0  0  0  0  0
   -3.6630    3.7850  -26.4030 C   0  0  0  0  0  0
    6.0870    3.0010  -21.1820 C   0  0  0  0  0  0
    5.9380    3.1560  -23.7310 C   0  0  0  0  0  0
   -4.6650    3.8890  -25.5350 C   0  0  0  0  0  0
    2.1540    3.7130  -23.7290 C   0  0  0  0  0  0
    1.3370    4.8230  -23.4210 C   0  0  0  0  0  0
    3.1410    6.0110  -22.7430 C   0  0  0  0  0  0
    3.5570    3.8990  -23.4210 C   0  0  0  0  0  0
    1.6030    2.6010  -24.3930 C   0  0  0  0  0  0
   -0.5220    3.4190  -24.2700 C   0  0  0  0  0  0
    0.0100    4.6350  -23.6670 C   0  0  0  0  0  0
   -1.9770    3.4300  -24.6180 C   0  0  0  0  0  0
    4.1570    1.3990  -23.1440 C   0  0  0  0  0  0
    5.0950    1.0350  -22.0030 C   0  0  2  0  0  0
    6.6890    2.5740  -22.5390 C   0  0  2  0  0  0
    5.0840    2.0310  -20.8310 C   0  0  0  0  0  0
   -2.3080    3.5970  -26.0440 C   0  0  0  0  0  0
   -1.5470    2.8150  -21.6780 C   0  0  0  0  0  0
   -0.5150    2.4620  -21.1780 C   0  0  0  0  0  0
   -0.8280    5.6800  -23.3140 F   0  0  0  0  0  0
   -3.7260    3.1020  -20.1390 F   0  0  0  0  0  0
    1.8200    5.9780  -22.8860 N   0  0  0  0  0  0
    4.0350    5.0470  -22.9720 N   0  0  0  0  0  0
    0.2950    2.5160  -24.6930 N   0  0  0  0  0  0
    4.4710    2.8500  -23.6070 N   0  0  0  0  0  0
    6.5000    1.1010  -22.4910 N   0  0  1  0  0  0
   -3.8410    3.8060  -27.7920 O   0  0  0  0  0  0
   -5.9796    3.6712  -21.1226 H   0  0  0  0  0  0
   -6.4675    4.0037  -23.5091 H   0  0  0  0  0  0
    5.6179    3.9906  -21.2849 H   0  0  0  0  0  0
    6.8763    3.0060  -20.4159 H   0  0  0  0  0  0
    6.3275    2.7150  -24.6604 H   0  0  0  0  0  0
    6.0833    4.2460  -23.7593 H   0  0  0  0  0  0
   -5.6765    4.0776  -25.8762 H   0  0  0  0  0  0
    2.2385    1.7718  -24.6821 H   0  0  0  0  0  0
    3.1157    1.3435  -22.7939 H   0  0  0  0  0  0
    4.3144    0.7047  -23.9826 H   0  0  0  0  0  0
    4.8700    0.0218  -21.6387 H   0  0  0  0  0  0
    7.7578    2.8293  -22.5885 H   0  0  0  0  0  0
    4.1018    2.5236  -20.7805 H   0  0  0  0  0  0
    5.3877    1.5123  -19.9097 H   0  0  0  0  0  0
   -1.5411    3.5789  -26.8099 H   0  0  0  0  0  0
    0.3934    2.1519  -20.7378 H   0  0  0  0  0  0
    7.1492    0.5983  -21.7894 H   0  0  0  0  0  0
   -2.9984    3.7179  -28.2217 H   0  0  0  0  0  0
    6.2310    9.3320  -22.0250 N   0  3  0  0  0  0
    7.1430   10.4070  -21.5860 C   0  0  0  0  0  0
    7.6650    9.0640  -22.2610 C   0  0  0  0  0  0
    5.5330    8.5580  -20.9410 C   0  0  0  0  0  0
    4.9980    7.2030  -21.4410 C   0  0  0  0  0  0
    3.7060    7.3460  -22.2710 C   0  0  0  0  0  0
    5.6810    9.5310  -22.8460 H   0  0  0  0  0  0
    7.2470   10.1021  -20.5342 H   0  0  0  0  0  0
    7.0970   11.0284  -22.4925 H   0  0  0  0  0  0
    7.7200    9.4252  -23.2986 H   0  0  0  0  0  0
    7.8699    8.4981  -21.3402 H   0  0  0  0  0  0
    4.7004    9.1564  -20.5427 H   0  0  0  0  0  0
    6.2291    8.3910  -20.1058 H   0  0  0  0  0  0
    4.8080    6.5451  -20.5801 H   0  0  0  0  0  0
    5.7693    6.7068  -22.0483 H   0  0  0  0  0  0
    3.9010    7.9890  -23.1420 H   0  0  0  0  0  0
    2.9461    7.8739  -21.6761 H   0  0  0  0  0  0
  1  2  2  0  0  0
  1  3  1  0  0  0
  1 34  1  0  0  0
  2  6  1  0  0  0
  2 35  1  0  0  0
  3  5  2  0  0  0
  3 27  1  0  0  0
  4  5  1  0  0  0
  4  6  2  0  0  0
  4 18  1  0  0  0
  5 24  1  0  0  0
  6 10  1  0  0  0
  7 10  2  0  0  0
  7 23  1  0  0  0
  7 33  1  0  0  0
  8 21  1  0  0  0
  8 22  1  0  0  0
  8 36  1  0  0  0
  8 37  1  0  0  0
  9 21  1  0  0  0
  9 31  1  0  0  0
  9 38  1  0  0  0
  9 39  1  0  0  0
 10 40  1  0  0  0
 11 12  1  0  0  0
 11 14  2  0  0  0
 11 15  1  0  0  0
 12 17  1  0  0  0
 12 28  2  0  0  0
 13 28  1  0  0  0
 13 29  2  0  0  0
 13 57  1  0  0  0
 14 29  1  0  0  0
 14 31  1  0  0  0
 15 30  2  0  0  0
 15 41  1  0  0  0
 16 17  2  0  0  0
 16 18  1  0  0  0
 16 30  1  0  0  0
 17 26  1  0  0  0
 18 23  2  0  0  0
 19 20  1  0  0  0
 19 31  1  0  0  0
 19 42  1  0  0  0
 19 43  1  0  0  0
 20 22  1  0  0  0
 20 32  1  0  0  0
 20 44  1  0  0  0
 21 32  1  0  0  0
 21 45  1  0  0  0
 22 46  1  0  0  0
 22 47  1  0  0  0
 23 48  1  0  0  0
 24 25  3  0  0  0
 25 49  1  0  0  0
 32 50  1  0  0  0
 33 51  1  0  0  0
 52 53  1  0  0  0
 52 54  1  0  0  0
 52 55  1  0  0  0
 52 58  1  0  0  0
 53 54  1  0  0  0
 53 59  1  0  0  0
 53 60  1  0  0  0
 54 61  1  0  0  0
 54 62  1  0  0  0
 55 56  1  0  0  0
 55 63  1  0  0  0
 55 64  1  0  0  0
 56 57  1  0  0  0
 56 65  1  0  0  0
 56 66  1  0  0  0
 57 67  1  0  0  0
 57 68  1  0  0  0
M  CHG  1  52   1
M  END
> <s_m_entry_id>
873

> <s_m_entry_name>
000000715.1

> <s_m_Source_Path>
/Users/zaksoul/Documents/3r_UNI/2nd_SEMESTER/BSC/FRAG_RECON/RESULTS/2

> <s_m_Source_File>
000000715.mol2

> <i_m_Source_File_Index>
1

$$$$
No_0_737
                    3D
 Schrodinger Suite 2022-4.
 68 74  0  0  1  0            999 V2000
   -5.3090    3.7760  -22.1110 C   0  0  0  0  0  0
   -5.5300    3.9470  -23.4570 C   0  0  0  0  0  0
   -4.0900    3.4900  -21.7300 C   0  0  0  0  0  0
   -3.1330    3.5460  -23.8700 C   0  0  0  0  0  0
   -3.0210    3.3240  -22.4410 C   0  0  0  0  0  0
   -4.4560    3.8410  -24.4350 C   0  0  0  0  0  0
   -3.6380    3.7960  -26.6100 C   0  0  0  0  0  0
    5.9070    2.8550  -21.0490 C   0  0  0  0  0  0
    5.8470    2.9520  -23.6030 C   0  0  0  0  0  0
   -4.6640    3.9510  -25.7800 C   0  0  0  0  0  0
    2.0840    3.6200  -23.7420 C   0  0  0  0  0  0
    1.2910    4.7600  -23.4870 C   0  0  0  0  0  0
    3.1060    5.9110  -22.7770 C   0  0  0  0  0  0
    3.4800    3.7720  -23.3910 C   0  0  0  0  0  0
    1.5210    2.5080  -24.3980 C   0  0  0  0  0  0
   -0.5810    3.3910  -24.3650 C   0  0  0  0  0  0
   -0.0330    4.6050  -23.7730 C   0  0  0  0  0  0
   -2.0230    3.4360  -24.7620 C   0  0  0  0  0  0
    3.9960    1.2620  -23.0360 C   0  0  0  0  0  0
    4.8840    0.8990  -21.8560 C   0  0  2  0  0  0
    6.5410    2.3780  -22.3740 C   0  0  2  0  0  0
    4.8650    1.9230  -20.7080 C   0  0  0  0  0  0
   -2.3020    3.5780  -26.2020 C   0  0  0  0  0  0
   -1.7090    2.8800  -21.7960 C   0  0  0  0  0  0
   -0.7050    2.5090  -21.2540 C   0  0  0  0  0  0
   -0.8500    5.6830  -23.4730 F   0  0  0  0  0  0
   -3.9270    3.2680  -20.3380 F   0  0  0  0  0  0
    1.7900    5.9130  -22.9630 N   0  0  0  0  0  0
    3.9770    4.9160  -22.9530 N   0  0  0  0  0  0
    0.2220    2.4540  -24.7400 N   0  0  0  0  0  0
    4.3680    2.6920  -23.5220 N   0  0  0  0  0  0
    6.3060    0.9120  -22.2980 N   0  0  1  0  0  0
   -3.7700    3.7900  -28.0040 O   0  0  0  0  0  0
   -6.1290    3.8784  -21.4094 H   0  0  0  0  0  0
   -6.5280    4.1677  -23.8181 H   0  0  0  0  0  0
    5.4719    3.8554  -21.1903 H   0  0  0  0  0  0
    6.6706    2.8550  -20.2572 H   0  0  0  0  0  0
    6.2529    2.4775  -24.5086 H   0  0  0  0  0  0
    6.0255    4.0363  -23.6524 H   0  0  0  0  0  0
   -5.6579    4.1608  -26.1585 H   0  0  0  0  0  0
    2.1404    1.6537  -24.6460 H   0  0  0  0  0  0
    2.9424    1.2459  -22.7201 H   0  0  0  0  0  0
    4.1595    0.5433  -23.8526 H   0  0  0  0  0  0
    4.6166   -0.0979  -21.4756 H   0  0  0  0  0  0
    7.6182    2.6001  -22.3942 H   0  0  0  0  0  0
    3.8972    2.4458  -20.7030 H   0  0  0  0  0  0
    5.1215    1.4182  -19.7649 H   0  0  0  0  0  0
   -1.5114    3.5198  -26.9414 H   0  0  0  0  0  0
    0.1786    2.1832  -20.7762 H   0  0  0  0  0  0
    6.9166    0.4083  -21.5633 H   0  0  0  0  0  0
   -2.9169    3.6664  -28.4034 H   0  0  0  0  0  0
    6.1320    9.3450  -22.4030 N   0  3  0  0  0  0
    7.0660   10.4380  -22.0630 C   0  0  0  0  0  0
    7.5020    9.1780  -22.9310 C   0  0  0  0  0  0
    5.6940    8.4590  -21.2710 C   0  0  0  0  0  0
    5.1290    7.1140  -21.7650 C   0  0  0  0  0  0
    3.6950    7.2400  -22.3170 C   0  0  0  0  0  0
    5.4243    9.5699  -23.0847 H   0  0  0  0  0  0
    7.3861   10.0659  -21.0786 H   0  0  0  0  0  0
    6.8170   11.1169  -22.8919 H   0  0  0  0  0  0
    7.3379    9.6121  -23.9283 H   0  0  0  0  0  0
    7.9069    8.5611  -22.1152 H   0  0  0  0  0  0
    4.9307    8.9792  -20.6737 H   0  0  0  0  0  0
    6.5463    8.2739  -20.6007 H   0  0  0  0  0  0
    5.1400    6.3873  -20.9393 H   0  0  0  0  0  0
    5.7872    6.7059  -22.5462 H   0  0  0  0  0  0
    3.6880    7.9517  -23.1557 H   0  0  0  0  0  0
    3.0446    7.6813  -21.5475 H   0  0  0  0  0  0
  1  2  2  0  0  0
  1  3  1  0  0  0
  1 34  1  0  0  0
  2  6  1  0  0  0
  2 35  1  0  0  0
  3  5  2  0  0  0
  3 27  1  0  0  0
  4  5  1  0  0  0
  4  6  2  0  0  0
  4 18  1  0  0  0
  5 24  1  0  0  0
  6 10  1  0  0  0
  7 10  2  0  0  0
  7 23  1  0  0  0
  7 33  1  0  0  0
  8 21  1  0  0  0
  8 22  1  0  0  0
  8 36  1  0  0  0
  8 37  1  0  0  0
  9 21  1  0  0  0
  9 31  1  0  0  0
  9 38  1  0  0  0
  9 39  1  0  0  0
 10 40  1  0  0  0
 11 12  1  0  0  0
 11 14  2  0  0  0
 11 15  1  0  0  0
 12 17  1  0  0  0
 12 28  2  0  0  0
 13 28  1  0  0  0
 13 29  2  0  0  0
 13 57  1  0  0  0
 14 29  1  0  0  0
 14 31  1  0  0  0
 15 30  2  0  0  0
 15 41  1  0  0  0
 16 17  2  0  0  0
 16 18  1  0  0  0
 16 30  1  0  0  0
 17 26  1  0  0  0
 18 23  2  0  0  0
 19 20  1  0  0  0
 19 31  1  0  0  0
 19 42  1  0  0  0
 19 43  1  0  0  0
 20 22  1  0  0  0
 20 32  1  0  0  0
 20 44  1  0  0  0
 21 32  1  0  0  0
 21 45  1  0  0  0
 22 46  1  0  0  0
 22 47  1  0  0  0
 23 48  1  0  0  0
 24 25  3  0  0  0
 25 49  1  0  0  0
 32 50  1  0  0  0
 33 51  1  0  0  0
 52 53  1  0  0  0
 52 54  1  0  0  0
 52 55  1  0  0  0
 52 58  1  0  0  0
 53 54  1  0  0  0
 53 59  1  0  0  0
 53 60  1  0  0  0
 54 61  1  0  0  0
 54 62  1  0  0  0
 55 56  1  0  0  0
 55 63  1  0  0  0
 55 64  1  0  0  0
 56 57  1  0  0  0
 56 65  1  0  0  0
 56 66  1  0  0  0
 57 67  1  0  0  0
 57 68  1  0  0  0
M  CHG  1  52   1
M  END
> <s_m_entry_id>
874

> <s_m_entry_name>
000000716.1

> <s_m_Source_Path>
/Users/zaksoul/Documents/3r_UNI/2nd_SEMESTER/BSC/FRAG_RECON/RESULTS/2

> <s_m_Source_File>
000000716.mol2

> <i_m_Source_File_Index>
1

$$$$
No_0_738
                    3D
 Schrodinger Suite 2022-4.
 68 74  0  0  1  0            999 V2000
   -5.3030    3.4100  -21.8680 C   0  0  0  0  0  0
   -5.5640    3.5900  -23.2050 C   0  0  0  0  0  0
   -4.0650    3.1660  -21.5200 C   0  0  0  0  0  0
   -3.1650    3.2880  -23.6820 C   0  0  0  0  0  0
   -3.0090    3.0520  -22.2600 C   0  0  0  0  0  0
   -4.5110    3.5390  -24.2110 C   0  0  0  0  0  0
   -3.7460    3.5560  -26.4050 C   0  0  0  0  0  0
    5.9630    2.9110  -21.0920 C   0  0  0  0  0  0
    5.8350    3.0400  -23.6430 C   0  0  0  0  0  0
   -4.7570    3.6590  -25.5480 C   0  0  0  0  0  0
    2.0470    3.5630  -23.6800 C   0  0  0  0  0  0
    1.2180    4.6670  -23.3900 C   0  0  0  0  0  0
    3.0050    5.8780  -22.7070 C   0  0  0  0  0  0
    3.4450    3.7650  -23.3610 C   0  0  0  0  0  0
    1.5110    2.4390  -24.3380 C   0  0  0  0  0  0
   -0.6220    3.2390  -24.2410 C   0  0  0  0  0  0
   -0.1060    4.4660  -23.6460 C   0  0  0  0  0  0
   -2.0730    3.2340  -24.6020 C   0  0  0  0  0  0
    4.0660    1.2720  -23.0550 C   0  0  0  0  0  0
    4.9960    0.9280  -21.9020 C   0  0  2  0  0  0
    6.5810    2.4770  -22.4390 C   0  0  2  0  0  0
    4.9660    1.9350  -20.7400 C   0  0  0  0  0  0
   -2.3930    3.3840  -26.0330 C   0  0  0  0  0  0
   -1.6640    2.6500  -21.6530 C   0  0  0  0  0  0
   -0.6340    2.3120  -21.1410 C   0  0  0  0  0  0
   -0.9560    5.5070  -23.3100 F   0  0  0  0  0  0
   -3.8590    2.9320  -20.1360 F   0  0  0  0  0  0
    1.6840    5.8320  -22.8620 N   0  0  0  0  0  0
    3.9080    4.9210  -22.9190 N   0  0  0  0  0  0
    0.2070    2.3400  -24.6490 N   0  0  0  0  0  0
    4.3710    2.7220  -23.5290 N   0  0  0  0  0  0
    6.4050    1.0020  -22.3790 N   0  0  1  0  0  0
   -3.9130    3.5630  -27.7960 O   0  0  0  0  0  0
   -6.1088    3.4712  -21.1455 H   0  0  0  0  0  0
   -6.5782    3.7766  -23.5391 H   0  0  0  0  0  0
    5.4864    3.8955  -21.2091 H   0  0  0  0  0  0
    6.7457    2.9302  -20.3194 H   0  0  0  0  0  0
    6.2368    2.5938  -24.5647 H   0  0  0  0  0  0
    5.9712    4.1309  -23.6803 H   0  0  0  0  0  0
   -5.7672    3.8356  -25.8991 H   0  0  0  0  0  0
    2.1572    1.6132  -24.6129 H   0  0  0  0  0  0
    3.0220    1.2105  -22.7141 H   0  0  0  0  0  0
    4.2366    0.5715  -23.8858 H   0  0  0  0  0  0
    4.7770   -0.0840  -21.5307 H   0  0  0  0  0  0
    7.6482    2.7403  -22.4824 H   0  0  0  0  0  0
    3.9791    2.4194  -20.7037 H   0  0  0  0  0  0
    5.2656    1.4277  -19.8111 H   0  0  0  0  0  0
   -1.6196    3.3659  -26.7923 H   0  0  0  0  0  0
    0.2731    2.0140  -20.6899 H   0  0  0  0  0  0
    7.0522    0.5121  -21.6666 H   0  0  0  0  0  0
   -3.0659    3.4779  -28.2176 H   0  0  0  0  0  0
    5.6580    9.6260  -22.6580 N   0  3  0  0  0  0
    6.5320   10.7940  -22.4220 C   0  0  0  0  0  0
    6.8570    9.6890  -23.5200 C   0  0  0  0  0  0
    5.6190    8.5870  -21.5720 C   0  0  0  0  0  0
    5.0860    7.2330  -22.0770 C   0  0  0  0  0  0
    3.5530    7.2230  -22.2430 C   0  0  0  0  0  0
    4.7794    9.8201  -23.1123 H   0  0  0  0  0  0
    7.1310   10.3750  -21.6000 H   0  0  0  0  0  0
    6.0101   11.5109  -23.0729 H   0  0  0  0  0  0
    6.3980   10.1920  -24.3839 H   0  0  0  0  0  0
    7.5184    9.0556  -22.9106 H   0  0  0  0  0  0
    4.9850    8.9440  -20.7470 H   0  0  0  0  0  0
    6.6293    8.4510  -21.1589 H   0  0  0  0  0  0
    5.3830    6.4390  -21.3760 H   0  0  0  0  0  0
    5.5590    6.9900  -23.0399 H   0  0  0  0  0  0
    3.2581    8.0046  -22.9586 H   0  0  0  0  0  0
    3.0810    7.5010  -21.2891 H   0  0  0  0  0  0
  1  2  2  0  0  0
  1  3  1  0  0  0
  1 34  1  0  0  0
  2  6  1  0  0  0
  2 35  1  0  0  0
  3  5  2  0  0  0
  3 27  1  0  0  0
  4  5  1  0  0  0
  4  6  2  0  0  0
  4 18  1  0  0  0
  5 24  1  0  0  0
  6 10  1  0  0  0
  7 10  2  0  0  0
  7 23  1  0  0  0
  7 33  1  0  0  0
  8 21  1  0  0  0
  8 22  1  0  0  0
  8 36  1  0  0  0
  8 37  1  0  0  0
  9 21  1  0  0  0
  9 31  1  0  0  0
  9 38  1  0  0  0
  9 39  1  0  0  0
 10 40  1  0  0  0
 11 12  1  0  0  0
 11 14  2  0  0  0
 11 15  1  0  0  0
 12 17  1  0  0  0
 12 28  2  0  0  0
 13 28  1  0  0  0
 13 29  2  0  0  0
 13 57  1  0  0  0
 14 29  1  0  0  0
 14 31  1  0  0  0
 15 30  2  0  0  0
 15 41  1  0  0  0
 16 17  2  0  0  0
 16 18  1  0  0  0
 16 30  1  0  0  0
 17 26  1  0  0  0
 18 23  2  0  0  0
 19 20  1  0  0  0
 19 31  1  0  0  0
 19 42  1  0  0  0
 19 43  1  0  0  0
 20 22  1  0  0  0
 20 32  1  0  0  0
 20 44  1  0  0  0
 21 32  1  0  0  0
 21 45  1  0  0  0
 22 46  1  0  0  0
 22 47  1  0  0  0
 23 48  1  0  0  0
 24 25  3  0  0  0
 25 49  1  0  0  0
 32 50  1  0  0  0
 33 51  1  0  0  0
 52 53  1  0  0  0
 52 54  1  0  0  0
 52 55  1  0  0  0
 52 58  1  0  0  0
 53 54  1  0  0  0
 53 59  1  0  0  0
 53 60  1  0  0  0
 54 61  1  0  0  0
 54 62  1  0  0  0
 55 56  1  0  0  0
 55 63  1  0  0  0
 55 64  1  0  0  0
 56 57  1  0  0  0
 56 65  1  0  0  0
 56 66  1  0  0  0
 57 67  1  0  0  0
 57 68  1  0  0  0
M  CHG  1  52   1
M  END
> <s_m_entry_id>
875

> <s_m_entry_name>
000000717.1

> <s_m_Source_Path>
/Users/zaksoul/Documents/3r_UNI/2nd_SEMESTER/BSC/FRAG_RECON/RESULTS/2

> <s_m_Source_File>
000000717.mol2

> <i_m_Source_File_Index>
1

$$$$
No_0_739
                    3D
 Schrodinger Suite 2022-4.
 68 74  0  0  1  0            999 V2000
   -5.3370    3.5850  -22.1320 C   0  0  0  0  0  0
   -5.5630    3.7600  -23.4770 C   0  0  0  0  0  0
   -4.1110    3.3310  -21.7510 C   0  0  0  0  0  0
   -3.1560    3.4280  -23.8910 C   0  0  0  0  0  0
   -3.0380    3.1990  -22.4640 C   0  0  0  0  0  0
   -4.4860    3.6900  -24.4550 C   0  0  0  0  0  0
   -3.6660    3.6830  -26.6300 C   0  0  0  0  0  0
    5.9000    2.9670  -21.0710 C   0  0  0  0  0  0
    5.8370    3.0810  -23.6240 C   0  0  0  0  0  0
   -4.6970    3.8030  -25.7980 C   0  0  0  0  0  0
    2.0570    3.6450  -23.7600 C   0  0  0  0  0  0
    1.2330    4.7600  -23.4980 C   0  0  0  0  0  0
    3.0160    5.9560  -22.7790 C   0  0  0  0  0  0
    3.4490    3.8330  -23.4080 C   0  0  0  0  0  0
    1.5250    2.5230  -24.4240 C   0  0  0  0  0  0
   -0.6000    3.3470  -24.3860 C   0  0  0  0  0  0
   -0.0860    4.5710  -23.7860 C   0  0  0  0  0  0
   -2.0420    3.3550  -24.7830 C   0  0  0  0  0  0
    4.0340    1.3360  -23.0690 C   0  0  0  0  0  0
    4.9310    0.9900  -21.8920 C   0  0  2  0  0  0
    6.5470    2.5170  -22.3990 C   0  0  2  0  0  0
    4.8840    2.0050  -20.7370 C   0  0  0  0  0  0
   -2.3250    3.4990  -26.2220 C   0  0  0  0  0  0
   -1.7140    2.7870  -21.8210 C   0  0  0  0  0  0
   -0.7000    2.4410  -21.2810 C   0  0  0  0  0  0
   -0.9320    5.6240  -23.4780 F   0  0  0  0  0  0
   -3.9430    3.1030  -20.3610 F   0  0  0  0  0  0
    1.7000    5.9230  -22.9660 N   0  0  0  0  0  0
    3.9140    4.9870  -22.9620 N   0  0  0  0  0  0
    0.2280    2.4350  -24.7670 N   0  0  0  0  0  0
    4.3670    2.7790  -23.5460 N   0  0  0  0  0  0
    6.3520    1.0450  -22.3330 N   0  0  1  0  0  0
   -3.7980    3.6820  -28.0240 O   0  0  0  0  0  0
   -6.1595    3.6602  -21.4299 H   0  0  0  0  0  0
   -6.5667    3.9547  -23.8373 H   0  0  0  0  0  0
    5.4369    3.9557  -21.2052 H   0  0  0  0  0  0
    6.6630    2.9831  -20.2788 H   0  0  0  0  0  0
    6.2565    2.6242  -24.5325 H   0  0  0  0  0  0
    5.9864    4.1700  -23.6654 H   0  0  0  0  0  0
   -5.6957    3.9887  -26.1764 H   0  0  0  0  0  0
    2.1682    1.6882  -24.6779 H   0  0  0  0  0  0
    2.9810    1.2886  -22.7543 H   0  0  0  0  0  0
    4.2167    0.6276  -23.8904 H   0  0  0  0  0  0
    4.6919   -0.0167  -21.5188 H   0  0  0  0  0  0
    7.6175    2.7695  -22.4172 H   0  0  0  0  0  0
    3.9020    2.5005  -20.7279 H   0  0  0  0  0  0
    5.1544    1.5005  -19.7976 H   0  0  0  0  0  0
   -1.5332    3.4669  -26.9616 H   0  0  0  0  0  0
    0.1919    2.1360  -20.8050 H   0  0  0  0  0  0
    6.9761    0.5524  -21.6021 H   0  0  0  0  0  0
   -2.9415    3.5861  -28.4236 H   0  0  0  0  0  0
    5.3960    9.8820  -22.9110 N   0  3  0  0  0  0
    6.2280   11.0910  -22.7470 C   0  0  0  0  0  0
    6.3840   10.1060  -23.9870 C   0  0  0  0  0  0
    5.6430    8.7600  -21.9430 C   0  0  0  0  0  0
    5.0990    7.4130  -22.4550 C   0  0  0  0  0  0
    3.5680    7.2980  -22.3100 C   0  0  0  0  0  0
    4.4325   10.0429  -23.1599 H   0  0  0  0  0  0
    7.0076   10.6557  -22.1045 H   0  0  0  0  0  0
    5.5411   11.8148  -23.2099 H   0  0  0  0  0  0
    5.7270   10.6390  -24.6900 H   0  0  0  0  0  0
    7.1937    9.4795  -23.5847 H   0  0  0  0  0  0
    5.1741    8.9999  -20.9773 H   0  0  0  0  0  0
    6.7231    8.6700  -21.7550 H   0  0  0  0  0  0
    5.5811    6.5908  -21.9059 H   0  0  0  0  0  0
    5.3760    7.2850  -23.5118 H   0  0  0  0  0  0
    3.0850    8.1089  -22.8749 H   0  0  0  0  0  0
    3.2870    7.4610  -21.2591 H   0  0  0  0  0  0
  1  2  2  0  0  0
  1  3  1  0  0  0
  1 34  1  0  0  0
  2  6  1  0  0  0
  2 35  1  0  0  0
  3  5  2  0  0  0
  3 27  1  0  0  0
  4  5  1  0  0  0
  4  6  2  0  0  0
  4 18  1  0  0  0
  5 24  1  0  0  0
  6 10  1  0  0  0
  7 10  2  0  0  0
  7 23  1  0  0  0
  7 33  1  0  0  0
  8 21  1  0  0  0
  8 22  1  0  0  0
  8 36  1  0  0  0
  8 37  1  0  0  0
  9 21  1  0  0  0
  9 31  1  0  0  0
  9 38  1  0  0  0
  9 39  1  0  0  0
 10 40  1  0  0  0
 11 12  1  0  0  0
 11 14  2  0  0  0
 11 15  1  0  0  0
 12 17  1  0  0  0
 12 28  2  0  0  0
 13 28  1  0  0  0
 13 29  2  0  0  0
 13 57  1  0  0  0
 14 29  1  0  0  0
 14 31  1  0  0  0
 15 30  2  0  0  0
 15 41  1  0  0  0
 16 17  2  0  0  0
 16 18  1  0  0  0
 16 30  1  0  0  0
 17 26  1  0  0  0
 18 23  2  0  0  0
 19 20  1  0  0  0
 19 31  1  0  0  0
 19 42  1  0  0  0
 19 43  1  0  0  0
 20 22  1  0  0  0
 20 32  1  0  0  0
 20 44  1  0  0  0
 21 32  1  0  0  0
 21 45  1  0  0  0
 22 46  1  0  0  0
 22 47  1  0  0  0
 23 48  1  0  0  0
 24 25  3  0  0  0
 25 49  1  0  0  0
 32 50  1  0  0  0
 33 51  1  0  0  0
 52 53  1  0  0  0
 52 54  1  0  0  0
 52 55  1  0  0  0
 52 58  1  0  0  0
 53 54  1  0  0  0
 53 59  1  0  0  0
 53 60  1  0  0  0
 54 61  1  0  0  0
 54 62  1  0  0  0
 55 56  1  0  0  0
 55 63  1  0  0  0
 55 64  1  0  0  0
 56 57  1  0  0  0
 56 65  1  0  0  0
 56 66  1  0  0  0
 57 67  1  0  0  0
 57 68  1  0  0  0
M  CHG  1  52   1
M  END
> <s_m_entry_id>
876

> <s_m_entry_name>
000000718.1

> <s_m_Source_Path>
/Users/zaksoul/Documents/3r_UNI/2nd_SEMESTER/BSC/FRAG_RECON/RESULTS/2

> <s_m_Source_File>
000000718.mol2

> <i_m_Source_File_Index>
1

$$$$
No_0_740
                    3D
 Schrodinger Suite 2022-4.
 68 74  0  0  1  0            999 V2000
   -5.5520    3.3940  -21.9720 C   0  0  0  0  0  0
   -5.7740    3.6180  -23.3100 C   0  0  0  0  0  0
   -4.3290    3.1110  -21.6010 C   0  0  0  0  0  0
   -3.3710    3.2730  -23.7350 C   0  0  0  0  0  0
   -3.2570    2.9920  -22.3170 C   0  0  0  0  0  0
   -4.6970    3.5710  -24.2900 C   0  0  0  0  0  0
   -3.8760    3.6310  -26.4630 C   0  0  0  0  0  0
    5.6760    2.6020  -20.9290 C   0  0  0  0  0  0
    5.6170    2.8070  -23.4780 C   0  0  0  0  0  0
   -4.9060    3.7340  -25.6290 C   0  0  0  0  0  0
    1.8440    3.4220  -23.5950 C   0  0  0  0  0  0
    1.0340    4.5370  -23.2930 C   0  0  0  0  0  0
    2.8300    5.6850  -22.5320 C   0  0  0  0  0  0
    3.2380    3.5810  -23.2350 C   0  0  0  0  0  0
    1.3000    2.3300  -24.2980 C   0  0  0  0  0  0
   -0.8160    3.1780  -24.2320 C   0  0  0  0  0  0
   -0.2870    4.3740  -23.5880 C   0  0  0  0  0  0
   -2.2570    3.2180  -24.6290 C   0  0  0  0  0  0
    3.7920    1.0660  -22.9860 C   0  0  0  0  0  0
    4.6850    0.6670  -21.8210 C   0  0  2  0  0  0
    6.3190    2.1920  -22.2720 C   0  0  2  0  0  0
    4.6480    1.6410  -20.6310 C   0  0  0  0  0  0
   -2.5370    3.4170  -26.0620 C   0  0  0  0  0  0
   -1.9380    2.5410  -21.6890 C   0  0  0  0  0  0
   -0.9300    2.1630  -21.1610 C   0  0  0  0  0  0
   -1.1210    5.4260  -23.2440 F   0  0  0  0  0  0
   -4.1640    2.8320  -20.2190 F   0  0  0  0  0  0
    1.5140    5.6750  -22.7200 N   0  0  0  0  0  0
    3.7170    4.7120  -22.7480 N   0  0  0  0  0  0
    0.0020    2.2710  -24.6450 N   0  0  0  0  0  0
    4.1430    2.5210  -23.4100 N   0  0  0  0  0  0
    6.1060    0.7210  -22.2590 N   0  0  1  0  0  0
   -4.0060    3.6820  -27.8570 O   0  0  0  0  0  0
   -6.3743    3.4542  -21.2682 H   0  0  0  0  0  0
   -6.7747    3.8388  -23.6633 H   0  0  0  0  0  0
    5.2260    3.6008  -21.0289 H   0  0  0  0  0  0
    6.4389    2.5808  -20.1368 H   0  0  0  0  0  0
    6.0320    2.3779  -24.4019 H   0  0  0  0  0  0
    5.7795    3.8949  -23.4800 H   0  0  0  0  0  0
   -5.9022    3.9449  -26.0006 H   0  0  0  0  0  0
    1.9333    1.4970  -24.5810 H   0  0  0  0  0  0
    2.7384    1.0196  -22.6732 H   0  0  0  0  0  0
    3.9677    0.3854  -23.8322 H   0  0  0  0  0  0
    4.4327   -0.3492  -21.4839 H   0  0  0  0  0  0
    7.3926    2.4314  -22.2811 H   0  0  0  0  0  0
    3.6720    2.1477  -20.6048 H   0  0  0  0  0  0
    4.9113    1.1003  -19.7100 H   0  0  0  0  0  0
   -1.7449    3.4019  -26.8019 H   0  0  0  0  0  0
   -0.0417    1.8312  -20.6963 H   0  0  0  0  0  0
    6.7238    0.1951  -21.5461 H   0  0  0  0  0  0
   -3.1503    3.5889  -28.2591 H   0  0  0  0  0  0
    4.8100    9.8270  -22.6520 N   0  3  0  0  0  0
    5.5710   11.0850  -22.5200 C   0  0  0  0  0  0
    5.4460   10.3010  -23.8990 C   0  0  0  0  0  0
    5.3900    8.6170  -21.9750 C   0  0  0  0  0  0
    4.8180    7.3010  -22.5360 C   0  0  0  0  0  0
    3.3980    7.0030  -22.0150 C   0  0  0  0  0  0
    3.8067    9.9150  -22.6100 H   0  0  0  0  0  0
    6.5255   10.6542  -22.1832 H   0  0  0  0  0  0
    4.7368   11.7872  -22.6650 H   0  0  0  0  0  0
    4.5867   10.8502  -24.3112 H   0  0  0  0  0  0
    6.3757    9.7172  -23.8290 H   0  0  0  0  0  0
    5.1899    8.6710  -20.8947 H   0  0  0  0  0  0
    6.4836    8.6200  -22.0931 H   0  0  0  0  0  0
    5.4875    6.4694  -22.2708 H   0  0  0  0  0  0
    4.8020    7.3490  -23.6348 H   0  0  0  0  0  0
    2.7249    7.8261  -22.2970 H   0  0  0  0  0  0
    3.4070    6.9900  -20.9151 H   0  0  0  0  0  0
  1  2  2  0  0  0
  1  3  1  0  0  0
  1 34  1  0  0  0
  2  6  1  0  0  0
  2 35  1  0  0  0
  3  5  2  0  0  0
  3 27  1  0  0  0
  4  5  1  0  0  0
  4  6  2  0  0  0
  4 18  1  0  0  0
  5 24  1  0  0  0
  6 10  1  0  0  0
  7 10  2  0  0  0
  7 23  1  0  0  0
  7 33  1  0  0  0
  8 21  1  0  0  0
  8 22  1  0  0  0
  8 36  1  0  0  0
  8 37  1  0  0  0
  9 21  1  0  0  0
  9 31  1  0  0  0
  9 38  1  0  0  0
  9 39  1  0  0  0
 10 40  1  0  0  0
 11 12  1  0  0  0
 11 14  2  0  0  0
 11 15  1  0  0  0
 12 17  1  0  0  0
 12 28  2  0  0  0
 13 28  1  0  0  0
 13 29  2  0  0  0
 13 57  1  0  0  0
 14 29  1  0  0  0
 14 31  1  0  0  0
 15 30  2  0  0  0
 15 41  1  0  0  0
 16 17  2  0  0  0
 16 18  1  0  0  0
 16 30  1  0  0  0
 17 26  1  0  0  0
 18 23  2  0  0  0
 19 20  1  0  0  0
 19 31  1  0  0  0
 19 42  1  0  0  0
 19 43  1  0  0  0
 20 22  1  0  0  0
 20 32  1  0  0  0
 20 44  1  0  0  0
 21 32  1  0  0  0
 21 45  1  0  0  0
 22 46  1  0  0  0
 22 47  1  0  0  0
 23 48  1  0  0  0
 24 25  3  0  0  0
 25 49  1  0  0  0
 32 50  1  0  0  0
 33 51  1  0  0  0
 52 53  1  0  0  0
 52 54  1  0  0  0
 52 55  1  0  0  0
 52 58  1  0  0  0
 53 54  1  0  0  0
 53 59  1  0  0  0
 53 60  1  0  0  0
 54 61  1  0  0  0
 54 62  1  0  0  0
 55 56  1  0  0  0
 55 63  1  0  0  0
 55 64  1  0  0  0
 56 57  1  0  0  0
 56 65  1  0  0  0
 56 66  1  0  0  0
 57 67  1  0  0  0
 57 68  1  0  0  0
M  CHG  1  52   1
M  END
> <s_m_entry_id>
877

> <s_m_entry_name>
000000719.1

> <s_m_Source_Path>
/Users/zaksoul/Documents/3r_UNI/2nd_SEMESTER/BSC/FRAG_RECON/RESULTS/2

> <s_m_Source_File>
000000719.mol2

> <i_m_Source_File_Index>
1

$$$$
No_0_741
                    3D
 Schrodinger Suite 2022-4.
 68 74  0  0  1  0            999 V2000
   -5.4180    3.6150  -21.6220 C   0  0  0  0  0  0
   -5.6890    3.8350  -22.9520 C   0  0  0  0  0  0
   -4.1800    3.3450  -21.2920 C   0  0  0  0  0  0
   -3.2980    3.5120  -23.4590 C   0  0  0  0  0  0
   -3.1320    3.2360  -22.0450 C   0  0  0  0  0  0
   -4.6450    3.7960  -23.9680 C   0  0  0  0  0  0
   -3.9000    3.8610  -26.1680 C   0  0  0  0  0  0
    5.8470    2.9400  -20.9650 C   0  0  0  0  0  0
    5.6980    3.1390  -23.5100 C   0  0  0  0  0  0
   -4.9020    3.9550  -25.2990 C   0  0  0  0  0  0
    1.9170    3.7150  -23.4980 C   0  0  0  0  0  0
    1.1060    4.8230  -23.1710 C   0  0  0  0  0  0
    2.9160    5.9900  -22.4730 C   0  0  0  0  0  0
    3.3200    3.8890  -23.1870 C   0  0  0  0  0  0
    1.3600    2.6170  -24.1810 C   0  0  0  0  0  0
   -0.7610    3.4430  -24.0430 C   0  0  0  0  0  0
   -0.2220    4.6460  -23.4200 C   0  0  0  0  0  0
   -2.2150    3.4680  -24.3910 C   0  0  0  0  0  0
    3.9090    1.3810  -22.9530 C   0  0  0  0  0  0
    4.8450    0.9930  -21.8190 C   0  0  2  0  0  0
    6.4470    2.5330  -22.3290 C   0  0  2  0  0  0
    4.8400    1.9680  -20.6300 C   0  0  0  0  0  0
   -2.5460    3.6610  -25.8130 C   0  0  0  0  0  0
   -1.7880    2.7990  -21.4620 C   0  0  0  0  0  0
   -0.7580    2.4330  -20.9680 C   0  0  0  0  0  0
   -1.0550    5.6890  -23.0490 F   0  0  0  0  0  0
   -3.9650    3.0710  -19.9170 F   0  0  0  0  0  0
    1.5940    5.9660  -22.6160 N   0  0  0  0  0  0
    3.8040    5.0260  -22.7190 N   0  0  0  0  0  0
    0.0510    2.5440  -24.4820 N   0  0  0  0  0  0
    4.2300    2.8380  -23.3920 N   0  0  0  0  0  0
    6.2500    1.0600  -22.3060 N   0  0  1  0  0  0
   -4.0790    3.9070  -27.5570 O   0  0  0  0  0  0
   -6.2160    3.6672  -20.8902 H   0  0  0  0  0  0
   -6.7036    4.0439  -23.2714 H   0  0  0  0  0  0
    5.3826    3.9335  -21.0508 H   0  0  0  0  0  0
    6.6368    2.9279  -20.1994 H   0  0  0  0  0  0
    6.0844    2.7122  -24.4473 H   0  0  0  0  0  0
    5.8483    4.2286  -23.5201 H   0  0  0  0  0  0
   -5.9127    4.1547  -25.6362 H   0  0  0  0  0  0
    1.9915    1.7897  -24.4842 H   0  0  0  0  0  0
    2.8674    1.3245  -22.6038 H   0  0  0  0  0  0
    4.0623    0.7002  -23.8033 H   0  0  0  0  0  0
    4.6149   -0.0251  -21.4719 H   0  0  0  0  0  0
    7.5171    2.7834  -22.3754 H   0  0  0  0  0  0
    3.8606    2.4653  -20.5715 H   0  0  0  0  0  0
    5.1398    1.4320  -19.7174 H   0  0  0  0  0  0
   -1.7800    3.6520  -26.5800 H   0  0  0  0  0  0
    0.1492    2.1109  -20.5339 H   0  0  0  0  0  0
    6.8973    0.5421  -21.6137 H   0  0  0  0  0  0
   -3.2368    3.8229  -27.9885 H   0  0  0  0  0  0
    4.5250   10.2880  -22.6580 N   0  3  0  0  0  0
    5.2060   11.5960  -22.5840 C   0  0  0  0  0  0
    4.8400   10.8980  -23.9660 C   0  0  0  0  0  0
    5.3210    9.0900  -22.2230 C   0  0  0  0  0  0
    4.7360    7.7700  -22.7600 C   0  0  0  0  0  0
    3.4870    7.3140  -21.9780 C   0  0  0  0  0  0
    3.5509   10.2850  -22.3990 H   0  0  0  0  0  0
    6.2385   11.2278  -22.4930 H   0  0  0  0  0  0
    4.3120   12.2300  -22.4900 H   0  0  0  0  0  0
    3.8752   11.3969  -24.1400 H   0  0  0  0  0  0
    5.8017   10.3942  -24.1429 H   0  0  0  0  0  0
    5.3570    9.0540  -21.1242 H   0  0  0  0  0  0
    6.3601    9.1960  -22.5680 H   0  0  0  0  0  0
    5.5041    6.9839  -22.7130 H   0  0  0  0  0  0
    4.4788    7.8901  -23.8228 H   0  0  0  0  0  0
    2.7130    8.0930  -22.0420 H   0  0  0  0  0  0
    3.7360    7.2280  -20.9100 H   0  0  0  0  0  0
  1  2  2  0  0  0
  1  3  1  0  0  0
  1 34  1  0  0  0
  2  6  1  0  0  0
  2 35  1  0  0  0
  3  5  2  0  0  0
  3 27  1  0  0  0
  4  5  1  0  0  0
  4  6  2  0  0  0
  4 18  1  0  0  0
  5 24  1  0  0  0
  6 10  1  0  0  0
  7 10  2  0  0  0
  7 23  1  0  0  0
  7 33  1  0  0  0
  8 21  1  0  0  0
  8 22  1  0  0  0
  8 36  1  0  0  0
  8 37  1  0  0  0
  9 21  1  0  0  0
  9 31  1  0  0  0
  9 38  1  0  0  0
  9 39  1  0  0  0
 10 40  1  0  0  0
 11 12  1  0  0  0
 11 14  2  0  0  0
 11 15  1  0  0  0
 12 17  1  0  0  0
 12 28  2  0  0  0
 13 28  1  0  0  0
 13 29  2  0  0  0
 13 57  1  0  0  0
 14 29  1  0  0  0
 14 31  1  0  0  0
 15 30  2  0  0  0
 15 41  1  0  0  0
 16 17  2  0  0  0
 16 18  1  0  0  0
 16 30  1  0  0  0
 17 26  1  0  0  0
 18 23  2  0  0  0
 19 20  1  0  0  0
 19 31  1  0  0  0
 19 42  1  0  0  0
 19 43  1  0  0  0
 20 22  1  0  0  0
 20 32  1  0  0  0
 20 44  1  0  0  0
 21 32  1  0  0  0
 21 45  1  0  0  0
 22 46  1  0  0  0
 22 47  1  0  0  0
 23 48  1  0  0  0
 24 25  3  0  0  0
 25 49  1  0  0  0
 32 50  1  0  0  0
 33 51  1  0  0  0
 52 53  1  0  0  0
 52 54  1  0  0  0
 52 55  1  0  0  0
 52 58  1  0  0  0
 53 54  1  0  0  0
 53 59  1  0  0  0
 53 60  1  0  0  0
 54 61  1  0  0  0
 54 62  1  0  0  0
 55 56  1  0  0  0
 55 63  1  0  0  0
 55 64  1  0  0  0
 56 57  1  0  0  0
 56 65  1  0  0  0
 56 66  1  0  0  0
 57 67  1  0  0  0
 57 68  1  0  0  0
M  CHG  1  52   1
M  END
> <s_m_entry_id>
878

> <s_m_entry_name>
000000720.1

> <s_m_Source_Path>
/Users/zaksoul/Documents/3r_UNI/2nd_SEMESTER/BSC/FRAG_RECON/RESULTS/2

> <s_m_Source_File>
000000720.mol2

> <i_m_Source_File_Index>
1

$$$$
No_0_742
                    3D
 Schrodinger Suite 2022-4.
 68 74  0  0  1  0            999 V2000
   -5.3670    3.6860  -21.5880 C   0  0  0  0  0  0
   -5.6350    3.9500  -22.9100 C   0  0  0  0  0  0
   -4.1300    3.3990  -21.2670 C   0  0  0  0  0  0
   -3.2460    3.6330  -23.4260 C   0  0  0  0  0  0
   -3.0830    3.3090  -22.0220 C   0  0  0  0  0  0
   -4.5920    3.9400  -23.9260 C   0  0  0  0  0  0
   -3.8440    4.0720  -26.1230 C   0  0  0  0  0  0
    5.8940    2.9330  -20.9480 C   0  0  0  0  0  0
    5.7480    3.2160  -23.4850 C   0  0  0  0  0  0
   -4.8460    4.1430  -25.2520 C   0  0  0  0  0  0
    1.9700    3.8100  -23.4560 C   0  0  0  0  0  0
    1.1640    4.9110  -23.0930 C   0  0  0  0  0  0
    2.9800    6.0460  -22.3570 C   0  0  0  0  0  0
    3.3740    3.9670  -23.1390 C   0  0  0  0  0  0
    1.4080    2.7380  -24.1750 C   0  0  0  0  0  0
   -0.7090    3.5700  -24.0110 C   0  0  0  0  0  0
   -0.1650    4.7490  -23.3490 C   0  0  0  0  0  0
   -2.1630    3.6130  -24.3580 C   0  0  0  0  0  0
    3.9500    1.4490  -22.9860 C   0  0  0  0  0  0
    4.8830    1.0200  -21.8650 C   0  0  2  0  0  0
    6.4930    2.5680  -22.3240 C   0  0  2  0  0  0
    4.8820    1.9560  -20.6450 C   0  0  0  0  0  0
   -2.4920    3.8540  -25.7740 C   0  0  0  0  0  0
   -1.7410    2.8470  -21.4530 C   0  0  0  0  0  0
   -0.7130    2.4600  -20.9710 C   0  0  0  0  0  0
   -0.9920    5.7840  -22.9440 F   0  0  0  0  0  0
   -3.9180    3.0790  -19.9010 F   0  0  0  0  0  0
    1.6580    6.0330  -22.5010 N   0  0  0  0  0  0
    3.8630    5.0850  -22.6330 N   0  0  0  0  0  0
    0.0990    2.6810  -24.4790 N   0  0  0  0  0  0
    4.2780    2.9190  -23.3770 N   0  0  0  0  0  0
    6.2890    1.0960  -22.3490 N   0  0  1  0  0  0
   -4.0220    4.1650  -27.5090 O   0  0  0  0  0  0
   -6.1651    3.7191  -20.8552 H   0  0  0  0  0  0
   -6.6480    4.1757  -23.2229 H   0  0  0  0  0  0
    5.4348    3.9311  -21.0015 H   0  0  0  0  0  0
    6.6828    2.8916  -20.1824 H   0  0  0  0  0  0
    6.1333    2.8176  -24.4352 H   0  0  0  0  0  0
    5.9044    4.3045  -23.4588 H   0  0  0  0  0  0
   -5.8554    4.3587  -25.5831 H   0  0  0  0  0  0
    2.0355    1.9177  -24.5043 H   0  0  0  0  0  0
    2.9077    1.3864  -22.6399 H   0  0  0  0  0  0
    4.1003    0.7963  -23.8586 H   0  0  0  0  0  0
    4.6478   -0.0077  -21.5510 H   0  0  0  0  0  0
    7.5645    2.8142  -22.3603 H   0  0  0  0  0  0
    3.9047    2.4553  -20.5704 H   0  0  0  0  0  0
    5.1788    1.3886  -19.7506 H   0  0  0  0  0  0
   -1.7250    3.8660  -26.5400 H   0  0  0  0  0  0
    0.1920    2.1190  -20.5470 H   0  0  0  0  0  0
    6.9328    0.5527  -21.6731 H   0  0  0  0  0  0
   -3.1800    4.0898  -27.9424 H   0  0  0  0  0  0
    4.2080   10.4700  -22.2880 N   0  3  0  0  0  0
    4.7970   11.8200  -22.1830 C   0  0  0  0  0  0
    4.1750   11.2610  -23.5360 C   0  0  0  0  0  0
    5.1630    9.3120  -22.2070 C   0  0  0  0  0  0
    4.5610    8.0160  -22.7820 C   0  0  0  0  0  0
    3.5570    7.3500  -21.8190 C   0  0  0  0  0  0
    3.3208   10.3420  -21.8269 H   0  0  0  0  0  0
    5.8458   11.5461  -22.3700 H   0  0  0  0  0  0
    3.9074   12.3488  -21.8102 H   0  0  0  0  0  0
    3.1643   11.6809  -23.4260 H   0  0  0  0  0  0
    5.1029   10.8781  -23.9859 H   0  0  0  0  0  0
    5.4500    9.1480  -21.1579 H   0  0  0  0  0  0
    6.0862    9.5601  -22.7511 H   0  0  0  0  0  0
    5.3709    7.3081  -23.0120 H   0  0  0  0  0  0
    4.0608    8.2371  -23.7364 H   0  0  0  0  0  0
    2.7375    8.0515  -21.6039 H   0  0  0  0  0  0
    4.0480    7.1610  -20.8530 H   0  0  0  0  0  0
  1  2  2  0  0  0
  1  3  1  0  0  0
  1 34  1  0  0  0
  2  6  1  0  0  0
  2 35  1  0  0  0
  3  5  2  0  0  0
  3 27  1  0  0  0
  4  5  1  0  0  0
  4  6  2  0  0  0
  4 18  1  0  0  0
  5 24  1  0  0  0
  6 10  1  0  0  0
  7 10  2  0  0  0
  7 23  1  0  0  0
  7 33  1  0  0  0
  8 21  1  0  0  0
  8 22  1  0  0  0
  8 36  1  0  0  0
  8 37  1  0  0  0
  9 21  1  0  0  0
  9 31  1  0  0  0
  9 38  1  0  0  0
  9 39  1  0  0  0
 10 40  1  0  0  0
 11 12  1  0  0  0
 11 14  2  0  0  0
 11 15  1  0  0  0
 12 17  1  0  0  0
 12 28  2  0  0  0
 13 28  1  0  0  0
 13 29  2  0  0  0
 13 57  1  0  0  0
 14 29  1  0  0  0
 14 31  1  0  0  0
 15 30  2  0  0  0
 15 41  1  0  0  0
 16 17  2  0  0  0
 16 18  1  0  0  0
 16 30  1  0  0  0
 17 26  1  0  0  0
 18 23  2  0  0  0
 19 20  1  0  0  0
 19 31  1  0  0  0
 19 42  1  0  0  0
 19 43  1  0  0  0
 20 22  1  0  0  0
 20 32  1  0  0  0
 20 44  1  0  0  0
 21 32  1  0  0  0
 21 45  1  0  0  0
 22 46  1  0  0  0
 22 47  1  0  0  0
 23 48  1  0  0  0
 24 25  3  0  0  0
 25 49  1  0  0  0
 32 50  1  0  0  0
 33 51  1  0  0  0
 52 53  1  0  0  0
 52 54  1  0  0  0
 52 55  1  0  0  0
 52 58  1  0  0  0
 53 54  1  0  0  0
 53 59  1  0  0  0
 53 60  1  0  0  0
 54 61  1  0  0  0
 54 62  1  0  0  0
 55 56  1  0  0  0
 55 63  1  0  0  0
 55 64  1  0  0  0
 56 57  1  0  0  0
 56 65  1  0  0  0
 56 66  1  0  0  0
 57 67  1  0  0  0
 57 68  1  0  0  0
M  CHG  1  52   1
M  END
> <s_m_entry_id>
879

> <s_m_entry_name>
000000721.1

> <s_m_Source_Path>
/Users/zaksoul/Documents/3r_UNI/2nd_SEMESTER/BSC/FRAG_RECON/RESULTS/2

> <s_m_Source_File>
000000721.mol2

> <i_m_Source_File_Index>
1

$$$$
No_0_743
                    3D
 Schrodinger Suite 2022-4.
 54 59  0  0  1  0            999 V2000
   -4.9290    3.7560  -21.5370 C   0  0  0  0  0  0
   -5.2340    3.9570  -22.8620 C   0  0  0  0  0  0
   -3.6880    3.4690  -21.2380 C   0  0  0  0  0  0
   -2.8650    3.5810  -23.4310 C   0  0  0  0  0  0
   -2.6640    3.3260  -22.0180 C   0  0  0  0  0  0
   -4.2210    3.8810  -23.9070 C   0  0  0  0  0  0
   -3.5390    3.8910  -26.1290 C   0  0  0  0  0  0
    6.3350    2.8800  -21.1880 C   0  0  0  0  0  0
    6.1170    3.0370  -23.7310 C   0  0  0  0  0  0
   -4.5130    4.0200  -25.2330 C   0  0  0  0  0  0
    2.3490    3.6840  -23.6230 C   0  0  0  0  0  0
    1.5680    4.8120  -23.2930 C   0  0  0  0  0  0
    3.4190    5.9580  -22.6690 C   0  0  0  0  0  0
    3.7640    3.8370  -23.3550 C   0  0  0  0  0  0
    1.7520    2.5840  -24.2690 C   0  0  0  0  0  0
   -0.3480    3.4530  -24.0860 C   0  0  0  0  0  0
    0.2300    4.6560  -23.5010 C   0  0  0  0  0  0
   -1.8110    3.4980  -24.3920 C   0  0  0  0  0  0
    4.3130    1.3230  -23.0910 C   0  0  0  0  0  0
    5.2740    0.9380  -21.9770 C   0  0  2  0  0  0
    6.8880    2.4380  -22.5610 C   0  0  2  0  0  0
    5.3200    1.9340  -20.8070 C   0  0  0  0  0  0
   -2.1790    3.6720  -25.8080 C   0  0  0  0  0  0
   -1.3120    2.8760  -21.4650 C   0  0  0  0  0  0
   -0.2750    2.4990  -20.9940 C   0  0  0  0  0  0
   -0.5720    5.7220  -23.1250 F   0  0  0  0  0  0
   -3.4390    3.2160  -19.8640 F   0  0  0  0  0  0
    2.0930    5.9560  -22.7740 N   0  0  0  0  0  0
    4.2820    4.9730  -22.9220 N   0  0  0  0  0  0
    0.4350    2.5300  -24.5310 N   0  0  0  0  0  0
    4.6480    2.7660  -23.5660 N   0  0  0  0  0  0
    6.6650    0.9700  -22.5050 N   0  0  1  0  0  0
   -3.7560    3.9160  -27.5120 O   0  0  0  0  0  0
   -5.7048    3.8373  -20.7843 H   0  0  0  0  0  0
   -6.2533    4.1797  -23.1560 H   0  0  0  0  0  0
    5.8872    3.8805  -21.2798 H   0  0  0  0  0  0
    7.1463    2.8669  -20.4453 H   0  0  0  0  0  0
    6.4692    2.5860  -24.6704 H   0  0  0  0  0  0
    6.2876    4.1231  -23.7653 H   0  0  0  0  0  0
   -5.5290    4.2328  -25.5452 H   0  0  0  0  0  0
    2.3601    1.7401  -24.5741 H   0  0  0  0  0  0
    3.2809    1.2917  -22.7117 H   0  0  0  0  0  0
    4.4290    0.6239  -23.9323 H   0  0  0  0  0  0
    5.0348   -0.0691  -21.6047 H   0  0  0  0  0  0
    7.9608    2.6671  -22.6417 H   0  0  0  0  0  0
    4.3521    2.4508  -20.7293 H   0  0  0  0  0  0
    5.6369    1.4092  -19.8937 H   0  0  0  0  0  0
   -1.4353    3.6349  -26.5958 H   0  0  0  0  0  0
    0.6380    2.1670  -20.5800 H   0  0  0  0  0  0
    7.3224    0.4526  -21.8219 H   0  0  0  0  0  0
   -2.9283    3.8071  -27.9654 H   0  0  0  0  0  0
    3.3480    8.0000  -21.4720 O   0  0  0  0  0  0
    4.0220    7.2670  -22.2200 C   0  0  0  0  0  0
    5.2000    7.5630  -22.5220 O   0  5  0  0  0  0
  1  2  2  0  0  0
  1  3  1  0  0  0
  1 34  1  0  0  0
  2  6  1  0  0  0
  2 35  1  0  0  0
  3  5  2  0  0  0
  3 27  1  0  0  0
  4  5  1  0  0  0
  4  6  2  0  0  0
  4 18  1  0  0  0
  5 24  1  0  0  0
  6 10  1  0  0  0
  7 10  2  0  0  0
  7 23  1  0  0  0
  7 33  1  0  0  0
  8 21  1  0  0  0
  8 22  1  0  0  0
  8 36  1  0  0  0
  8 37  1  0  0  0
  9 21  1  0  0  0
  9 31  1  0  0  0
  9 38  1  0  0  0
  9 39  1  0  0  0
 10 40  1  0  0  0
 11 12  1  0  0  0
 11 14  2  0  0  0
 11 15  1  0  0  0
 12 17  1  0  0  0
 12 28  2  0  0  0
 13 28  1  0  0  0
 13 29  2  0  0  0
 13 53  1  0  0  0
 14 29  1  0  0  0
 14 31  1  0  0  0
 15 30  2  0  0  0
 15 41  1  0  0  0
 16 17  2  0  0  0
 16 18  1  0  0  0
 16 30  1  0  0  0
 17 26  1  0  0  0
 18 23  2  0  0  0
 19 20  1  0  0  0
 19 31  1  0  0  0
 19 42  1  0  0  0
 19 43  1  0  0  0
 20 22  1  0  0  0
 20 32  1  0  0  0
 20 44  1  0  0  0
 21 32  1  0  0  0
 21 45  1  0  0  0
 22 46  1  0  0  0
 22 47  1  0  0  0
 23 48  1  0  0  0
 24 25  3  0  0  0
 25 49  1  0  0  0
 32 50  1  0  0  0
 33 51  1  0  0  0
 52 53  2  0  0  0
 53 54  1  0  0  0
M  CHG  1  54  -1
M  END
> <s_m_entry_id>
880

> <s_m_entry_name>
000000722.1

> <s_m_Source_Path>
/Users/zaksoul/Documents/3r_UNI/2nd_SEMESTER/BSC/FRAG_RECON/RESULTS/2

> <s_m_Source_File>
000000722.mol2

> <i_m_Source_File_Index>
1

$$$$
No_0_744
                    3D
 Schrodinger Suite 2022-4.
 54 59  0  0  1  0            999 V2000
   -5.2210    3.4030  -22.1570 C   0  0  0  0  0  0
   -5.4630    3.5940  -23.4970 C   0  0  0  0  0  0
   -3.9930    3.1260  -21.7960 C   0  0  0  0  0  0
   -3.0670    3.2300  -23.9480 C   0  0  0  0  0  0
   -2.9330    2.9850  -22.5250 C   0  0  0  0  0  0
   -4.4000    3.5180  -24.4910 C   0  0  0  0  0  0
   -3.6110    3.5190  -26.6770 C   0  0  0  0  0  0
    6.0190    2.6030  -21.2610 C   0  0  0  0  0  0
    5.9230    2.7430  -23.8120 C   0  0  0  0  0  0
   -4.6280    3.6470  -25.8300 C   0  0  0  0  0  0
    2.1500    3.3660  -23.8890 C   0  0  0  0  0  0
    1.3470    4.4910  -23.6050 C   0  0  0  0  0  0
    3.1580    5.6520  -22.8990 C   0  0  0  0  0  0
    3.5490    3.5290  -23.5540 C   0  0  0  0  0  0
    1.5920    2.2580  -24.5560 C   0  0  0  0  0  0
   -0.5200    3.1140  -24.4800 C   0  0  0  0  0  0
    0.0220    4.3250  -23.8750 C   0  0  0  0  0  0
   -1.9670    3.1480  -24.8570 C   0  0  0  0  0  0
    4.1000    1.0210  -23.2480 C   0  0  0  0  0  0
    5.0090    0.6490  -22.0870 C   0  0  2  0  0  0
    6.6400    2.1560  -22.6020 C   0  0  2  0  0  0
    4.9930    1.6530  -20.9220 C   0  0  0  0  0  0
   -2.2670    3.3110  -26.2900 C   0  0  0  0  0  0
   -1.6060    2.5470  -21.9050 C   0  0  0  0  0  0
   -0.5900    2.1800  -21.3830 C   0  0  0  0  0  0
   -0.8040    5.3880  -23.5460 F   0  0  0  0  0  0
   -3.8090    2.8830  -20.4110 F   0  0  0  0  0  0
    1.8390    5.6420  -23.0680 N   0  0  0  0  0  0
    4.0380    4.6720  -23.1040 N   0  0  0  0  0  0
    0.2890    2.1940  -24.8810 N   0  0  0  0  0  0
    4.4490    2.4630  -23.7150 N   0  0  0  0  0  0
    6.4240    0.6870  -22.5480 N   0  0  1  0  0  0
   -3.7620    3.5340  -28.0690 O   0  0  0  0  0  0
   -6.0320    3.4843  -21.4424 H   0  0  0  0  0  0
   -6.4681    3.8089  -23.8414 H   0  0  0  0  0  0
    5.5699    3.6002  -21.3791 H   0  0  0  0  0  0
    6.7928    2.6000  -20.4792 H   0  0  0  0  0  0
    6.3226    2.2879  -24.7303 H   0  0  0  0  0  0
    6.0875    3.8301  -23.8453 H   0  0  0  0  0  0
   -5.6290    3.8516  -26.1921 H   0  0  0  0  0  0
    2.2184    1.4158  -24.8270 H   0  0  0  0  0  0
    3.0510    0.9857  -22.9189 H   0  0  0  0  0  0
    4.2614    0.3178  -24.0783 H   0  0  0  0  0  0
    4.7587   -0.3572  -21.7196 H   0  0  0  0  0  0
    7.7140    2.3920  -22.6323 H   0  0  0  0  0  0
    4.0191    2.1637  -20.8948 H   0  0  0  0  0  0
    5.2685    1.1352  -19.9914 H   0  0  0  0  0  0
   -1.4860    3.2739  -27.0408 H   0  0  0  0  0  0
    0.3037    1.8561  -20.9231 H   0  0  0  0  0  0
    7.0506    0.1780  -21.8305 H   0  0  0  0  0  0
   -2.9129    3.4281  -28.4817 H   0  0  0  0  0  0
    4.7290    6.9430  -21.6830 O   0  0  0  0  0  0
    3.7310    6.9680  -22.4300 C   0  0  0  0  0  0
    3.2680    8.0510  -22.8500 O   0  5  0  0  0  0
  1  2  2  0  0  0
  1  3  1  0  0  0
  1 34  1  0  0  0
  2  6  1  0  0  0
  2 35  1  0  0  0
  3  5  2  0  0  0
  3 27  1  0  0  0
  4  5  1  0  0  0
  4  6  2  0  0  0
  4 18  1  0  0  0
  5 24  1  0  0  0
  6 10  1  0  0  0
  7 10  2  0  0  0
  7 23  1  0  0  0
  7 33  1  0  0  0
  8 21  1  0  0  0
  8 22  1  0  0  0
  8 36  1  0  0  0
  8 37  1  0  0  0
  9 21  1  0  0  0
  9 31  1  0  0  0
  9 38  1  0  0  0
  9 39  1  0  0  0
 10 40  1  0  0  0
 11 12  1  0  0  0
 11 14  2  0  0  0
 11 15  1  0  0  0
 12 17  1  0  0  0
 12 28  2  0  0  0
 13 28  1  0  0  0
 13 29  2  0  0  0
 13 53  1  0  0  0
 14 29  1  0  0  0
 14 31  1  0  0  0
 15 30  2  0  0  0
 15 41  1  0  0  0
 16 17  2  0  0  0
 16 18  1  0  0  0
 16 30  1  0  0  0
 17 26  1  0  0  0
 18 23  2  0  0  0
 19 20  1  0  0  0
 19 31  1  0  0  0
 19 42  1  0  0  0
 19 43  1  0  0  0
 20 22  1  0  0  0
 20 32  1  0  0  0
 20 44  1  0  0  0
 21 32  1  0  0  0
 21 45  1  0  0  0
 22 46  1  0  0  0
 22 47  1  0  0  0
 23 48  1  0  0  0
 24 25  3  0  0  0
 25 49  1  0  0  0
 32 50  1  0  0  0
 33 51  1  0  0  0
 52 53  2  0  0  0
 53 54  1  0  0  0
M  CHG  1  54  -1
M  END
> <s_m_entry_id>
881

> <s_m_entry_name>
000000723.1

> <s_m_Source_Path>
/Users/zaksoul/Documents/3r_UNI/2nd_SEMESTER/BSC/FRAG_RECON/RESULTS/2

> <s_m_Source_File>
000000723.mol2

> <i_m_Source_File_Index>
1

$$$$
No_0_745
                    3D
 Schrodinger Suite 2022-4.
 54 59  0  0  1  0            999 V2000
   -5.0050    3.6560  -22.1780 C   0  0  0  0  0  0
   -5.2490    3.8660  -23.5140 C   0  0  0  0  0  0
   -3.7780    3.3660  -21.8250 C   0  0  0  0  0  0
   -2.8570    3.4910  -23.9780 C   0  0  0  0  0  0
   -2.7200    3.2270  -22.5580 C   0  0  0  0  0  0
   -4.1900    3.7960  -24.5120 C   0  0  0  0  0  0
   -3.4080    3.8200  -26.7010 C   0  0  0  0  0  0
    6.2320    2.7670  -21.3270 C   0  0  0  0  0  0
    6.1290    2.9400  -23.8760 C   0  0  0  0  0  0
   -4.4220    3.9440  -25.8490 C   0  0  0  0  0  0
    2.3610    3.5900  -23.9330 C   0  0  0  0  0  0
    1.5660    4.7180  -23.6320 C   0  0  0  0  0  0
    3.3880    5.8570  -22.9170 C   0  0  0  0  0  0
    3.7620    3.7400  -23.6010 C   0  0  0  0  0  0
    1.7930    2.4950  -24.6130 C   0  0  0  0  0  0
   -0.3130    3.3650  -24.5190 C   0  0  0  0  0  0
    0.2390    4.5640  -23.9000 C   0  0  0  0  0  0
   -1.7610    3.4140  -24.8910 C   0  0  0  0  0  0
    4.2960    1.2240  -23.3290 C   0  0  0  0  0  0
    5.2060    0.8310  -22.1750 C   0  0  2  0  0  0
    6.8460    2.3330  -22.6750 C   0  0  2  0  0  0
    5.2000    1.8200  -20.9970 C   0  0  0  0  0  0
   -2.0640    3.5970  -26.3210 C   0  0  0  0  0  0
   -1.3950    2.7720  -21.9480 C   0  0  0  0  0  0
   -0.3810    2.3910  -21.4340 C   0  0  0  0  0  0
   -0.5790    5.6280  -23.5550 F   0  0  0  0  0  0
   -3.5910    3.1040  -20.4430 F   0  0  0  0  0  0
    2.0680    5.8580  -23.0820 N   0  0  0  0  0  0
    4.2600    4.8730  -23.1370 N   0  0  0  0  0  0
    0.4880    2.4450  -24.9350 N   0  0  0  0  0  0
    4.6540    2.6690  -23.7780 N   0  0  0  0  0  0
    6.6200    0.8650  -22.6400 N   0  0  1  0  0  0
   -3.5630    3.8540  -28.0920 O   0  0  0  0  0  0
   -5.8138    3.7333  -21.4605 H   0  0  0  0  0  0
   -6.2538    4.0919  -23.8523 H   0  0  0  0  0  0
    5.7901    3.7689  -21.4309 H   0  0  0  0  0  0
    7.0087    2.7478  -20.5483 H   0  0  0  0  0  0
    6.5227    2.4948  -24.8017 H   0  0  0  0  0  0
    6.3016    4.0262  -23.8952 H   0  0  0  0  0  0
   -5.4228    4.1598  -26.2053 H   0  0  0  0  0  0
    2.4129    1.6521  -24.8963 H   0  0  0  0  0  0
    3.2482    1.1917  -22.9959 H   0  0  0  0  0  0
    4.4504    0.5306  -24.1688 H   0  0  0  0  0  0
    4.9499   -0.1782  -21.8201 H   0  0  0  0  0  0
    7.9214    2.5620  -22.7063 H   0  0  0  0  0  0
    4.2297    2.3369  -20.9596 H   0  0  0  0  0  0
    5.4756    1.2881  -20.0744 H   0  0  0  0  0  0
   -1.2859    3.5649  -27.0750 H   0  0  0  0  0  0
    0.5124    2.0562  -20.9813 H   0  0  0  0  0  0
    7.2446    0.3420  -21.9309 H   0  0  0  0  0  0
   -2.7159    3.7471  -28.5086 H   0  0  0  0  0  0
    5.1950    7.2110  -22.2040 O   0  0  0  0  0  0
    3.9710    7.1630  -22.4330 C   0  0  0  0  0  0
    3.2580    8.1870  -22.3470 O   0  5  0  0  0  0
  1  2  2  0  0  0
  1  3  1  0  0  0
  1 34  1  0  0  0
  2  6  1  0  0  0
  2 35  1  0  0  0
  3  5  2  0  0  0
  3 27  1  0  0  0
  4  5  1  0  0  0
  4  6  2  0  0  0
  4 18  1  0  0  0
  5 24  1  0  0  0
  6 10  1  0  0  0
  7 10  2  0  0  0
  7 23  1  0  0  0
  7 33  1  0  0  0
  8 21  1  0  0  0
  8 22  1  0  0  0
  8 36  1  0  0  0
  8 37  1  0  0  0
  9 21  1  0  0  0
  9 31  1  0  0  0
  9 38  1  0  0  0
  9 39  1  0  0  0
 10 40  1  0  0  0
 11 12  1  0  0  0
 11 14  2  0  0  0
 11 15  1  0  0  0
 12 17  1  0  0  0
 12 28  2  0  0  0
 13 28  1  0  0  0
 13 29  2  0  0  0
 13 53  1  0  0  0
 14 29  1  0  0  0
 14 31  1  0  0  0
 15 30  2  0  0  0
 15 41  1  0  0  0
 16 17  2  0  0  0
 16 18  1  0  0  0
 16 30  1  0  0  0
 17 26  1  0  0  0
 18 23  2  0  0  0
 19 20  1  0  0  0
 19 31  1  0  0  0
 19 42  1  0  0  0
 19 43  1  0  0  0
 20 22  1  0  0  0
 20 32  1  0  0  0
 20 44  1  0  0  0
 21 32  1  0  0  0
 21 45  1  0  0  0
 22 46  1  0  0  0
 22 47  1  0  0  0
 23 48  1  0  0  0
 24 25  3  0  0  0
 25 49  1  0  0  0
 32 50  1  0  0  0
 33 51  1  0  0  0
 52 53  2  0  0  0
 53 54  1  0  0  0
M  CHG  1  54  -1
M  END
> <s_m_entry_id>
882

> <s_m_entry_name>
000000724.1

> <s_m_Source_Path>
/Users/zaksoul/Documents/3r_UNI/2nd_SEMESTER/BSC/FRAG_RECON/RESULTS/2

> <s_m_Source_File>
000000724.mol2

> <i_m_Source_File_Index>
1

$$$$
No_0_746
                    3D
 Schrodinger Suite 2022-4.
 59 64  0  0  1  0            999 V2000
   -5.1810    3.6090  -21.8530 C   0  0  0  0  0  0
   -5.4520    3.8050  -23.1860 C   0  0  0  0  0  0
   -3.9420    3.3510  -21.5190 C   0  0  0  0  0  0
   -3.0590    3.4860  -23.6870 C   0  0  0  0  0  0
   -2.8930    3.2340  -22.2690 C   0  0  0  0  0  0
   -4.4090    3.7540  -24.2010 C   0  0  0  0  0  0
   -3.6630    3.7850  -26.4030 C   0  0  0  0  0  0
    6.0870    3.0010  -21.1820 C   0  0  0  0  0  0
    5.9380    3.1560  -23.7310 C   0  0  0  0  0  0
   -4.6650    3.8890  -25.5350 C   0  0  0  0  0  0
    2.1540    3.7130  -23.7290 C   0  0  0  0  0  0
    1.3370    4.8230  -23.4210 C   0  0  0  0  0  0
    3.1410    6.0110  -22.7430 C   0  0  0  0  0  0
    3.5570    3.8990  -23.4210 C   0  0  0  0  0  0
    1.6030    2.6010  -24.3930 C   0  0  0  0  0  0
   -0.5220    3.4190  -24.2700 C   0  0  0  0  0  0
    0.0100    4.6350  -23.6670 C   0  0  0  0  0  0
   -1.9770    3.4300  -24.6180 C   0  0  0  0  0  0
    4.1570    1.3990  -23.1440 C   0  0  0  0  0  0
    5.0950    1.0350  -22.0030 C   0  0  2  0  0  0
    6.6890    2.5740  -22.5390 C   0  0  2  0  0  0
    5.0840    2.0310  -20.8310 C   0  0  0  0  0  0
   -2.3080    3.5970  -26.0440 C   0  0  0  0  0  0
   -1.5470    2.8150  -21.6780 C   0  0  0  0  0  0
   -0.5150    2.4620  -21.1780 C   0  0  0  0  0  0
   -0.8280    5.6800  -23.3140 F   0  0  0  0  0  0
   -3.7260    3.1020  -20.1390 F   0  0  0  0  0  0
    1.8200    5.9780  -22.8860 N   0  0  0  0  0  0
    4.0350    5.0470  -22.9720 N   0  0  0  0  0  0
    0.2950    2.5160  -24.6930 N   0  0  0  0  0  0
    4.4710    2.8500  -23.6070 N   0  0  0  0  0  0
    6.5000    1.1010  -22.4910 N   0  0  1  0  0  0
   -3.8410    3.8060  -27.7920 O   0  0  0  0  0  0
   -5.9796    3.6712  -21.1226 H   0  0  0  0  0  0
   -6.4675    4.0037  -23.5091 H   0  0  0  0  0  0
    5.6179    3.9906  -21.2849 H   0  0  0  0  0  0
    6.8763    3.0060  -20.4159 H   0  0  0  0  0  0
    6.3275    2.7150  -24.6604 H   0  0  0  0  0  0
    6.0833    4.2460  -23.7593 H   0  0  0  0  0  0
   -5.6765    4.0776  -25.8762 H   0  0  0  0  0  0
    2.2385    1.7718  -24.6821 H   0  0  0  0  0  0
    3.1157    1.3435  -22.7939 H   0  0  0  0  0  0
    4.3144    0.7047  -23.9826 H   0  0  0  0  0  0
    4.8700    0.0218  -21.6387 H   0  0  0  0  0  0
    7.7578    2.8293  -22.5885 H   0  0  0  0  0  0
    4.1018    2.5236  -20.7805 H   0  0  0  0  0  0
    5.3877    1.5123  -19.9097 H   0  0  0  0  0  0
   -1.5411    3.5789  -26.8099 H   0  0  0  0  0  0
    0.3934    2.1519  -20.7378 H   0  0  0  0  0  0
    7.1492    0.5983  -21.7894 H   0  0  0  0  0  0
   -2.9984    3.7179  -28.2217 H   0  0  0  0  0  0
    4.5620    8.5530  -20.4270 C   0  0  0  0  0  0
    4.0320    7.3230  -20.8890 O   0  0  0  0  0  0
    3.7060    7.3460  -22.2710 C   0  0  0  0  0  0
    4.7941    8.4730  -19.3547 H   0  0  0  0  0  0
    5.4805    8.7891  -20.9843 H   0  0  0  0  0  0
    3.8227    9.3523  -20.5841 H   0  0  0  0  0  0
    4.6058    7.5899  -22.8549 H   0  0  0  0  0  0
    2.9709    8.1421  -22.4600 H   0  0  0  0  0  0
  1  2  2  0  0  0
  1  3  1  0  0  0
  1 34  1  0  0  0
  2  6  1  0  0  0
  2 35  1  0  0  0
  3  5  2  0  0  0
  3 27  1  0  0  0
  4  5  1  0  0  0
  4  6  2  0  0  0
  4 18  1  0  0  0
  5 24  1  0  0  0
  6 10  1  0  0  0
  7 10  2  0  0  0
  7 23  1  0  0  0
  7 33  1  0  0  0
  8 21  1  0  0  0
  8 22  1  0  0  0
  8 36  1  0  0  0
  8 37  1  0  0  0
  9 21  1  0  0  0
  9 31  1  0  0  0
  9 38  1  0  0  0
  9 39  1  0  0  0
 10 40  1  0  0  0
 11 12  1  0  0  0
 11 14  2  0  0  0
 11 15  1  0  0  0
 12 17  1  0  0  0
 12 28  2  0  0  0
 13 28  1  0  0  0
 13 29  2  0  0  0
 13 54  1  0  0  0
 14 29  1  0  0  0
 14 31  1  0  0  0
 15 30  2  0  0  0
 15 41  1  0  0  0
 16 17  2  0  0  0
 16 18  1  0  0  0
 16 30  1  0  0  0
 17 26  1  0  0  0
 18 23  2  0  0  0
 19 20  1  0  0  0
 19 31  1  0  0  0
 19 42  1  0  0  0
 19 43  1  0  0  0
 20 22  1  0  0  0
 20 32  1  0  0  0
 20 44  1  0  0  0
 21 32  1  0  0  0
 21 45  1  0  0  0
 22 46  1  0  0  0
 22 47  1  0  0  0
 23 48  1  0  0  0
 24 25  3  0  0  0
 25 49  1  0  0  0
 32 50  1  0  0  0
 33 51  1  0  0  0
 52 53  1  0  0  0
 52 55  1  0  0  0
 52 56  1  0  0  0
 52 57  1  0  0  0
 53 54  1  0  0  0
 54 58  1  0  0  0
 54 59  1  0  0  0
M  END
> <s_m_entry_id>
883

> <s_m_entry_name>
000000725.1

> <s_m_Source_Path>
/Users/zaksoul/Documents/3r_UNI/2nd_SEMESTER/BSC/FRAG_RECON/RESULTS/2

> <s_m_Source_File>
000000725.mol2

> <i_m_Source_File_Index>
1

$$$$
No_0_747
                    3D
 Schrodinger Suite 2022-4.
 59 64  0  0  1  0            999 V2000
   -5.1810    3.6090  -21.8530 C   0  0  0  0  0  0
   -5.4520    3.8050  -23.1860 C   0  0  0  0  0  0
   -3.9420    3.3510  -21.5190 C   0  0  0  0  0  0
   -3.0590    3.4860  -23.6870 C   0  0  0  0  0  0
   -2.8930    3.2340  -22.2690 C   0  0  0  0  0  0
   -4.4090    3.7540  -24.2010 C   0  0  0  0  0  0
   -3.6630    3.7850  -26.4030 C   0  0  0  0  0  0
    6.0870    3.0010  -21.1820 C   0  0  0  0  0  0
    5.9380    3.1560  -23.7310 C   0  0  0  0  0  0
   -4.6650    3.8890  -25.5350 C   0  0  0  0  0  0
    2.1540    3.7130  -23.7290 C   0  0  0  0  0  0
    1.3370    4.8230  -23.4210 C   0  0  0  0  0  0
    3.1410    6.0110  -22.7430 C   0  0  0  0  0  0
    3.5570    3.8990  -23.4210 C   0  0  0  0  0  0
    1.6030    2.6010  -24.3930 C   0  0  0  0  0  0
   -0.5220    3.4190  -24.2700 C   0  0  0  0  0  0
    0.0100    4.6350  -23.6670 C   0  0  0  0  0  0
   -1.9770    3.4300  -24.6180 C   0  0  0  0  0  0
    4.1570    1.3990  -23.1440 C   0  0  0  0  0  0
    5.0950    1.0350  -22.0030 C   0  0  2  0  0  0
    6.6890    2.5740  -22.5390 C   0  0  2  0  0  0
    5.0840    2.0310  -20.8310 C   0  0  0  0  0  0
   -2.3080    3.5970  -26.0440 C   0  0  0  0  0  0
   -1.5470    2.8150  -21.6780 C   0  0  0  0  0  0
   -0.5150    2.4620  -21.1780 C   0  0  0  0  0  0
   -0.8280    5.6800  -23.3140 F   0  0  0  0  0  0
   -3.7260    3.1020  -20.1390 F   0  0  0  0  0  0
    1.8200    5.9780  -22.8860 N   0  0  0  0  0  0
    4.0350    5.0470  -22.9720 N   0  0  0  0  0  0
    0.2950    2.5160  -24.6930 N   0  0  0  0  0  0
    4.4710    2.8500  -23.6070 N   0  0  0  0  0  0
    6.5000    1.1010  -22.4910 N   0  0  1  0  0  0
   -3.8410    3.8060  -27.7920 O   0  0  0  0  0  0
   -5.9796    3.6712  -21.1226 H   0  0  0  0  0  0
   -6.4675    4.0037  -23.5091 H   0  0  0  0  0  0
    5.6179    3.9906  -21.2849 H   0  0  0  0  0  0
    6.8763    3.0060  -20.4159 H   0  0  0  0  0  0
    6.3275    2.7150  -24.6604 H   0  0  0  0  0  0
    6.0833    4.2460  -23.7593 H   0  0  0  0  0  0
   -5.6765    4.0776  -25.8762 H   0  0  0  0  0  0
    2.2385    1.7718  -24.6821 H   0  0  0  0  0  0
    3.1157    1.3435  -22.7939 H   0  0  0  0  0  0
    4.3144    0.7047  -23.9826 H   0  0  0  0  0  0
    4.8700    0.0218  -21.6387 H   0  0  0  0  0  0
    7.7578    2.8293  -22.5885 H   0  0  0  0  0  0
    4.1018    2.5236  -20.7805 H   0  0  0  0  0  0
    5.3877    1.5123  -19.9097 H   0  0  0  0  0  0
   -1.5411    3.5789  -26.8099 H   0  0  0  0  0  0
    0.3934    2.1519  -20.7378 H   0  0  0  0  0  0
    7.1492    0.5983  -21.7894 H   0  0  0  0  0  0
   -2.9984    3.7179  -28.2217 H   0  0  0  0  0  0
    5.5940    8.4510  -21.3750 C   0  0  0  0  0  0
    5.0460    7.2220  -21.8160 O   0  0  0  0  0  0
    3.7060    7.3460  -22.2710 C   0  0  0  0  0  0
    6.6283    8.2920  -21.0359 H   0  0  0  0  0  0
    5.5870    9.1751  -22.2031 H   0  0  0  0  0  0
    4.9924    8.8427  -20.5416 H   0  0  0  0  0  0
    3.6660    8.0728  -23.0957 H   0  0  0  0  0  0
    3.0788    7.7421  -21.4588 H   0  0  0  0  0  0
  1  2  2  0  0  0
  1  3  1  0  0  0
  1 34  1  0  0  0
  2  6  1  0  0  0
  2 35  1  0  0  0
  3  5  2  0  0  0
  3 27  1  0  0  0
  4  5  1  0  0  0
  4  6  2  0  0  0
  4 18  1  0  0  0
  5 24  1  0  0  0
  6 10  1  0  0  0
  7 10  2  0  0  0
  7 23  1  0  0  0
  7 33  1  0  0  0
  8 21  1  0  0  0
  8 22  1  0  0  0
  8 36  1  0  0  0
  8 37  1  0  0  0
  9 21  1  0  0  0
  9 31  1  0  0  0
  9 38  1  0  0  0
  9 39  1  0  0  0
 10 40  1  0  0  0
 11 12  1  0  0  0
 11 14  2  0  0  0
 11 15  1  0  0  0
 12 17  1  0  0  0
 12 28  2  0  0  0
 13 28  1  0  0  0
 13 29  2  0  0  0
 13 54  1  0  0  0
 14 29  1  0  0  0
 14 31  1  0  0  0
 15 30  2  0  0  0
 15 41  1  0  0  0
 16 17  2  0  0  0
 16 18  1  0  0  0
 16 30  1  0  0  0
 17 26  1  0  0  0
 18 23  2  0  0  0
 19 20  1  0  0  0
 19 31  1  0  0  0
 19 42  1  0  0  0
 19 43  1  0  0  0
 20 22  1  0  0  0
 20 32  1  0  0  0
 20 44  1  0  0  0
 21 32  1  0  0  0
 21 45  1  0  0  0
 22 46  1  0  0  0
 22 47  1  0  0  0
 23 48  1  0  0  0
 24 25  3  0  0  0
 25 49  1  0  0  0
 32 50  1  0  0  0
 33 51  1  0  0  0
 52 53  1  0  0  0
 52 55  1  0  0  0
 52 56  1  0  0  0
 52 57  1  0  0  0
 53 54  1  0  0  0
 54 58  1  0  0  0
 54 59  1  0  0  0
M  END
> <s_m_entry_id>
884

> <s_m_entry_name>
000000726.1

> <s_m_Source_Path>
/Users/zaksoul/Documents/3r_UNI/2nd_SEMESTER/BSC/FRAG_RECON/RESULTS/2

> <s_m_Source_File>
000000726.mol2

> <i_m_Source_File_Index>
1

$$$$
No_0_748
                    3D
 Schrodinger Suite 2022-4.
 59 64  0  0  1  0            999 V2000
   -5.3840    3.4170  -21.7830 C   0  0  0  0  0  0
   -5.6540    3.6220  -23.1150 C   0  0  0  0  0  0
   -4.1470    3.1520  -21.4500 C   0  0  0  0  0  0
   -3.2620    3.2950  -23.6170 C   0  0  0  0  0  0
   -3.0980    3.0340  -22.2000 C   0  0  0  0  0  0
   -4.6100    3.5730  -24.1300 C   0  0  0  0  0  0
   -3.8630    3.6130  -26.3310 C   0  0  0  0  0  0
    5.8800    2.7530  -21.1100 C   0  0  0  0  0  0
    5.7330    2.9240  -23.6570 C   0  0  0  0  0  0
   -4.8650    3.7170  -25.4630 C   0  0  0  0  0  0
    1.9530    3.4990  -23.6550 C   0  0  0  0  0  0
    1.1410    4.6100  -23.3400 C   0  0  0  0  0  0
    2.9500    5.7850  -22.6540 C   0  0  0  0  0  0
    3.3550    3.6760  -23.3450 C   0  0  0  0  0  0
    1.3960    2.3930  -24.3260 C   0  0  0  0  0  0
   -0.7250    3.2200  -24.1980 C   0  0  0  0  0  0
   -0.1880    4.4300  -23.5880 C   0  0  0  0  0  0
   -2.1790    3.2400  -24.5470 C   0  0  0  0  0  0
    3.9440    1.1710  -23.0820 C   0  0  0  0  0  0
    4.8800    0.7960  -21.9430 C   0  0  2  0  0  0
    6.4810    2.3310  -22.4690 C   0  0  2  0  0  0
    4.8730    1.7850  -20.7650 C   0  0  0  0  0  0
   -2.5090    3.4170  -25.9720 C   0  0  0  0  0  0
   -1.7550    2.6050  -21.6110 C   0  0  0  0  0  0
   -0.7250    2.2450  -21.1130 C   0  0  0  0  0  0
   -1.0210    5.4770  -23.2290 F   0  0  0  0  0  0
   -3.9330    2.8930  -20.0710 F   0  0  0  0  0  0
    1.6280    5.7600  -22.7980 N   0  0  0  0  0  0
    3.8380    4.8190  -22.8880 N   0  0  0  0  0  0
    0.0880    2.3160  -24.6270 N   0  0  0  0  0  0
    4.2650    2.6240  -23.5370 N   0  0  0  0  0  0
    6.2850    0.8590  -22.4300 N   0  0  1  0  0  0
   -4.0410    3.6440  -27.7200 O   0  0  0  0  0  0
   -6.1831    3.4782  -21.0531 H   0  0  0  0  0  0
   -6.6680    3.8278  -23.4383 H   0  0  0  0  0  0
    5.4156    3.7454  -21.2079 H   0  0  0  0  0  0
    6.6693    2.7490  -20.3439 H   0  0  0  0  0  0
    6.1213    2.4873  -24.5889 H   0  0  0  0  0  0
    5.8844    4.0133  -23.6792 H   0  0  0  0  0  0
   -5.8755    3.9127  -25.8032 H   0  0  0  0  0  0
    2.0280    1.5624  -24.6189 H   0  0  0  0  0  0
    2.9022    1.1185  -22.7327 H   0  0  0  0  0  0
    4.0984    0.4808  -23.9245 H   0  0  0  0  0  0
    4.6499   -0.2182  -21.5847 H   0  0  0  0  0  0
    7.5511    2.5811  -22.5164 H   0  0  0  0  0  0
    3.8933    2.2824  -20.7125 H   0  0  0  0  0  0
    5.1728    1.2591  -19.8465 H   0  0  0  0  0  0
   -1.7426    3.3999  -26.7384 H   0  0  0  0  0  0
    0.1814    1.9272  -20.6743 H   0  0  0  0  0  0
    6.9316    0.3492  -21.7311 H   0  0  0  0  0  0
   -3.1982    3.5550  -28.1493 H   0  0  0  0  0  0
    5.4110    8.5340  -22.1760 C   0  0  0  0  0  0
    4.8600    7.3030  -22.6080 O   0  0  0  0  0  0
    3.5200    7.1150  -22.1740 C   0  0  0  0  0  0
    6.4449    8.6220  -22.5410 H   0  0  0  0  0  0
    4.8107    9.3654  -22.5742 H   0  0  0  0  0  0
    5.4070    8.5720  -21.0767 H   0  0  0  0  0  0
    2.8951    7.9389  -22.5490 H   0  0  0  0  0  0
    3.4830    7.1540  -21.0753 H   0  0  0  0  0  0
  1  2  2  0  0  0
  1  3  1  0  0  0
  1 34  1  0  0  0
  2  6  1  0  0  0
  2 35  1  0  0  0
  3  5  2  0  0  0
  3 27  1  0  0  0
  4  5  1  0  0  0
  4  6  2  0  0  0
  4 18  1  0  0  0
  5 24  1  0  0  0
  6 10  1  0  0  0
  7 10  2  0  0  0
  7 23  1  0  0  0
  7 33  1  0  0  0
  8 21  1  0  0  0
  8 22  1  0  0  0
  8 36  1  0  0  0
  8 37  1  0  0  0
  9 21  1  0  0  0
  9 31  1  0  0  0
  9 38  1  0  0  0
  9 39  1  0  0  0
 10 40  1  0  0  0
 11 12  1  0  0  0
 11 14  2  0  0  0
 11 15  1  0  0  0
 12 17  1  0  0  0
 12 28  2  0  0  0
 13 28  1  0  0  0
 13 29  2  0  0  0
 13 54  1  0  0  0
 14 29  1  0  0  0
 14 31  1  0  0  0
 15 30  2  0  0  0
 15 41  1  0  0  0
 16 17  2  0  0  0
 16 18  1  0  0  0
 16 30  1  0  0  0
 17 26  1  0  0  0
 18 23  2  0  0  0
 19 20  1  0  0  0
 19 31  1  0  0  0
 19 42  1  0  0  0
 19 43  1  0  0  0
 20 22  1  0  0  0
 20 32  1  0  0  0
 20 44  1  0  0  0
 21 32  1  0  0  0
 21 45  1  0  0  0
 22 46  1  0  0  0
 22 47  1  0  0  0
 23 48  1  0  0  0
 24 25  3  0  0  0
 25 49  1  0  0  0
 32 50  1  0  0  0
 33 51  1  0  0  0
 52 53  1  0  0  0
 52 55  1  0  0  0
 52 56  1  0  0  0
 52 57  1  0  0  0
 53 54  1  0  0  0
 54 58  1  0  0  0
 54 59  1  0  0  0
M  END
> <s_m_entry_id>
885

> <s_m_entry_name>
000000727.1

> <s_m_Source_Path>
/Users/zaksoul/Documents/3r_UNI/2nd_SEMESTER/BSC/FRAG_RECON/RESULTS/2

> <s_m_Source_File>
000000727.mol2

> <i_m_Source_File_Index>
1

$$$$
No_0_749
                    3D
 Schrodinger Suite 2022-4.
 59 64  0  0  1  0            999 V2000
   -5.4380    3.5890  -21.7110 C   0  0  0  0  0  0
   -5.6990    3.7970  -23.0450 C   0  0  0  0  0  0
   -4.2030    3.3240  -21.3700 C   0  0  0  0  0  0
   -3.3050    3.4720  -23.5320 C   0  0  0  0  0  0
   -3.1490    3.2080  -22.1140 C   0  0  0  0  0  0
   -4.6490    3.7510  -24.0530 C   0  0  0  0  0  0
   -3.8870    3.7960  -26.2490 C   0  0  0  0  0  0
    5.8220    2.9300  -20.9670 C   0  0  0  0  0  0
    5.6910    3.1060  -23.5140 C   0  0  0  0  0  0
   -4.8960    3.8970  -25.3870 C   0  0  0  0  0  0
    1.9100    3.6790  -23.5350 C   0  0  0  0  0  0
    1.0960    4.7890  -23.2240 C   0  0  0  0  0  0
    2.9000    5.9640  -22.5230 C   0  0  0  0  0  0
    3.3110    3.8570  -23.2160 C   0  0  0  0  0  0
    1.3590    2.5740  -24.2120 C   0  0  0  0  0  0
   -0.7640    3.4000  -24.0970 C   0  0  0  0  0  0
   -0.2310    4.6090  -23.4810 C   0  0  0  0  0  0
   -2.2160    3.4200  -24.4550 C   0  0  0  0  0  0
    3.9000    1.3510  -22.9550 C   0  0  0  0  0  0
    4.8280    0.9740  -21.8100 C   0  0  2  0  0  0
    6.4320    2.5120  -22.3220 C   0  0  2  0  0  0
    4.8130    1.9610  -20.6300 C   0  0  0  0  0  0
   -2.5360    3.6000  -25.8820 C   0  0  0  0  0  0
   -1.8090    2.7790  -21.5170 C   0  0  0  0  0  0
   -0.7820    2.4180  -21.0130 C   0  0  0  0  0  0
   -1.0670    5.6550  -23.1250 F   0  0  0  0  0  0
   -3.9980    3.0620  -19.9910 F   0  0  0  0  0  0
    1.5790    5.9380  -22.6760 N   0  0  0  0  0  0
    3.7910    4.9980  -22.7540 N   0  0  0  0  0  0
    0.0530    2.4970  -24.5220 N   0  0  0  0  0  0
    4.2230    2.8050  -23.4040 N   0  0  0  0  0  0
    6.2360    1.0390  -22.2880 N   0  0  1  0  0  0
   -4.0560    3.8300  -27.6390 O   0  0  0  0  0  0
   -6.2420    3.6482  -20.9863 H   0  0  0  0  0  0
   -6.7115    4.0027  -23.3731 H   0  0  0  0  0  0
    5.3576    3.9224  -21.0649 H   0  0  0  0  0  0
    6.6058    2.9250  -20.1953 H   0  0  0  0  0  0
    6.0855    2.6712  -24.4442 H   0  0  0  0  0  0
    5.8413    4.1955  -23.5332 H   0  0  0  0  0  0
   -5.9040    4.0928  -25.7344 H   0  0  0  0  0  0
    1.9935    1.7447  -24.5031 H   0  0  0  0  0  0
    2.8559    1.2975  -22.6130 H   0  0  0  0  0  0
    4.0595    0.6625  -23.7979 H   0  0  0  0  0  0
    4.5959   -0.0412  -21.4558 H   0  0  0  0  0  0
    7.5024    2.7622  -22.3624 H   0  0  0  0  0  0
    3.8327    2.4577  -20.5826 H   0  0  0  0  0  0
    5.1076    1.4333  -19.7109 H   0  0  0  0  0  0
   -1.7641    3.5849  -26.6429 H   0  0  0  0  0  0
    0.1222    2.0999  -20.5699 H   0  0  0  0  0  0
    6.8787    0.5279  -21.5865 H   0  0  0  0  0  0
   -3.2104    3.7419  -28.0628 H   0  0  0  0  0  0
    4.9280    9.0830  -22.5340 C   0  0  0  0  0  0
    4.3890    7.8460  -22.9640 O   0  0  0  0  0  0
    3.4670    7.2930  -22.0360 C   0  0  0  0  0  0
    5.6318    9.4599  -23.2908 H   0  0  0  0  0  0
    4.1144    9.8107  -22.3981 H   0  0  0  0  0  0
    5.4563    8.9419  -21.5795 H   0  0  0  0  0  0
    2.6436    8.0035  -21.8711 H   0  0  0  0  0  0
    3.9664    7.1449  -21.0672 H   0  0  0  0  0  0
  1  2  2  0  0  0
  1  3  1  0  0  0
  1 34  1  0  0  0
  2  6  1  0  0  0
  2 35  1  0  0  0
  3  5  2  0  0  0
  3 27  1  0  0  0
  4  5  1  0  0  0
  4  6  2  0  0  0
  4 18  1  0  0  0
  5 24  1  0  0  0
  6 10  1  0  0  0
  7 10  2  0  0  0
  7 23  1  0  0  0
  7 33  1  0  0  0
  8 21  1  0  0  0
  8 22  1  0  0  0
  8 36  1  0  0  0
  8 37  1  0  0  0
  9 21  1  0  0  0
  9 31  1  0  0  0
  9 38  1  0  0  0
  9 39  1  0  0  0
 10 40  1  0  0  0
 11 12  1  0  0  0
 11 14  2  0  0  0
 11 15  1  0  0  0
 12 17  1  0  0  0
 12 28  2  0  0  0
 13 28  1  0  0  0
 13 29  2  0  0  0
 13 54  1  0  0  0
 14 29  1  0  0  0
 14 31  1  0  0  0
 15 30  2  0  0  0
 15 41  1  0  0  0
 16 17  2  0  0  0
 16 18  1  0  0  0
 16 30  1  0  0  0
 17 26  1  0  0  0
 18 23  2  0  0  0
 19 20  1  0  0  0
 19 31  1  0  0  0
 19 42  1  0  0  0
 19 43  1  0  0  0
 20 22  1  0  0  0
 20 32  1  0  0  0
 20 44  1  0  0  0
 21 32  1  0  0  0
 21 45  1  0  0  0
 22 46  1  0  0  0
 22 47  1  0  0  0
 23 48  1  0  0  0
 24 25  3  0  0  0
 25 49  1  0  0  0
 32 50  1  0  0  0
 33 51  1  0  0  0
 52 53  1  0  0  0
 52 55  1  0  0  0
 52 56  1  0  0  0
 52 57  1  0  0  0
 53 54  1  0  0  0
 54 58  1  0  0  0
 54 59  1  0  0  0
M  END
> <s_m_entry_id>
886

> <s_m_entry_name>
000000728.1

> <s_m_Source_Path>
/Users/zaksoul/Documents/3r_UNI/2nd_SEMESTER/BSC/FRAG_RECON/RESULTS/2

> <s_m_Source_File>
000000728.mol2

> <i_m_Source_File_Index>
1

$$$$
No_0_750
                    3D
 Schrodinger Suite 2022-4.
 59 64  0  0  1  0            999 V2000
   -5.1600    3.4860  -21.8550 C   0  0  0  0  0  0
   -5.4210    3.6910  -23.1890 C   0  0  0  0  0  0
   -3.9210    3.2380  -21.5110 C   0  0  0  0  0  0
   -3.0200    3.4030  -23.6700 C   0  0  0  0  0  0
   -2.8650    3.1400  -22.2520 C   0  0  0  0  0  0
   -4.3670    3.6610  -24.1940 C   0  0  0  0  0  0
   -3.6020    3.7200  -26.3880 C   0  0  0  0  0  0
    6.1070    2.9960  -21.0830 C   0  0  0  0  0  0
    5.9800    3.1730  -23.6310 C   0  0  0  0  0  0
   -4.6130    3.8050  -25.5290 C   0  0  0  0  0  0
    2.1910    3.6880  -23.6600 C   0  0  0  0  0  0
    1.3590    4.7850  -23.3500 C   0  0  0  0  0  0
    3.1430    5.9870  -22.6440 C   0  0  0  0  0  0
    3.5880    3.8870  -23.3370 C   0  0  0  0  0  0
    1.6580    2.5760  -24.3400 C   0  0  0  0  0  0
   -0.4770    3.3690  -24.2290 C   0  0  0  0  0  0
    0.0360    4.5860  -23.6100 C   0  0  0  0  0  0
   -1.9280    3.3680  -24.5910 C   0  0  0  0  0  0
    4.2140    1.3900  -23.0770 C   0  0  0  0  0  0
    5.1450    1.0270  -21.9310 C   0  0  2  0  0  0
    6.7270    2.5880  -22.4380 C   0  0  2  0  0  0
    5.1120    2.0110  -20.7500 C   0  0  0  0  0  0
   -2.2480    3.5450  -26.0180 C   0  0  0  0  0  0
   -1.5200    2.7300  -21.6530 C   0  0  0  0  0  0
   -0.4890    2.3840  -21.1460 C   0  0  0  0  0  0
   -0.8170    5.6180  -23.2550 F   0  0  0  0  0  0
   -3.7160    2.9780  -20.1310 F   0  0  0  0  0  0
    1.8230    5.9410  -22.8000 N   0  0  0  0  0  0
    4.0490    5.0350  -22.8730 N   0  0  0  0  0  0
    0.3540    2.4790  -24.6530 N   0  0  0  0  0  0
    4.5160    2.8490  -23.5240 N   0  0  0  0  0  0
    6.5530    1.1130  -22.4050 N   0  0  1  0  0  0
   -3.7670    3.7530  -27.7780 O   0  0  0  0  0  0
   -5.9658    3.5322  -21.1314 H   0  0  0  0  0  0
   -6.4357    3.8817  -23.5192 H   0  0  0  0  0  0
    5.6284    3.9815  -21.1820 H   0  0  0  0  0  0
    6.8893    3.0021  -20.3097 H   0  0  0  0  0  0
    6.3828    2.7450  -24.5608 H   0  0  0  0  0  0
    6.1132    4.2648  -23.6482 H   0  0  0  0  0  0
   -5.6234    3.9866  -25.8772 H   0  0  0  0  0  0
    2.3057    1.7566  -24.6302 H   0  0  0  0  0  0
    3.1698    1.3204  -22.7380 H   0  0  0  0  0  0
    4.3866    0.7057  -23.9208 H   0  0  0  0  0  0
    4.9271    0.0082  -21.5780 H   0  0  0  0  0  0
    7.7934    2.8553  -22.4753 H   0  0  0  0  0  0
    4.1240    2.4924  -20.7046 H   0  0  0  0  0  0
    5.4127    1.4872  -19.8306 H   0  0  0  0  0  0
   -1.4740    3.5420  -26.7769 H   0  0  0  0  0  0
    0.4188    2.0791  -20.7011 H   0  0  0  0  0  0
    7.2018    0.6106  -21.7028 H   0  0  0  0  0  0
   -2.9196    3.6778  -28.2007 H   0  0  0  0  0  0
    3.8750    9.6350  -22.6170 C   0  0  0  0  0  0
    3.3810    8.3810  -23.0520 O   0  0  0  0  0  0
    3.6890    7.3240  -22.1540 C   0  0  0  0  0  0
    3.6070   10.4101  -23.3501 H   0  0  0  0  0  0
    3.4339    9.8850  -21.6408 H   0  0  0  0  0  0
    4.9697    9.5850  -22.5210 H   0  0  0  0  0  0
    3.2669    7.5510  -21.1639 H   0  0  0  0  0  0
    4.7801    7.2530  -22.0340 H   0  0  0  0  0  0
  1  2  2  0  0  0
  1  3  1  0  0  0
  1 34  1  0  0  0
  2  6  1  0  0  0
  2 35  1  0  0  0
  3  5  2  0  0  0
  3 27  1  0  0  0
  4  5  1  0  0  0
  4  6  2  0  0  0
  4 18  1  0  0  0
  5 24  1  0  0  0
  6 10  1  0  0  0
  7 10  2  0  0  0
  7 23  1  0  0  0
  7 33  1  0  0  0
  8 21  1  0  0  0
  8 22  1  0  0  0
  8 36  1  0  0  0
  8 37  1  0  0  0
  9 21  1  0  0  0
  9 31  1  0  0  0
  9 38  1  0  0  0
  9 39  1  0  0  0
 10 40  1  0  0  0
 11 12  1  0  0  0
 11 14  2  0  0  0
 11 15  1  0  0  0
 12 17  1  0  0  0
 12 28  2  0  0  0
 13 28  1  0  0  0
 13 29  2  0  0  0
 13 54  1  0  0  0
 14 29  1  0  0  0
 14 31  1  0  0  0
 15 30  2  0  0  0
 15 41  1  0  0  0
 16 17  2  0  0  0
 16 18  1  0  0  0
 16 30  1  0  0  0
 17 26  1  0  0  0
 18 23  2  0  0  0
 19 20  1  0  0  0
 19 31  1  0  0  0
 19 42  1  0  0  0
 19 43  1  0  0  0
 20 22  1  0  0  0
 20 32  1  0  0  0
 20 44  1  0  0  0
 21 32  1  0  0  0
 21 45  1  0  0  0
 22 46  1  0  0  0
 22 47  1  0  0  0
 23 48  1  0  0  0
 24 25  3  0  0  0
 25 49  1  0  0  0
 32 50  1  0  0  0
 33 51  1  0  0  0
 52 53  1  0  0  0
 52 55  1  0  0  0
 52 56  1  0  0  0
 52 57  1  0  0  0
 53 54  1  0  0  0
 54 58  1  0  0  0
 54 59  1  0  0  0
M  END
> <s_m_entry_id>
887

> <s_m_entry_name>
000000729.1

> <s_m_Source_Path>
/Users/zaksoul/Documents/3r_UNI/2nd_SEMESTER/BSC/FRAG_RECON/RESULTS/2

> <s_m_Source_File>
000000729.mol2

> <i_m_Source_File_Index>
1

$$$$
No_0_751
                    3D
 Schrodinger Suite 2022-4.
 59 64  0  0  1  0            999 V2000
   -5.0940    3.8320  -22.2800 C   0  0  0  0  0  0
   -5.3140    4.0370  -23.6220 C   0  0  0  0  0  0
   -3.8760    3.5310  -21.9060 C   0  0  0  0  0  0
   -2.9190    3.6320  -24.0440 C   0  0  0  0  0  0
   -2.8080    3.3760  -22.6210 C   0  0  0  0  0  0
   -4.2400    3.9480  -24.6020 C   0  0  0  0  0  0
   -3.4220    3.9510  -26.7780 C   0  0  0  0  0  0
    6.1170    2.8240  -21.2410 C   0  0  0  0  0  0
    6.0570    2.9820  -23.7930 C   0  0  0  0  0  0
   -4.4480    4.0910  -25.9430 C   0  0  0  0  0  0
    2.2980    3.6740  -23.9150 C   0  0  0  0  0  0
    1.5120    4.8120  -23.6330 C   0  0  0  0  0  0
    3.3340    5.9350  -22.8960 C   0  0  0  0  0  0
    3.6950    3.8100  -23.5610 C   0  0  0  0  0  0
    1.7290    2.5810  -24.5980 C   0  0  0  0  0  0
   -0.3680    3.4750  -24.5430 C   0  0  0  0  0  0
    0.1870    4.6710  -23.9230 C   0  0  0  0  0  0
   -1.8090    3.5380  -24.9390 C   0  0  0  0  0  0
    4.1970    1.2900  -23.2660 C   0  0  0  0  0  0
    5.0830    0.8940  -22.0950 C   0  0  2  0  0  0
    6.7480    2.3750  -22.5770 C   0  0  2  0  0  0
    5.0700    1.8900  -20.9230 C   0  0  0  0  0  0
   -2.0870    3.7150  -26.3740 C   0  0  0  0  0  0
   -1.4990    2.9090  -21.9870 C   0  0  0  0  0  0
   -0.4970    2.5200  -21.4540 C   0  0  0  0  0  0
   -0.6240    5.7460  -23.5970 F   0  0  0  0  0  0
   -3.7150    3.2740  -20.5190 F   0  0  0  0  0  0
    2.0170    5.9490  -23.0820 N   0  0  0  0  0  0
    4.1990    4.9400  -23.0960 N   0  0  0  0  0  0
    0.4300    2.5430  -24.9400 N   0  0  0  0  0  0
    4.5780    2.7290  -23.7180 N   0  0  0  0  0  0
    6.5050    0.9090  -22.5370 N   0  0  1  0  0  0
   -3.5540    3.9780  -28.1720 O   0  0  0  0  0  0
   -5.9134    3.9224  -21.5761 H   0  0  0  0  0  0
   -6.3108    4.2719  -23.9774 H   0  0  0  0  0  0
    5.6878    3.8299  -21.3592 H   0  0  0  0  0  0
    6.8809    2.8008  -20.4499 H   0  0  0  0  0  0
    6.4607    2.5268  -24.7094 H   0  0  0  0  0  0
    6.2425    4.0660  -23.8162 H   0  0  0  0  0  0
   -5.4402    4.3157  -26.3172 H   0  0  0  0  0  0
    2.3443    1.7298  -24.8660 H   0  0  0  0  0  0
    3.1435    1.2718  -22.9501 H   0  0  0  0  0  0
    4.3565    0.5894  -24.0989 H   0  0  0  0  0  0
    4.8107   -0.1105  -21.7390 H   0  0  0  0  0  0
    7.8265    2.5909  -22.5921 H   0  0  0  0  0  0
    4.1051    2.4179  -20.9048 H   0  0  0  0  0  0
    5.3243    1.3612  -19.9926 H   0  0  0  0  0  0
   -1.2975    3.6699  -27.1154 H   0  0  0  0  0  0
    0.3847    2.1781  -20.9841 H   0  0  0  0  0  0
    7.1122    0.3841  -21.8144 H   0  0  0  0  0  0
   -2.7015    3.8592  -28.5740 H   0  0  0  0  0  0
    3.6820    9.6000  -22.3590 C   0  0  0  0  0  0
    3.1490    8.3670  -22.8060 O   0  0  0  0  0  0
    3.9300    7.2500  -22.4050 C   0  0  0  0  0  0
    3.0372   10.4238  -22.6989 H   0  0  0  0  0  0
    3.7300    9.6030  -21.2601 H   0  0  0  0  0  0
    4.6934    9.7341  -22.7702 H   0  0  0  0  0  0
    4.0040    7.2310  -21.3077 H   0  0  0  0  0  0
    4.9517    7.3580  -22.7979 H   0  0  0  0  0  0
  1  2  2  0  0  0
  1  3  1  0  0  0
  1 34  1  0  0  0
  2  6  1  0  0  0
  2 35  1  0  0  0
  3  5  2  0  0  0
  3 27  1  0  0  0
  4  5  1  0  0  0
  4  6  2  0  0  0
  4 18  1  0  0  0
  5 24  1  0  0  0
  6 10  1  0  0  0
  7 10  2  0  0  0
  7 23  1  0  0  0
  7 33  1  0  0  0
  8 21  1  0  0  0
  8 22  1  0  0  0
  8 36  1  0  0  0
  8 37  1  0  0  0
  9 21  1  0  0  0
  9 31  1  0  0  0
  9 38  1  0  0  0
  9 39  1  0  0  0
 10 40  1  0  0  0
 11 12  1  0  0  0
 11 14  2  0  0  0
 11 15  1  0  0  0
 12 17  1  0  0  0
 12 28  2  0  0  0
 13 28  1  0  0  0
 13 29  2  0  0  0
 13 54  1  0  0  0
 14 29  1  0  0  0
 14 31  1  0  0  0
 15 30  2  0  0  0
 15 41  1  0  0  0
 16 17  2  0  0  0
 16 18  1  0  0  0
 16 30  1  0  0  0
 17 26  1  0  0  0
 18 23  2  0  0  0
 19 20  1  0  0  0
 19 31  1  0  0  0
 19 42  1  0  0  0
 19 43  1  0  0  0
 20 22  1  0  0  0
 20 32  1  0  0  0
 20 44  1  0  0  0
 21 32  1  0  0  0
 21 45  1  0  0  0
 22 46  1  0  0  0
 22 47  1  0  0  0
 23 48  1  0  0  0
 24 25  3  0  0  0
 25 49  1  0  0  0
 32 50  1  0  0  0
 33 51  1  0  0  0
 52 53  1  0  0  0
 52 55  1  0  0  0
 52 56  1  0  0  0
 52 57  1  0  0  0
 53 54  1  0  0  0
 54 58  1  0  0  0
 54 59  1  0  0  0
M  END
> <s_m_entry_id>
888

> <s_m_entry_name>
000000730.1

> <s_m_Source_Path>
/Users/zaksoul/Documents/3r_UNI/2nd_SEMESTER/BSC/FRAG_RECON/RESULTS/2

> <s_m_Source_File>
000000730.mol2

> <i_m_Source_File_Index>
1

$$$$
No_0_752
                    3D
 Schrodinger Suite 2022-4.
 56 61  0  0  1  0            999 V2000
   -4.9220    3.6460  -22.0590 C   0  0  0  0  0  0
   -5.1840    3.8450  -23.3930 C   0  0  0  0  0  0
   -3.6850    3.3900  -21.7160 C   0  0  0  0  0  0
   -2.7860    3.5340  -23.8770 C   0  0  0  0  0  0
   -2.6300    3.2790  -22.4580 C   0  0  0  0  0  0
   -4.1320    3.8000  -24.4010 C   0  0  0  0  0  0
   -3.3690    3.8400  -26.5960 C   0  0  0  0  0  0
    6.3420    3.0700  -21.3030 C   0  0  0  0  0  0
    6.2120    3.2320  -23.8520 C   0  0  0  0  0  0
   -4.3790    3.9380  -25.7360 C   0  0  0  0  0  0
    2.4270    3.7780  -23.8780 C   0  0  0  0  0  0
    1.6050    4.8840  -23.5730 C   0  0  0  0  0  0
    3.4000    6.0750  -22.8770 C   0  0  0  0  0  0
    3.8260    3.9670  -23.5580 C   0  0  0  0  0  0
    1.8840    2.6660  -24.5500 C   0  0  0  0  0  0
   -0.2440    3.4770  -24.4400 C   0  0  0  0  0  0
    0.2800    4.6930  -23.8300 C   0  0  0  0  0  0
   -1.6960    3.4850  -24.7990 C   0  0  0  0  0  0
    4.4330    1.4670  -23.2840 C   0  0  0  0  0  0
    5.3630    1.1030  -22.1370 C   0  0  2  0  0  0
    6.9560    2.6490  -22.6560 C   0  0  2  0  0  0
    5.3400    2.0950  -20.9620 C   0  0  0  0  0  0
   -2.0170    3.6550  -26.2270 C   0  0  0  0  0  0
   -1.2880    2.8620  -21.8580 C   0  0  0  0  0  0
   -0.2580    2.5110  -21.3510 C   0  0  0  0  0  0
   -0.5640    5.7350  -23.4800 F   0  0  0  0  0  0
   -3.4790    3.1370  -20.3350 F   0  0  0  0  0  0
    2.0790    6.0390  -23.0310 N   0  0  0  0  0  0
    4.2970    5.1150  -23.1020 N   0  0  0  0  0  0
    0.5790    2.5780  -24.8600 N   0  0  0  0  0  0
    4.7460    2.9210  -23.7410 N   0  0  0  0  0  0
    6.7710    1.1750  -22.6140 N   0  0  1  0  0  0
   -3.5370    3.8650  -27.9860 O   0  0  0  0  0  0
   -5.7261    3.7022  -21.3342 H   0  0  0  0  0  0
   -6.1975    4.0419  -23.7235 H   0  0  0  0  0  0
    5.8705    4.0584  -21.4070 H   0  0  0  0  0  0
    7.1258    3.0750  -20.5313 H   0  0  0  0  0  0
    6.6098    2.7949  -24.7797 H   0  0  0  0  0  0
    6.3542    4.3225  -23.8762 H   0  0  0  0  0  0
   -5.3883    4.1248  -26.0845 H   0  0  0  0  0  0
    2.5241    1.8392  -24.8360 H   0  0  0  0  0  0
    3.3889    1.4075  -22.9430 H   0  0  0  0  0  0
    4.5975    0.7757  -24.1237 H   0  0  0  0  0  0
    5.1380    0.0879  -21.7778 H   0  0  0  0  0  0
    8.0244    2.9073  -22.6974 H   0  0  0  0  0  0
    4.3563    2.5853  -20.9186 H   0  0  0  0  0  0
    5.6379    1.5740  -20.0401 H   0  0  0  0  0  0
   -1.2446    3.6420  -26.9874 H   0  0  0  0  0  0
    0.6477    2.2011  -20.9051 H   0  0  0  0  0  0
    7.4166    0.6716  -21.9096 H   0  0  0  0  0  0
   -2.6908    3.7809  -28.4096 H   0  0  0  0  0  0
    5.0330    7.4740  -21.8110 O   0  0  0  0  0  0
    3.9510    7.3980  -22.4020 C   0  0  0  0  0  0
    3.2460    8.4890  -22.7280 N   0  0  0  0  0  0
    3.6068    9.4205  -22.6810 H   0  0  0  0  0  0
    2.3006    8.3990  -23.0411 H   0  0  0  0  0  0
  1  2  2  0  0  0
  1  3  1  0  0  0
  1 34  1  0  0  0
  2  6  1  0  0  0
  2 35  1  0  0  0
  3  5  2  0  0  0
  3 27  1  0  0  0
  4  5  1  0  0  0
  4  6  2  0  0  0
  4 18  1  0  0  0
  5 24  1  0  0  0
  6 10  1  0  0  0
  7 10  2  0  0  0
  7 23  1  0  0  0
  7 33  1  0  0  0
  8 21  1  0  0  0
  8 22  1  0  0  0
  8 36  1  0  0  0
  8 37  1  0  0  0
  9 21  1  0  0  0
  9 31  1  0  0  0
  9 38  1  0  0  0
  9 39  1  0  0  0
 10 40  1  0  0  0
 11 12  1  0  0  0
 11 14  2  0  0  0
 11 15  1  0  0  0
 12 17  1  0  0  0
 12 28  2  0  0  0
 13 28  1  0  0  0
 13 29  2  0  0  0
 13 53  1  0  0  0
 14 29  1  0  0  0
 14 31  1  0  0  0
 15 30  2  0  0  0
 15 41  1  0  0  0
 16 17  2  0  0  0
 16 18  1  0  0  0
 16 30  1  0  0  0
 17 26  1  0  0  0
 18 23  2  0  0  0
 19 20  1  0  0  0
 19 31  1  0  0  0
 19 42  1  0  0  0
 19 43  1  0  0  0
 20 22  1  0  0  0
 20 32  1  0  0  0
 20 44  1  0  0  0
 21 32  1  0  0  0
 21 45  1  0  0  0
 22 46  1  0  0  0
 22 47  1  0  0  0
 23 48  1  0  0  0
 24 25  3  0  0  0
 25 49  1  0  0  0
 32 50  1  0  0  0
 33 51  1  0  0  0
 52 53  2  0  0  0
 53 54  1  0  0  0
 54 55  1  0  0  0
 54 56  1  0  0  0
M  END
> <s_m_entry_id>
889

> <s_m_entry_name>
000000731.1

> <s_m_Source_Path>
/Users/zaksoul/Documents/3r_UNI/2nd_SEMESTER/BSC/FRAG_RECON/RESULTS/2

> <s_m_Source_File>
000000731.mol2

> <i_m_Source_File_Index>
1

$$$$
No_0_753
                    3D
 Schrodinger Suite 2022-4.
 56 61  0  0  1  0            999 V2000
   -5.4890    3.7340  -21.9890 C   0  0  0  0  0  0
   -5.7340    3.9000  -23.3310 C   0  0  0  0  0  0
   -4.2630    3.4480  -21.6280 C   0  0  0  0  0  0
   -3.3450    3.4940  -23.7850 C   0  0  0  0  0  0
   -3.2080    3.2770  -22.3580 C   0  0  0  0  0  0
   -4.6780    3.7890  -24.3280 C   0  0  0  0  0  0
   -3.8990    3.7340  -26.5170 C   0  0  0  0  0  0
    5.7430    2.8000  -21.1250 C   0  0  0  0  0  0
    5.6370    2.8870  -23.6780 C   0  0  0  0  0  0
   -4.9100    3.8930  -25.6690 C   0  0  0  0  0  0
    1.8730    3.5600  -23.7520 C   0  0  0  0  0  0
    1.0870    4.7020  -23.4880 C   0  0  0  0  0  0
    2.9170    5.8530  -22.8150 C   0  0  0  0  0  0
    3.2760    3.7110  -23.4270 C   0  0  0  0  0  0
    1.2970    2.4460  -24.3930 C   0  0  0  0  0  0
   -0.8030    3.3320  -24.3260 C   0  0  0  0  0  0
   -0.2420    4.5480  -23.7490 C   0  0  0  0  0  0
   -2.2510    3.3780  -24.6970 C   0  0  0  0  0  0
    3.7940    1.2020  -23.0700 C   0  0  0  0  0  0
    4.7030    0.8430  -21.9050 C   0  0  2  0  0  0
    6.3520    2.3170  -22.4590 C   0  0  2  0  0  0
    4.7060    1.8710  -20.7620 C   0  0  0  0  0  0
   -2.5560    3.5150  -26.1320 C   0  0  0  0  0  0
   -1.8850    2.8340  -21.7350 C   0  0  0  0  0  0
   -0.8720    2.4640  -21.2090 C   0  0  0  0  0  0
   -1.0520    5.6280  -23.4380 F   0  0  0  0  0  0
   -4.0760    3.2310  -20.2380 F   0  0  0  0  0  0
    1.5970    5.8570  -22.9770 N   0  0  0  0  0  0
    3.7820    4.8560  -23.0020 N   0  0  0  0  0  0
   -0.0080    2.3930  -24.7110 N   0  0  0  0  0  0
    4.1600    2.6300  -23.5690 N   0  0  0  0  0  0
    6.1160    0.8520  -22.3730 N   0  0  1  0  0  0
   -4.0560    3.7210  -27.9090 O   0  0  0  0  0  0
   -6.2961    3.8404  -21.2732 H   0  0  0  0  0  0
   -6.7379    4.1208  -23.6753 H   0  0  0  0  0  0
    5.3069    3.8005  -21.2623 H   0  0  0  0  0  0
    6.5208    2.8020  -20.3472 H   0  0  0  0  0  0
    6.0267    2.4085  -24.5886 H   0  0  0  0  0  0
    5.8166    3.9708  -23.7345 H   0  0  0  0  0  0
   -5.9102    4.1029  -26.0305 H   0  0  0  0  0  0
    1.9111    1.5901  -24.6489 H   0  0  0  0  0  0
    2.7461    1.1889  -22.7358 H   0  0  0  0  0  0
    3.9414    0.4801  -23.8868 H   0  0  0  0  0  0
    4.4416   -0.1523  -21.5164 H   0  0  0  0  0  0
    7.4290    2.5370  -22.4994 H   0  0  0  0  0  0
    3.7390    2.3949  -20.7408 H   0  0  0  0  0  0
    4.9794    1.3696  -19.8218 H   0  0  0  0  0  0
   -1.7793    3.4518  -26.8856 H   0  0  0  0  0  0
    0.0195    2.1382  -20.7462 H   0  0  0  0  0  0
    6.7393    0.3495  -21.6481 H   0  0  0  0  0  0
   -3.2100    3.5953  -28.3226 H   0  0  0  0  0  0
    3.0620    8.2490  -22.7780 O   0  0  0  0  0  0
    3.5100    7.1700  -22.3760 C   0  0  0  0  0  0
    4.4900    7.1080  -21.4640 N   0  0  0  0  0  0
    4.8019    7.8919  -20.9271 H   0  0  0  0  0  0
    4.9549    6.2403  -21.2881 H   0  0  0  0  0  0
  1  2  2  0  0  0
  1  3  1  0  0  0
  1 34  1  0  0  0
  2  6  1  0  0  0
  2 35  1  0  0  0
  3  5  2  0  0  0
  3 27  1  0  0  0
  4  5  1  0  0  0
  4  6  2  0  0  0
  4 18  1  0  0  0
  5 24  1  0  0  0
  6 10  1  0  0  0
  7 10  2  0  0  0
  7 23  1  0  0  0
  7 33  1  0  0  0
  8 21  1  0  0  0
  8 22  1  0  0  0
  8 36  1  0  0  0
  8 37  1  0  0  0
  9 21  1  0  0  0
  9 31  1  0  0  0
  9 38  1  0  0  0
  9 39  1  0  0  0
 10 40  1  0  0  0
 11 12  1  0  0  0
 11 14  2  0  0  0
 11 15  1  0  0  0
 12 17  1  0  0  0
 12 28  2  0  0  0
 13 28  1  0  0  0
 13 29  2  0  0  0
 13 53  1  0  0  0
 14 29  1  0  0  0
 14 31  1  0  0  0
 15 30  2  0  0  0
 15 41  1  0  0  0
 16 17  2  0  0  0
 16 18  1  0  0  0
 16 30  1  0  0  0
 17 26  1  0  0  0
 18 23  2  0  0  0
 19 20  1  0  0  0
 19 31  1  0  0  0
 19 42  1  0  0  0
 19 43  1  0  0  0
 20 22  1  0  0  0
 20 32  1  0  0  0
 20 44  1  0  0  0
 21 32  1  0  0  0
 21 45  1  0  0  0
 22 46  1  0  0  0
 22 47  1  0  0  0
 23 48  1  0  0  0
 24 25  3  0  0  0
 25 49  1  0  0  0
 32 50  1  0  0  0
 33 51  1  0  0  0
 52 53  2  0  0  0
 53 54  1  0  0  0
 54 55  1  0  0  0
 54 56  1  0  0  0
M  END
> <s_m_entry_id>
890

> <s_m_entry_name>
000000732.1

> <s_m_Source_Path>
/Users/zaksoul/Documents/3r_UNI/2nd_SEMESTER/BSC/FRAG_RECON/RESULTS/2

> <s_m_Source_File>
000000732.mol2

> <i_m_Source_File_Index>
1

$$$$
No_0_754
                    3D
 Schrodinger Suite 2022-4.
 56 61  0  0  1  0            999 V2000
   -5.0790    3.5760  -21.9350 C   0  0  0  0  0  0
   -5.3510    3.7440  -23.2720 C   0  0  0  0  0  0
   -3.8460    3.2910  -21.5990 C   0  0  0  0  0  0
   -2.9710    3.3430  -23.7750 C   0  0  0  0  0  0
   -2.8050    3.1230  -22.3510 C   0  0  0  0  0  0
   -4.3140    3.6370  -24.2900 C   0  0  0  0  0  0
   -3.5790    3.5880  -26.4940 C   0  0  0  0  0  0
    6.1700    2.6570  -21.2970 C   0  0  0  0  0  0
    6.0120    2.7500  -23.8470 C   0  0  0  0  0  0
   -4.5740    3.7430  -25.6260 C   0  0  0  0  0  0
    2.2470    3.4170  -23.8440 C   0  0  0  0  0  0
    1.4640    4.5570  -23.5620 C   0  0  0  0  0  0
    3.3050    5.7090  -22.9240 C   0  0  0  0  0  0
    3.6550    3.5700  -23.5470 C   0  0  0  0  0  0
    1.6600    2.3040  -24.4770 C   0  0  0  0  0  0
   -0.4400    3.1860  -24.3660 C   0  0  0  0  0  0
    0.1310    4.4020  -23.7980 C   0  0  0  0  0  0
   -1.8950    3.2310  -24.7080 C   0  0  0  0  0  0
    4.1850    1.0610  -23.2070 C   0  0  0  0  0  0
    5.1170    0.7000  -22.0610 C   0  0  2  0  0  0
    6.7530    2.1780  -22.6440 C   0  0  2  0  0  0
    5.1410    1.7260  -20.9150 C   0  0  0  0  0  0
   -2.2280    3.3700  -26.1360 C   0  0  0  0  0  0
   -1.4690    2.6810  -21.7550 C   0  0  0  0  0  0
   -0.4450    2.3110  -21.2500 C   0  0  0  0  0  0
   -0.6750    5.4800  -23.4690 F   0  0  0  0  0  0
   -3.6310    3.0710  -20.2140 F   0  0  0  0  0  0
    1.9820    5.7110  -23.0600 N   0  0  0  0  0  0
    4.1690    4.7140  -23.1310 N   0  0  0  0  0  0
    0.3480    2.2490  -24.7690 N   0  0  0  0  0  0
    4.5380    2.4900  -23.7090 N   0  0  0  0  0  0
    6.5210    0.7120  -22.5560 N   0  0  1  0  0  0
   -3.7640    3.5780  -27.8820 O   0  0  0  0  0  0
   -5.8720    3.6794  -21.2032 H   0  0  0  0  0  0
   -6.3618    3.9638  -23.5962 H   0  0  0  0  0  0
    5.7291    3.6568  -21.4231 H   0  0  0  0  0  0
    6.9628    2.6590  -20.5345 H   0  0  0  0  0  0
    6.3843    2.2738  -24.7661 H   0  0  0  0  0  0
    6.1896    3.8340  -23.9045 H   0  0  0  0  0  0
   -5.5812    3.9529  -25.9674 H   0  0  0  0  0  0
    2.2693    1.4488  -24.7460 H   0  0  0  0  0  0
    3.1443    1.0449  -22.8510 H   0  0  0  0  0  0
    4.3172    0.3404  -24.0275 H   0  0  0  0  0  0
    4.8647   -0.2961  -21.6684 H   0  0  0  0  0  0
    7.8287    2.4000  -22.7045 H   0  0  0  0  0  0
    4.1741    2.2488  -20.8736 H   0  0  0  0  0  0
    5.4337    1.2234  -19.9814 H   0  0  0  0  0  0
   -1.4667    3.3097  -26.9053 H   0  0  0  0  0  0
    0.4562    1.9859  -20.8059 H   0  0  0  0  0  0
    7.1589    0.2090  -21.8443 H   0  0  0  0  0  0
   -2.9267    3.4543  -28.3135 H   0  0  0  0  0  0
    3.2100    8.0360  -22.3410 O   0  0  0  0  0  0
    3.9050    7.0270  -22.4930 C   0  0  0  0  0  0
    5.2140    7.0200  -22.2060 N   0  0  0  0  0  0
    5.6770    7.7470  -21.6990 H   0  0  0  0  0  0
    5.7874    6.2565  -22.5032 H   0  0  0  0  0  0
  1  2  2  0  0  0
  1  3  1  0  0  0
  1 34  1  0  0  0
  2  6  1  0  0  0
  2 35  1  0  0  0
  3  5  2  0  0  0
  3 27  1  0  0  0
  4  5  1  0  0  0
  4  6  2  0  0  0
  4 18  1  0  0  0
  5 24  1  0  0  0
  6 10  1  0  0  0
  7 10  2  0  0  0
  7 23  1  0  0  0
  7 33  1  0  0  0
  8 21  1  0  0  0
  8 22  1  0  0  0
  8 36  1  0  0  0
  8 37  1  0  0  0
  9 21  1  0  0  0
  9 31  1  0  0  0
  9 38  1  0  0  0
  9 39  1  0  0  0
 10 40  1  0  0  0
 11 12  1  0  0  0
 11 14  2  0  0  0
 11 15  1  0  0  0
 12 17  1  0  0  0
 12 28  2  0  0  0
 13 28  1  0  0  0
 13 29  2  0  0  0
 13 53  1  0  0  0
 14 29  1  0  0  0
 14 31  1  0  0  0
 15 30  2  0  0  0
 15 41  1  0  0  0
 16 17  2  0  0  0
 16 18  1  0  0  0
 16 30  1  0  0  0
 17 26  1  0  0  0
 18 23  2  0  0  0
 19 20  1  0  0  0
 19 31  1  0  0  0
 19 42  1  0  0  0
 19 43  1  0  0  0
 20 22  1  0  0  0
 20 32  1  0  0  0
 20 44  1  0  0  0
 21 32  1  0  0  0
 21 45  1  0  0  0
 22 46  1  0  0  0
 22 47  1  0  0  0
 23 48  1  0  0  0
 24 25  3  0  0  0
 25 49  1  0  0  0
 32 50  1  0  0  0
 33 51  1  0  0  0
 52 53  2  0  0  0
 53 54  1  0  0  0
 54 55  1  0  0  0
 54 56  1  0  0  0
M  END
> <s_m_entry_id>
891

> <s_m_entry_name>
000000733.1

> <s_m_Source_Path>
/Users/zaksoul/Documents/3r_UNI/2nd_SEMESTER/BSC/FRAG_RECON/RESULTS/2

> <s_m_Source_File>
000000733.mol2

> <i_m_Source_File_Index>
1

$$$$
