No_0_1
                    3D
 Schrodinger Suite 2022-4.
 71 77  0  0  1  0            999 V2000
   -5.3330    3.5590  -22.6190 C   0  0  0  0  0  0
   -5.5340    3.6980  -23.9710 C   0  0  0  0  0  0
   -4.1100    3.3330  -22.2090 C   0  0  0  0  0  0
   -3.1140    3.3970  -24.3310 C   0  0  0  0  0  0
   -3.0210    3.2030  -22.8970 C   0  0  0  0  0  0
   -4.4370    3.6240  -24.9260 C   0  0  0  0  0  0
   -3.5740    3.5800  -27.0840 C   0  0  0  0  0  0
    5.8900    3.1500  -21.3250 C   0  0  0  0  0  0
    5.8760    3.2030  -23.8820 C   0  0  0  0  0  0
   -4.6230    3.7020  -26.2760 C   0  0  0  0  0  0
    2.0910    3.7020  -24.1040 C   0  0  0  0  0  0
    1.2440    4.8100  -23.8840 C   0  0  0  0  0  0
    2.9930    6.0510  -23.1590 C   0  0  0  0  0  0
    3.4720    3.9210  -23.7290 C   0  0  0  0  0  0
    1.5900    2.5560  -24.7520 C   0  0  0  0  0  0
   -0.5490    3.3460  -24.7740 C   0  0  0  0  0  0
   -0.0650    4.5920  -24.1930 C   0  0  0  0  0  0
   -1.9820    3.3210  -25.2000 C   0  0  0  0  0  0
    4.0900    1.4430  -23.3210 C   0  0  0  0  0  0
    4.9690    1.1380  -22.1180 C   0  0  2  0  0  0
    6.5700    2.6790  -22.6290 C   0  0  2  0  0  0
    4.8830    2.1790  -20.9890 C   0  0  0  0  0  0
   -2.2380    3.4270  -26.6460 C   0  0  0  0  0  0
   -1.7040    2.8270  -22.2190 C   0  0  0  0  0  0
   -0.6960    2.5100  -21.6510 C   0  0  0  0  0  0
   -0.9350    5.6380  -23.9270 F   0  0  0  0  0  0
   -3.9660    3.1410  -20.8100 F   0  0  0  0  0  0
    1.6820    5.9920  -23.3710 N   0  0  0  0  0  0
    3.9100    5.0920  -23.3010 N   0  0  0  0  0  0
    0.3020    2.4390  -25.1180 N   0  0  0  0  0  0
    4.4090    2.8790  -23.8240 N   0  0  0  0  0  0
    6.3970    1.2060  -22.5330 N   0  0  1  0  0  0
   -3.6780    3.5450  -28.4800 O   0  0  0  0  0  0
   -6.1700    3.6373  -21.9346 H   0  0  0  0  0  0
   -6.5332    3.8685  -24.3552 H   0  0  0  0  0  0
    5.4147    4.1278  -21.4925 H   0  0  0  0  0  0
    6.6373    3.1965  -20.5191 H   0  0  0  0  0  0
    6.3209    2.7318  -24.7708 H   0  0  0  0  0  0
    6.0082    4.2932  -23.9456 H   0  0  0  0  0  0
   -5.6171    3.8625  -26.6773 H   0  0  0  0  0  0
    2.2514    1.7260  -24.9728 H   0  0  0  0  0  0
    3.0320    1.3845  -23.0255 H   0  0  0  0  0  0
    4.3008    0.7189  -24.1218 H   0  0  0  0  0  0
    4.7378    0.1365  -21.7263 H   0  0  0  0  0  0
    7.6365    2.9484  -22.6330 H   0  0  0  0  0  0
    3.8932    2.6583  -21.0112 H   0  0  0  0  0  0
    5.1424    1.7005  -20.0331 H   0  0  0  0  0  0
   -1.4319    3.3909  -27.3698 H   0  0  0  0  0  0
    0.1915    2.2312  -21.1513 H   0  0  0  0  0  0
    7.0150    0.7409  -21.7792 H   0  0  0  0  0  0
   -2.8125    3.4530  -28.8608 H   0  0  0  0  0  0
    7.1340    9.0680  -20.8800 N   0  3  1  0  0  0
    5.1090    8.6810  -21.1470 C   0  0  2  0  0  0
    3.5140    7.4120  -22.7110 C   0  0  0  0  0  0
    6.2450    9.1640  -22.0820 C   0  0  0  0  0  0
    6.0870    8.5290  -19.9560 C   0  0  0  0  0  0
    4.5080    7.3170  -21.5380 C   0  0  0  0  0  0
    8.3510    8.2020  -21.0490 C   0  0  0  0  0  0
    7.4090    9.9911  -20.5830 H   0  0  0  0  0  0
    4.3420    9.4500  -20.9730 H   0  0  0  0  0  0
    3.9987    7.9156  -23.5604 H   0  0  0  0  0  0
    2.6665    8.0504  -22.4208 H   0  0  0  0  0  0
    6.5020    8.3200  -22.7390 H   0  0  0  0  0  0
    6.0731   10.2343  -22.2689 H   0  0  0  0  0  0
    5.8480    9.3291  -19.2399 H   0  0  0  0  0  0
    6.2861    7.4535  -19.8389 H   0  0  0  0  0  0
    4.0033    6.8763  -20.6656 H   0  0  0  0  0  0
    5.3193    6.6226  -21.8018 H   0  0  0  0  0  0
    8.9320    8.1990  -20.1150 H   0  0  0  0  0  0
    8.0399    7.1748  -21.2900 H   0  0  0  0  0  0
    8.9724    8.5983  -21.8656 H   0  0  0  0  0  0
  1  2  2  0  0  0
  1  3  1  0  0  0
  1 34  1  0  0  0
  2  6  1  0  0  0
  2 35  1  0  0  0
  3  5  2  0  0  0
  3 27  1  0  0  0
  4  5  1  0  0  0
  4  6  2  0  0  0
  4 18  1  0  0  0
  5 24  1  0  0  0
  6 10  1  0  0  0
  7 10  2  0  0  0
  7 23  1  0  0  0
  7 33  1  0  0  0
  8 21  1  0  0  0
  8 22  1  0  0  0
  8 36  1  0  0  0
  8 37  1  0  0  0
  9 21  1  0  0  0
  9 31  1  0  0  0
  9 38  1  0  0  0
  9 39  1  0  0  0
 10 40  1  0  0  0
 11 12  1  0  0  0
 11 14  2  0  0  0
 11 15  1  0  0  0
 12 17  1  0  0  0
 12 28  2  0  0  0
 13 28  1  0  0  0
 13 29  2  0  0  0
 13 54  1  0  0  0
 14 29  1  0  0  0
 14 31  1  0  0  0
 15 30  2  0  0  0
 15 41  1  0  0  0
 16 17  2  0  0  0
 16 18  1  0  0  0
 16 30  1  0  0  0
 17 26  1  0  0  0
 18 23  2  0  0  0
 19 20  1  0  0  0
 19 31  1  0  0  0
 19 42  1  0  0  0
 19 43  1  0  0  0
 20 22  1  0  0  0
 20 32  1  0  0  0
 20 44  1  0  0  0
 21 32  1  0  0  0
 21 45  1  0  0  0
 22 46  1  0  0  0
 22 47  1  0  0  0
 23 48  1  0  0  0
 24 25  3  0  0  0
 25 49  1  0  0  0
 32 50  1  0  0  0
 33 51  1  0  0  0
 52 55  1  0  0  0
 52 56  1  0  0  0
 52 58  1  0  0  0
 52 59  1  0  0  0
 53 55  1  0  0  0
 53 56  1  0  0  0
 53 57  1  0  0  0
 53 60  1  0  0  0
 54 57  1  0  0  0
 54 61  1  0  0  0
 54 62  1  0  0  0
 55 63  1  0  0  0
 55 64  1  0  0  0
 56 65  1  0  0  0
 56 66  1  0  0  0
 57 67  1  0  0  0
 57 68  1  0  0  0
 58 69  1  0  0  0
 58 70  1  0  0  0
 58 71  1  0  0  0
M  CHG  1  52   1
M  END
> <s_m_entry_id>
1

> <s_m_entry_name>
000000001.1

> <s_m_Source_Path>
/Users/zaksoul/Documents/2

> <s_m_Source_File>
000000001.mol2

> <i_m_Source_File_Index>
1

$$$$
No_0_2
                    3D
 Schrodinger Suite 2022-4.
 71 77  0  0  1  0            999 V2000
   -5.1680    3.4240  -22.1130 C   0  0  0  0  0  0
   -5.4130    3.5620  -23.4580 C   0  0  0  0  0  0
   -3.9300    3.2180  -21.7400 C   0  0  0  0  0  0
   -3.0000    3.3010  -23.8920 C   0  0  0  0  0  0
   -2.8600    3.1070  -22.4610 C   0  0  0  0  0  0
   -4.3440    3.5070  -24.4460 C   0  0  0  0  0  0
   -3.5460    3.4800  -26.6290 C   0  0  0  0  0  0
    6.0940    3.2000  -21.1600 C   0  0  0  0  0  0
    6.0020    3.2560  -23.7150 C   0  0  0  0  0  0
   -4.5720    3.5840  -25.7900 C   0  0  0  0  0  0
    2.2040    3.6920  -23.8220 C   0  0  0  0  0  0
    1.3460    4.7850  -23.5750 C   0  0  0  0  0  0
    3.0960    6.0540  -22.9010 C   0  0  0  0  0  0
    3.5920    3.9340  -23.4890 C   0  0  0  0  0  0
    1.7030    2.5390  -24.4560 C   0  0  0  0  0  0
   -0.4480    3.2930  -24.4130 C   0  0  0  0  0  0
    0.0310    4.5470  -23.8440 C   0  0  0  0  0  0
   -1.8940    3.2450  -24.7940 C   0  0  0  0  0  0
    4.2630    1.4650  -23.1040 C   0  0  0  0  0  0
    5.1830    1.1740  -21.9290 C   0  0  2  0  0  0
    6.7420    2.7430  -22.4850 C   0  0  2  0  0  0
    5.1140    2.2120  -20.7960 C   0  0  0  0  0  0
   -2.1950    3.3490  -26.2330 C   0  0  0  0  0  0
   -1.5170    2.7520  -21.8240 C   0  0  0  0  0  0
   -0.4870    2.4510  -21.2880 C   0  0  0  0  0  0
   -0.8470    5.5770  -23.5500 F   0  0  0  0  0  0
   -3.7400    3.0270  -20.3470 F   0  0  0  0  0  0
    1.7790    5.9740  -23.0720 N   0  0  0  0  0  0
    4.0230    5.1120  -23.0720 N   0  0  0  0  0  0
    0.4060    2.4020  -24.7830 N   0  0  0  0  0  0
    4.5430    2.9080  -23.6140 N   0  0  0  0  0  0
    6.5970    1.2670  -22.3860 N   0  0  1  0  0  0
   -3.6920    3.4450  -28.0220 O   0  0  0  0  0  0
   -5.9850    3.4872  -21.4034 H   0  0  0  0  0  0
   -6.4257    3.7166  -23.8123 H   0  0  0  0  0  0
    5.5975    4.1698  -21.3114 H   0  0  0  0  0  0
    6.8642    3.2575  -20.3767 H   0  0  0  0  0  0
    6.4269    2.7938  -24.6182 H   0  0  0  0  0  0
    6.1141    4.3482  -23.7816 H   0  0  0  0  0  0
   -5.5805    3.7276  -26.1606 H   0  0  0  0  0  0
    2.3710    1.7205  -24.6987 H   0  0  0  0  0  0
    3.2157    1.3893  -22.7761 H   0  0  0  0  0  0
    4.4610    0.7456  -23.9123 H   0  0  0  0  0  0
    4.9811    0.1685  -21.5312 H   0  0  0  0  0  0
    7.8034    3.0295  -22.5203 H   0  0  0  0  0  0
    4.1159    2.6742  -20.7869 H   0  0  0  0  0  0
    5.4105    1.7371  -19.8491 H   0  0  0  0  0  0
   -1.4098    3.3269  -26.9800 H   0  0  0  0  0  0
    0.4198    2.1861  -20.8161 H   0  0  0  0  0  0
    7.2446    0.8110  -21.6517 H   0  0  0  0  0  0
   -2.8368    3.3679  -28.4284 H   0  0  0  0  0  0
    7.4400    9.2980  -21.4680 N   0  3  1  0  0  0
    5.4540    8.7260  -21.2440 C   0  0  2  0  0  0
    3.6070    7.4240  -22.4660 C   0  0  0  0  0  0
    6.2600    9.3940  -22.3850 C   0  0  0  0  0  0
    6.7210    8.5850  -20.3660 C   0  0  0  0  0  0
    4.8810    7.3410  -21.6030 C   0  0  0  0  0  0
    8.6330    8.5770  -22.0300 C   0  0  0  0  0  0
    7.7100   10.2190  -21.1600 H   0  0  0  0  0  0
    4.7021    9.3969  -20.8030 H   0  0  0  0  0  0
    3.8080    8.0381  -23.3562 H   0  0  0  0  0  0
    2.8187    7.9472  -21.9048 H   0  0  0  0  0  0
    6.3990    8.6340  -23.1680 H   0  0  0  0  0  0
    5.9600   10.4519  -22.4130 H   0  0  0  0  0  0
    6.6180    9.2981  -19.5348 H   0  0  0  0  0  0
    7.0278    7.5297  -20.4130 H   0  0  0  0  0  0
    4.6609    6.7856  -20.6794 H   0  0  0  0  0  0
    5.6459    6.7561  -22.1349 H   0  0  0  0  0  0
    9.4392    8.5630  -21.2818 H   0  0  0  0  0  0
    8.3519    7.5448  -22.2861 H   0  0  0  0  0  0
    8.9829    9.0958  -22.9347 H   0  0  0  0  0  0
  1  2  2  0  0  0
  1  3  1  0  0  0
  1 34  1  0  0  0
  2  6  1  0  0  0
  2 35  1  0  0  0
  3  5  2  0  0  0
  3 27  1  0  0  0
  4  5  1  0  0  0
  4  6  2  0  0  0
  4 18  1  0  0  0
  5 24  1  0  0  0
  6 10  1  0  0  0
  7 10  2  0  0  0
  7 23  1  0  0  0
  7 33  1  0  0  0
  8 21  1  0  0  0
  8 22  1  0  0  0
  8 36  1  0  0  0
  8 37  1  0  0  0
  9 21  1  0  0  0
  9 31  1  0  0  0
  9 38  1  0  0  0
  9 39  1  0  0  0
 10 40  1  0  0  0
 11 12  1  0  0  0
 11 14  2  0  0  0
 11 15  1  0  0  0
 12 17  1  0  0  0
 12 28  2  0  0  0
 13 28  1  0  0  0
 13 29  2  0  0  0
 13 54  1  0  0  0
 14 29  1  0  0  0
 14 31  1  0  0  0
 15 30  2  0  0  0
 15 41  1  0  0  0
 16 17  2  0  0  0
 16 18  1  0  0  0
 16 30  1  0  0  0
 17 26  1  0  0  0
 18 23  2  0  0  0
 19 20  1  0  0  0
 19 31  1  0  0  0
 19 42  1  0  0  0
 19 43  1  0  0  0
 20 22  1  0  0  0
 20 32  1  0  0  0
 20 44  1  0  0  0
 21 32  1  0  0  0
 21 45  1  0  0  0
 22 46  1  0  0  0
 22 47  1  0  0  0
 23 48  1  0  0  0
 24 25  3  0  0  0
 25 49  1  0  0  0
 32 50  1  0  0  0
 33 51  1  0  0  0
 52 55  1  0  0  0
 52 56  1  0  0  0
 52 58  1  0  0  0
 52 59  1  0  0  0
 53 55  1  0  0  0
 53 56  1  0  0  0
 53 57  1  0  0  0
 53 60  1  0  0  0
 54 57  1  0  0  0
 54 61  1  0  0  0
 54 62  1  0  0  0
 55 63  1  0  0  0
 55 64  1  0  0  0
 56 65  1  0  0  0
 56 66  1  0  0  0
 57 67  1  0  0  0
 57 68  1  0  0  0
 58 69  1  0  0  0
 58 70  1  0  0  0
 58 71  1  0  0  0
M  CHG  1  52   1
M  END
> <s_m_entry_id>
2

> <s_m_entry_name>
000000002.1

> <s_m_Source_Path>
/Users/zaksoul/Documents/2

> <s_m_Source_File>
000000002.mol2

> <i_m_Source_File_Index>
1

$$$$
No_0_3
                    3D
 Schrodinger Suite 2022-4.
 71 77  0  0  1  0            999 V2000
   -5.2630    3.3080  -22.0950 C   0  0  0  0  0  0
   -5.5050    3.5080  -23.4340 C   0  0  0  0  0  0
   -4.0260    3.0890  -21.7300 C   0  0  0  0  0  0
   -3.0910    3.2750  -23.8730 C   0  0  0  0  0  0
   -2.9540    3.0150  -22.4530 C   0  0  0  0  0  0
   -4.4340    3.5030  -24.4210 C   0  0  0  0  0  0
   -3.6310    3.5800  -26.6010 C   0  0  0  0  0  0
    5.9970    3.0740  -21.1270 C   0  0  0  0  0  0
    5.9100    3.2490  -23.6760 C   0  0  0  0  0  0
   -4.6590    3.6420  -25.7600 C   0  0  0  0  0  0
    2.1120    3.6780  -23.7720 C   0  0  0  0  0  0
    1.2500    4.7560  -23.4760 C   0  0  0  0  0  0
    2.9940    5.9980  -22.7390 C   0  0  0  0  0  0
    3.4980    3.9080  -23.4240 C   0  0  0  0  0  0
    1.6160    2.5540  -24.4610 C   0  0  0  0  0  0
   -0.5380    3.2990  -24.3870 C   0  0  0  0  0  0
   -0.0640    4.5270  -23.7600 C   0  0  0  0  0  0
   -1.9820    3.2650  -24.7740 C   0  0  0  0  0  0
    4.1760    1.4270  -23.1540 C   0  0  0  0  0  0
    5.0940    1.0830  -21.9910 C   0  0  2  0  0  0
    6.6490    2.6810  -22.4700 C   0  0  2  0  0  0
    5.0190    2.0670  -20.8110 C   0  0  0  0  0  0
   -2.2810    3.4350  -26.2070 C   0  0  0  0  0  0
   -1.6110    2.6350  -21.8300 C   0  0  0  0  0  0
   -0.5810    2.3130  -21.3050 C   0  0  0  0  0  0
   -0.9460    5.5400  -23.4200 F   0  0  0  0  0  0
   -3.8380    2.8330  -20.3470 F   0  0  0  0  0  0
    1.6780    5.9220  -22.9180 N   0  0  0  0  0  0
    3.9250    5.0670  -22.9520 N   0  0  0  0  0  0
    0.3200    2.4290  -24.7970 N   0  0  0  0  0  0
    4.4520    2.8920  -23.5950 N   0  0  0  0  0  0
    6.5080    1.2020  -22.4410 N   0  0  1  0  0  0
   -3.7740    3.6100  -27.9940 O   0  0  0  0  0  0
   -6.0829    3.3361  -21.3865 H   0  0  0  0  0  0
   -6.5176    3.6766  -23.7822 H   0  0  0  0  0  0
    5.4973    4.0482  -21.2330 H   0  0  0  0  0  0
    6.7650    3.0972  -20.3398 H   0  0  0  0  0  0
    6.3389    2.8302  -24.5983 H   0  0  0  0  0  0
    6.0200    4.3434  -23.6911 H   0  0  0  0  0  0
   -5.6671    3.7995  -26.1261 H   0  0  0  0  0  0
    2.2868    1.7496  -24.7402 H   0  0  0  0  0  0
    3.1284    1.3322  -22.8323 H   0  0  0  0  0  0
    4.3779    0.7457  -23.9937 H   0  0  0  0  0  0
    4.8941    0.0593  -21.6417 H   0  0  0  0  0  0
    7.7097    2.9717  -22.4892 H   0  0  0  0  0  0
    4.0198    2.5262  -20.7827 H   0  0  0  0  0  0
    5.3147    1.5493  -19.8866 H   0  0  0  0  0  0
   -1.4943    3.4501  -26.9526 H   0  0  0  0  0  0
    0.3252    2.0279  -20.8439 H   0  0  0  0  0  0
    7.1556    0.7147  -21.7272 H   0  0  0  0  0  0
   -2.9172    3.5546  -28.4006 H   0  0  0  0  0  0
    7.3260    9.4490  -21.8650 N   0  3  1  0  0  0
    5.4900    8.6630  -21.2870 C   0  0  2  0  0  0
    3.5000    7.3470  -22.2400 C   0  0  0  0  0  0
    5.9600    9.5420  -22.4730 C   0  0  0  0  0  0
    6.9340    8.5400  -20.7430 C   0  0  0  0  0  0
    4.9430    7.2840  -21.7030 C   0  0  0  0  0  0
    8.4000    8.9230  -22.7750 C   0  0  0  0  0  0
    7.5979   10.3476  -21.4981 H   0  0  0  0  0  0
    4.8186    9.1983  -20.5996 H   0  0  0  0  0  0
    3.4460    8.0823  -23.0563 H   0  0  0  0  0  0
    2.8312    7.7179  -21.4493 H   0  0  0  0  0  0
    5.9630    8.9004  -23.3665 H   0  0  0  0  0  0
    5.5929   10.5614  -22.2829 H   0  0  0  0  0  0
    6.9800    9.1327  -19.8175 H   0  0  0  0  0  0
    7.2909    7.5333  -21.0059 H   0  0  0  0  0  0
    4.9830    6.6002  -20.8423 H   0  0  0  0  0  0
    5.5993    6.8458  -22.4693 H   0  0  0  0  0  0
    9.3575    8.8950  -22.2343 H   0  0  0  0  0  0
    8.1361    7.9074  -23.1049 H   0  0  0  0  0  0
    8.4930    9.5802  -23.6522 H   0  0  0  0  0  0
  1  2  2  0  0  0
  1  3  1  0  0  0
  1 34  1  0  0  0
  2  6  1  0  0  0
  2 35  1  0  0  0
  3  5  2  0  0  0
  3 27  1  0  0  0
  4  5  1  0  0  0
  4  6  2  0  0  0
  4 18  1  0  0  0
  5 24  1  0  0  0
  6 10  1  0  0  0
  7 10  2  0  0  0
  7 23  1  0  0  0
  7 33  1  0  0  0
  8 21  1  0  0  0
  8 22  1  0  0  0
  8 36  1  0  0  0
  8 37  1  0  0  0
  9 21  1  0  0  0
  9 31  1  0  0  0
  9 38  1  0  0  0
  9 39  1  0  0  0
 10 40  1  0  0  0
 11 12  1  0  0  0
 11 14  2  0  0  0
 11 15  1  0  0  0
 12 17  1  0  0  0
 12 28  2  0  0  0
 13 28  1  0  0  0
 13 29  2  0  0  0
 13 54  1  0  0  0
 14 29  1  0  0  0
 14 31  1  0  0  0
 15 30  2  0  0  0
 15 41  1  0  0  0
 16 17  2  0  0  0
 16 18  1  0  0  0
 16 30  1  0  0  0
 17 26  1  0  0  0
 18 23  2  0  0  0
 19 20  1  0  0  0
 19 31  1  0  0  0
 19 42  1  0  0  0
 19 43  1  0  0  0
 20 22  1  0  0  0
 20 32  1  0  0  0
 20 44  1  0  0  0
 21 32  1  0  0  0
 21 45  1  0  0  0
 22 46  1  0  0  0
 22 47  1  0  0  0
 23 48  1  0  0  0
 24 25  3  0  0  0
 25 49  1  0  0  0
 32 50  1  0  0  0
 33 51  1  0  0  0
 52 55  1  0  0  0
 52 56  1  0  0  0
 52 58  1  0  0  0
 52 59  1  0  0  0
 53 55  1  0  0  0
 53 56  1  0  0  0
 53 57  1  0  0  0
 53 60  1  0  0  0
 54 57  1  0  0  0
 54 61  1  0  0  0
 54 62  1  0  0  0
 55 63  1  0  0  0
 55 64  1  0  0  0
 56 65  1  0  0  0
 56 66  1  0  0  0
 57 67  1  0  0  0
 57 68  1  0  0  0
 58 69  1  0  0  0
 58 70  1  0  0  0
 58 71  1  0  0  0
M  CHG  1  52   1
M  END
> <s_m_entry_id>
3

> <s_m_entry_name>
000000003.1

> <s_m_Source_Path>
/Users/zaksoul/Documents/2

> <s_m_Source_File>
000000003.mol2

> <i_m_Source_File_Index>
1

$$$$
No_0_4
                    3D
 Schrodinger Suite 2022-4.
 71 77  0  0  1  0            999 V2000
   -5.6050    3.1070  -22.2680 C   0  0  0  0  0  0
   -5.8030    3.3430  -23.6080 C   0  0  0  0  0  0
   -4.3820    2.8610  -21.8710 C   0  0  0  0  0  0
   -3.3790    3.0850  -23.9790 C   0  0  0  0  0  0
   -3.2900    2.7880  -22.5620 C   0  0  0  0  0  0
   -4.7010    3.3460  -24.5620 C   0  0  0  0  0  0
   -3.8300    3.4640  -26.7130 C   0  0  0  0  0  0
    5.6150    2.6840  -20.9600 C   0  0  0  0  0  0
    5.6100    2.9220  -23.5060 C   0  0  0  0  0  0
   -4.8830    3.5200  -25.9030 C   0  0  0  0  0  0
    1.8230    3.4090  -23.7080 C   0  0  0  0  0  0
    0.9670    4.4920  -23.4120 C   0  0  0  0  0  0
    2.7050    5.6900  -22.5910 C   0  0  0  0  0  0
    3.2010    3.6100  -23.3120 C   0  0  0  0  0  0
    1.3330    2.3100  -24.4390 C   0  0  0  0  0  0
   -0.8120    3.0840  -24.4140 C   0  0  0  0  0  0
   -0.3400    4.2890  -23.7410 C   0  0  0  0  0  0
   -2.2430    3.0810  -24.8460 C   0  0  0  0  0  0
    3.8350    1.1130  -23.0820 C   0  0  0  0  0  0
    4.7120    0.7280  -21.9010 C   0  0  2  0  0  0
    6.3040    2.3140  -22.2920 C   0  0  2  0  0  0
    4.6140    1.6840  -20.7000 C   0  0  0  0  0  0
   -2.4950    3.2900  -26.2820 C   0  0  0  0  0  0
   -1.9720    2.3740  -21.9070 C   0  0  0  0  0  0
   -0.9640    2.0240  -21.3600 C   0  0  0  0  0  0
   -1.2180    5.3060  -23.4040 F   0  0  0  0  0  0
   -4.2420    2.5690  -20.4890 F   0  0  0  0  0  0
    1.3940    5.6370  -22.8120 N   0  0  0  0  0  0
    3.6290    4.7510  -22.7990 N   0  0  0  0  0  0
    0.0470    2.2110  -24.8180 N   0  0  0  0  0  0
    4.1460    2.5850  -23.4790 N   0  0  0  0  0  0
    6.1410    0.8370  -22.3040 N   0  0  1  0  0  0
   -3.9290    3.5300  -28.1090 O   0  0  0  0  0  0
   -6.4457    3.1291  -21.5840 H   0  0  0  0  0  0
   -6.8019    3.5337  -23.9834 H   0  0  0  0  0  0
    5.1335    3.6682  -21.0579 H   0  0  0  0  0  0
    6.3588    2.6769  -20.1496 H   0  0  0  0  0  0
    6.0618    2.5196  -24.4247 H   0  0  0  0  0  0
    5.7351    4.0148  -23.4909 H   0  0  0  0  0  0
   -5.8765    3.7026  -26.2964 H   0  0  0  0  0  0
    2.0014    1.5031  -24.7170 H   0  0  0  0  0  0
    2.7763    1.0262  -22.7964 H   0  0  0  0  0  0
    4.0540    0.4510  -23.9327 H   0  0  0  0  0  0
    4.4868   -0.3010  -21.5839 H   0  0  0  0  0  0
    7.3687    2.5898  -22.2718 H   0  0  0  0  0  0
    3.6207    2.1564  -20.6909 H   0  0  0  0  0  0
    4.8732    1.1393  -19.7801 H   0  0  0  0  0  0
   -1.6853    3.3121  -27.0024 H   0  0  0  0  0  0
   -0.0768    1.7149  -20.8779 H   0  0  0  0  0  0
    6.7588    0.3229  -21.5826 H   0  0  0  0  0  0
   -3.0611    3.4716  -28.4910 H   0  0  0  0  0  0
    6.5570    9.7610  -22.7490 N   0  3  1  0  0  0
    5.2510    8.5430  -21.6860 C   0  0  2  0  0  0
    3.2140    7.0180  -22.0440 C   0  0  0  0  0  0
    5.0630    9.6710  -22.7300 C   0  0  0  0  0  0
    6.7920    8.6280  -21.8000 C   0  0  0  0  0  0
    4.7440    7.1630  -22.1500 C   0  0  0  0  0  0
    7.1930    9.6080  -24.1030 C   0  0  0  0  0  0
    6.8529   10.6278  -22.3281 H   0  0  0  0  0  0
    4.8809    8.8191  -20.6876 H   0  0  0  0  0  0
    2.7303    7.8455  -22.5837 H   0  0  0  0  0  0
    2.9090    7.1210  -20.9921 H   0  0  0  0  0  0
    4.7582    9.1903  -23.6713 H   0  0  0  0  0  0
    4.6950   10.5540  -22.1870 H   0  0  0  0  0  0
    7.1597    9.0667  -20.8607 H   0  0  0  0  0  0
    7.1182    7.7666  -22.4013 H   0  0  0  0  0  0
    5.2281    6.3769  -21.5519 H   0  0  0  0  0  0
    5.0561    6.9899  -23.1905 H   0  0  0  0  0  0
    8.2857    9.6890  -24.0060 H   0  0  0  0  0  0
    6.9350    8.6238  -24.5211 H   0  0  0  0  0  0
    6.8250   10.3990  -24.7730 H   0  0  0  0  0  0
  1  2  2  0  0  0
  1  3  1  0  0  0
  1 34  1  0  0  0
  2  6  1  0  0  0
  2 35  1  0  0  0
  3  5  2  0  0  0
  3 27  1  0  0  0
  4  5  1  0  0  0
  4  6  2  0  0  0
  4 18  1  0  0  0
  5 24  1  0  0  0
  6 10  1  0  0  0
  7 10  2  0  0  0
  7 23  1  0  0  0
  7 33  1  0  0  0
  8 21  1  0  0  0
  8 22  1  0  0  0
  8 36  1  0  0  0
  8 37  1  0  0  0
  9 21  1  0  0  0
  9 31  1  0  0  0
  9 38  1  0  0  0
  9 39  1  0  0  0
 10 40  1  0  0  0
 11 12  1  0  0  0
 11 14  2  0  0  0
 11 15  1  0  0  0
 12 17  1  0  0  0
 12 28  2  0  0  0
 13 28  1  0  0  0
 13 29  2  0  0  0
 13 54  1  0  0  0
 14 29  1  0  0  0
 14 31  1  0  0  0
 15 30  2  0  0  0
 15 41  1  0  0  0
 16 17  2  0  0  0
 16 18  1  0  0  0
 16 30  1  0  0  0
 17 26  1  0  0  0
 18 23  2  0  0  0
 19 20  1  0  0  0
 19 31  1  0  0  0
 19 42  1  0  0  0
 19 43  1  0  0  0
 20 22  1  0  0  0
 20 32  1  0  0  0
 20 44  1  0  0  0
 21 32  1  0  0  0
 21 45  1  0  0  0
 22 46  1  0  0  0
 22 47  1  0  0  0
 23 48  1  0  0  0
 24 25  3  0  0  0
 25 49  1  0  0  0
 32 50  1  0  0  0
 33 51  1  0  0  0
 52 55  1  0  0  0
 52 56  1  0  0  0
 52 58  1  0  0  0
 52 59  1  0  0  0
 53 55  1  0  0  0
 53 56  1  0  0  0
 53 57  1  0  0  0
 53 60  1  0  0  0
 54 57  1  0  0  0
 54 61  1  0  0  0
 54 62  1  0  0  0
 55 63  1  0  0  0
 55 64  1  0  0  0
 56 65  1  0  0  0
 56 66  1  0  0  0
 57 67  1  0  0  0
 57 68  1  0  0  0
 58 69  1  0  0  0
 58 70  1  0  0  0
 58 71  1  0  0  0
M  CHG  1  52   1
M  END
> <s_m_entry_id>
4

> <s_m_entry_name>
000000004.1

> <s_m_Source_Path>
/Users/zaksoul/Documents/2

> <s_m_Source_File>
000000004.mol2

> <i_m_Source_File_Index>
1

$$$$
No_0_5
                    3D
 Schrodinger Suite 2022-4.
 71 77  0  0  1  0            999 V2000
   -5.4480    3.2890  -22.2880 C   0  0  0  0  0  0
   -5.6990    3.4690  -23.6280 C   0  0  0  0  0  0
   -4.2090    3.0680  -21.9290 C   0  0  0  0  0  0
   -3.2890    3.2140  -24.0810 C   0  0  0  0  0  0
   -3.1440    2.9750  -22.6580 C   0  0  0  0  0  0
   -4.6350    3.4420  -24.6230 C   0  0  0  0  0  0
   -3.8480    3.4790  -26.8090 C   0  0  0  0  0  0
    5.8170    2.9970  -21.3990 C   0  0  0  0  0  0
    5.7130    3.1320  -23.9500 C   0  0  0  0  0  0
   -4.8690    3.5610  -25.9620 C   0  0  0  0  0  0
    1.9160    3.5850  -24.0250 C   0  0  0  0  0  0
    1.0630    4.6730  -23.7400 C   0  0  0  0  0  0
    2.8210    5.9140  -23.0350 C   0  0  0  0  0  0
    3.3070    3.8110  -23.6910 C   0  0  0  0  0  0
    1.4080    2.4540  -24.6920 C   0  0  0  0  0  0
   -0.7400    3.2130  -24.6140 C   0  0  0  0  0  0
   -0.2530    4.4470  -24.0100 C   0  0  0  0  0  0
   -2.1880    3.1820  -24.9900 C   0  0  0  0  0  0
    3.9700    1.3300  -23.3860 C   0  0  0  0  0  0
    4.8950    0.9990  -22.2250 C   0  0  2  0  0  0
    6.4570    2.5790  -22.7400 C   0  0  2  0  0  0
    4.8350    2.0010  -21.0600 C   0  0  0  0  0  0
   -2.4960    3.3320  -26.4230 C   0  0  0  0  0  0
   -1.7980    2.5970  -22.0390 C   0  0  0  0  0  0
   -0.7670    2.2760  -21.5170 C   0  0  0  0  0  0
   -1.1260    5.4710  -23.6790 F   0  0  0  0  0  0
   -4.0130    2.8330  -20.5430 F   0  0  0  0  0  0
    1.5030    5.8440  -23.2030 N   0  0  0  0  0  0
    3.7440    4.9740  -23.2400 N   0  0  0  0  0  0
    0.1090    2.3310  -25.0160 N   0  0  0  0  0  0
    4.2530    2.7870  -23.8530 N   0  0  0  0  0  0
    6.3070    1.1010  -22.6870 N   0  0  1  0  0  0
   -4.0000    3.4880  -28.2010 O   0  0  0  0  0  0
   -6.2624    3.3332  -21.5740 H   0  0  0  0  0  0
   -6.7131    3.6387  -23.9714 H   0  0  0  0  0  0
    5.3235    3.9730  -21.5171 H   0  0  0  0  0  0
    6.5910    3.0283  -20.6180 H   0  0  0  0  0  0
    6.1318    2.6970  -24.8694 H   0  0  0  0  0  0
    5.8290    4.2254  -23.9823 H   0  0  0  0  0  0
   -5.8786    3.7196  -26.3233 H   0  0  0  0  0  0
    2.0716    1.6408  -24.9631 H   0  0  0  0  0  0
    2.9240    1.2472  -23.0558 H   0  0  0  0  0  0
    4.1627    0.6348  -24.2164 H   0  0  0  0  0  0
    4.6912   -0.0180  -21.8588 H   0  0  0  0  0  0
    7.5194    2.8625  -22.7713 H   0  0  0  0  0  0
    3.8391    2.4672  -21.0317 H   0  0  0  0  0  0
    5.1347    1.4965  -20.1296 H   0  0  0  0  0  0
   -1.7146    3.3300  -27.1743 H   0  0  0  0  0  0
    0.1410    1.9930  -21.0580 H   0  0  0  0  0  0
    6.9560    0.6209  -21.9696 H   0  0  0  0  0  0
   -3.1473    3.4207  -28.6145 H   0  0  0  0  0  0
    7.2830    8.4280  -21.2400 N   0  3  0  0  0  0
    5.2150    8.4160  -21.1840 C   0  0  0  0  0  0
    3.3390    7.2680  -22.5610 C   0  0  0  0  0  0
    6.2570    8.6920  -22.2970 C   0  0  0  0  0  0
    6.3190    8.1590  -20.1270 C   0  0  0  0  0  0
    4.3770    7.1410  -21.4240 C   0  0  0  0  0  0
    4.3720    9.6570  -20.8360 C   0  0  0  0  0  0
    7.7721    9.2871  -21.0430 H   0  0  0  0  0  0
    7.7651    7.5718  -21.4650 H   0  0  0  0  0  0
    3.7900    7.8040  -23.4091 H   0  0  0  0  0  0
    2.4940    7.8830  -22.2180 H   0  0  0  0  0  0
    6.2520    7.8167  -22.9632 H   0  0  0  0  0  0
    6.2540    9.7775  -22.4749 H   0  0  0  0  0  0
    6.3400    9.0388  -19.4671 H   0  0  0  0  0  0
    6.3390    7.0745  -19.9441 H   0  0  0  0  0  0
    3.8640    6.8610  -20.4921 H   0  0  0  0  0  0
    5.0492    6.2968  -21.6371 H   0  0  0  0  0  0
    3.6528    9.4019  -20.0438 H   0  0  0  0  0  0
    5.0322   10.4642  -20.4859 H   0  0  0  0  0  0
    3.8272    9.9929  -21.7306 H   0  0  0  0  0  0
  1  2  2  0  0  0
  1  3  1  0  0  0
  1 34  1  0  0  0
  2  6  1  0  0  0
  2 35  1  0  0  0
  3  5  2  0  0  0
  3 27  1  0  0  0
  4  5  1  0  0  0
  4  6  2  0  0  0
  4 18  1  0  0  0
  5 24  1  0  0  0
  6 10  1  0  0  0
  7 10  2  0  0  0
  7 23  1  0  0  0
  7 33  1  0  0  0
  8 21  1  0  0  0
  8 22  1  0  0  0
  8 36  1  0  0  0
  8 37  1  0  0  0
  9 21  1  0  0  0
  9 31  1  0  0  0
  9 38  1  0  0  0
  9 39  1  0  0  0
 10 40  1  0  0  0
 11 12  1  0  0  0
 11 14  2  0  0  0
 11 15  1  0  0  0
 12 17  1  0  0  0
 12 28  2  0  0  0
 13 28  1  0  0  0
 13 29  2  0  0  0
 13 54  1  0  0  0
 14 29  1  0  0  0
 14 31  1  0  0  0
 15 30  2  0  0  0
 15 41  1  0  0  0
 16 17  2  0  0  0
 16 18  1  0  0  0
 16 30  1  0  0  0
 17 26  1  0  0  0
 18 23  2  0  0  0
 19 20  1  0  0  0
 19 31  1  0  0  0
 19 42  1  0  0  0
 19 43  1  0  0  0
 20 22  1  0  0  0
 20 32  1  0  0  0
 20 44  1  0  0  0
 21 32  1  0  0  0
 21 45  1  0  0  0
 22 46  1  0  0  0
 22 47  1  0  0  0
 23 48  1  0  0  0
 24 25  3  0  0  0
 25 49  1  0  0  0
 32 50  1  0  0  0
 33 51  1  0  0  0
 52 55  1  0  0  0
 52 56  1  0  0  0
 52 59  1  0  0  0
 52 60  1  0  0  0
 53 55  1  0  0  0
 53 56  1  0  0  0
 53 57  1  0  0  0
 53 58  1  0  0  0
 54 57  1  0  0  0
 54 61  1  0  0  0
 54 62  1  0  0  0
 55 63  1  0  0  0
 55 64  1  0  0  0
 56 65  1  0  0  0
 56 66  1  0  0  0
 57 67  1  0  0  0
 57 68  1  0  0  0
 58 69  1  0  0  0
 58 70  1  0  0  0
 58 71  1  0  0  0
M  CHG  1  52   1
M  END
> <s_m_entry_id>
5

> <s_m_entry_name>
000000005.1

> <s_m_Source_Path>
/Users/zaksoul/Documents/2

> <s_m_Source_File>
000000005.mol2

> <i_m_Source_File_Index>
1

$$$$
No_0_6
                    3D
 Schrodinger Suite 2022-4.
 71 77  0  0  1  0            999 V2000
   -5.3210    3.2450  -22.0620 C   0  0  0  0  0  0
   -5.5650    3.4290  -23.4020 C   0  0  0  0  0  0
   -4.0820    3.0320  -21.6950 C   0  0  0  0  0  0
   -3.1510    3.1950  -23.8420 C   0  0  0  0  0  0
   -3.0120    2.9520  -22.4190 C   0  0  0  0  0  0
   -4.4950    3.4140  -24.3900 C   0  0  0  0  0  0
   -3.6950    3.4680  -26.5720 C   0  0  0  0  0  0
    5.9410    3.0420  -21.1050 C   0  0  0  0  0  0
    5.8510    3.1870  -23.6570 C   0  0  0  0  0  0
   -4.7220    3.5370  -25.7300 C   0  0  0  0  0  0
    2.0510    3.6090  -23.7520 C   0  0  0  0  0  0
    1.1880    4.6880  -23.4680 C   0  0  0  0  0  0
    2.9300    5.9410  -22.7470 C   0  0  0  0  0  0
    3.4370    3.8450  -23.4090 C   0  0  0  0  0  0
    1.5560    2.4760  -24.4270 C   0  0  0  0  0  0
   -0.5990    3.2180  -24.3590 C   0  0  0  0  0  0
   -0.1260    4.4530  -23.7470 C   0  0  0  0  0  0
   -2.0430    3.1770  -24.7440 C   0  0  0  0  0  0
    4.1200    1.3680  -23.1100 C   0  0  0  0  0  0
    5.0410    1.0400  -21.9450 C   0  0  2  0  0  0
    6.5920    2.6340  -22.4450 C   0  0  2  0  0  0
    4.9650    2.0370  -20.7760 C   0  0  0  0  0  0
   -2.3440    3.3290  -26.1780 C   0  0  0  0  0  0
   -1.6670    2.5810  -21.7930 C   0  0  0  0  0  0
   -0.6360    2.2670  -21.2660 C   0  0  0  0  0  0
   -1.0090    5.4690  -23.4170 F   0  0  0  0  0  0
   -3.8930    2.7930  -20.3100 F   0  0  0  0  0  0
    1.6140    5.8610  -22.9230 N   0  0  0  0  0  0
    3.8630    5.0100  -22.9510 N   0  0  0  0  0  0
    0.2600    2.3440  -24.7600 N   0  0  0  0  0  0
    4.3940    2.8290  -23.5690 N   0  0  0  0  0  0
    6.4540    1.1550  -22.3980 N   0  0  1  0  0  0
   -3.8390    3.4810  -27.9650 O   0  0  0  0  0  0
   -6.1389    3.2791  -21.3515 H   0  0  0  0  0  0
   -6.5784    3.5905  -23.7512 H   0  0  0  0  0  0
    5.4394    4.0139  -21.2221 H   0  0  0  0  0  0
    6.7103    3.0763  -20.3195 H   0  0  0  0  0  0
    6.2793    2.7587  -24.5752 H   0  0  0  0  0  0
    5.9579    4.2815  -23.6842 H   0  0  0  0  0  0
   -5.7304    3.6895  -26.0972 H   0  0  0  0  0  0
    2.2284    1.6701  -24.6980 H   0  0  0  0  0  0
    3.0725    1.2762  -22.7871 H   0  0  0  0  0  0
    4.3229    0.6786  -23.9428 H   0  0  0  0  0  0
    4.8423    0.0202  -21.5839 H   0  0  0  0  0  0
    7.6519    2.9275  -22.4682 H   0  0  0  0  0  0
    3.9648    2.4942  -20.7528 H   0  0  0  0  0  0
    5.2628    1.5302  -19.8462 H   0  0  0  0  0  0
   -1.5582    3.3380  -26.9247 H   0  0  0  0  0  0
    0.2716    1.9898  -20.8027 H   0  0  0  0  0  0
    7.1032    0.6770  -21.6793 H   0  0  0  0  0  0
   -2.9829    3.4226  -28.3727 H   0  0  0  0  0  0
    7.4720    8.7340  -21.7330 N   0  3  0  0  0  0
    5.4790    8.5110  -21.2250 C   0  0  0  0  0  0
    3.4350    7.2970  -22.2640 C   0  0  0  0  0  0
    6.2140    8.9790  -22.5060 C   0  0  0  0  0  0
    6.8120    8.2810  -20.4680 C   0  0  0  0  0  0
    4.7110    7.1830  -21.4020 C   0  0  0  0  0  0
    4.6410    9.6300  -20.5760 C   0  0  0  0  0  0
    7.9230    9.6191  -21.5620 H   0  0  0  0  0  0
    7.9561    7.9508  -22.1431 H   0  0  0  0  0  0
    3.6360    7.9420  -23.1321 H   0  0  0  0  0  0
    2.6445    7.7953  -21.6836 H   0  0  0  0  0  0
    6.1270    8.1642  -23.2398 H   0  0  0  0  0  0
    6.0850   10.0697  -22.5680 H   0  0  0  0  0  0
    6.9130    9.1030  -19.7440 H   0  0  0  0  0  0
    6.9581    7.1926  -20.4040 H   0  0  0  0  0  0
    4.4478    6.7788  -20.4134 H   0  0  0  0  0  0
    5.3818    6.4303  -21.8418 H   0  0  0  0  0  0
    4.1447    9.2417  -19.6744 H   0  0  0  0  0  0
    5.2986   10.4675  -20.3002 H   0  0  0  0  0  0
    3.8817    9.9811  -21.2903 H   0  0  0  0  0  0
  1  2  2  0  0  0
  1  3  1  0  0  0
  1 34  1  0  0  0
  2  6  1  0  0  0
  2 35  1  0  0  0
  3  5  2  0  0  0
  3 27  1  0  0  0
  4  5  1  0  0  0
  4  6  2  0  0  0
  4 18  1  0  0  0
  5 24  1  0  0  0
  6 10  1  0  0  0
  7 10  2  0  0  0
  7 23  1  0  0  0
  7 33  1  0  0  0
  8 21  1  0  0  0
  8 22  1  0  0  0
  8 36  1  0  0  0
  8 37  1  0  0  0
  9 21  1  0  0  0
  9 31  1  0  0  0
  9 38  1  0  0  0
  9 39  1  0  0  0
 10 40  1  0  0  0
 11 12  1  0  0  0
 11 14  2  0  0  0
 11 15  1  0  0  0
 12 17  1  0  0  0
 12 28  2  0  0  0
 13 28  1  0  0  0
 13 29  2  0  0  0
 13 54  1  0  0  0
 14 29  1  0  0  0
 14 31  1  0  0  0
 15 30  2  0  0  0
 15 41  1  0  0  0
 16 17  2  0  0  0
 16 18  1  0  0  0
 16 30  1  0  0  0
 17 26  1  0  0  0
 18 23  2  0  0  0
 19 20  1  0  0  0
 19 31  1  0  0  0
 19 42  1  0  0  0
 19 43  1  0  0  0
 20 22  1  0  0  0
 20 32  1  0  0  0
 20 44  1  0  0  0
 21 32  1  0  0  0
 21 45  1  0  0  0
 22 46  1  0  0  0
 22 47  1  0  0  0
 23 48  1  0  0  0
 24 25  3  0  0  0
 25 49  1  0  0  0
 32 50  1  0  0  0
 33 51  1  0  0  0
 52 55  1  0  0  0
 52 56  1  0  0  0
 52 59  1  0  0  0
 52 60  1  0  0  0
 53 55  1  0  0  0
 53 56  1  0  0  0
 53 57  1  0  0  0
 53 58  1  0  0  0
 54 57  1  0  0  0
 54 61  1  0  0  0
 54 62  1  0  0  0
 55 63  1  0  0  0
 55 64  1  0  0  0
 56 65  1  0  0  0
 56 66  1  0  0  0
 57 67  1  0  0  0
 57 68  1  0  0  0
 58 69  1  0  0  0
 58 70  1  0  0  0
 58 71  1  0  0  0
M  CHG  1  52   1
M  END
> <s_m_entry_id>
6

> <s_m_entry_name>
000000006.1

> <s_m_Source_Path>
/Users/zaksoul/Documents/2

> <s_m_Source_File>
000000006.mol2

> <i_m_Source_File_Index>
1

$$$$
No_0_7
                    3D
 Schrodinger Suite 2022-4.
 71 77  0  0  1  0            999 V2000
   -5.2530    3.4500  -21.9780 C   0  0  0  0  0  0
   -5.5090    3.6200  -23.3180 C   0  0  0  0  0  0
   -4.0120    3.2310  -21.6220 C   0  0  0  0  0  0
   -3.1010    3.3600  -23.7790 C   0  0  0  0  0  0
   -2.9500    3.1320  -22.3540 C   0  0  0  0  0  0
   -4.4490    3.5840  -24.3160 C   0  0  0  0  0  0
   -3.6710    3.6050  -26.5070 C   0  0  0  0  0  0
    6.0160    3.1570  -21.1320 C   0  0  0  0  0  0
    5.9020    3.2740  -23.6840 C   0  0  0  0  0  0
   -4.6890    3.6940  -25.6560 C   0  0  0  0  0  0
    2.1050    3.7280  -23.7460 C   0  0  0  0  0  0
    1.2540    4.8190  -23.4660 C   0  0  0  0  0  0
    3.0150    6.0640  -22.7780 C   0  0  0  0  0  0
    3.4970    3.9560  -23.4200 C   0  0  0  0  0  0
    1.5930    2.5920  -24.4030 C   0  0  0  0  0  0
   -0.5540    3.3540  -24.3220 C   0  0  0  0  0  0
   -0.0640    4.5920  -23.7290 C   0  0  0  0  0  0
   -2.0030    3.3210  -24.6920 C   0  0  0  0  0  0
    4.1600    1.4770  -23.0990 C   0  0  0  0  0  0
    5.0900    1.1540  -21.9390 C   0  0  2  0  0  0
    6.6500    2.7290  -22.4730 C   0  0  2  0  0  0
    5.0350    2.1650  -20.7810 C   0  0  0  0  0  0
   -2.3170    3.4600  -26.1250 C   0  0  0  0  0  0
   -1.6020    2.7570  -21.7380 C   0  0  0  0  0  0
   -0.5690    2.4390  -21.2180 C   0  0  0  0  0  0
   -0.9350    5.6190  -23.4030 F   0  0  0  0  0  0
   -3.8110    3.0060  -20.2350 F   0  0  0  0  0  0
    1.6970    5.9940  -22.9400 N   0  0  0  0  0  0
    3.9370    5.1220  -22.9800 N   0  0  0  0  0  0
    0.2930    2.4680  -24.7210 N   0  0  0  0  0  0
    4.4420    2.9300  -23.5780 N   0  0  0  0  0  0
    6.5000    1.2510  -22.4070 N   0  0  1  0  0  0
   -3.8290    3.6030  -27.8980 O   0  0  0  0  0  0
   -6.0639    3.5002  -21.2604 H   0  0  0  0  0  0
   -6.5244    3.7877  -23.6585 H   0  0  0  0  0  0
    5.5227    4.1325  -21.2551 H   0  0  0  0  0  0
    6.7929    3.1943  -20.3541 H   0  0  0  0  0  0
    6.3171    2.8306  -24.6011 H   0  0  0  0  0  0
    6.0181    4.3671  -23.7254 H   0  0  0  0  0  0
   -5.7000    3.8506  -26.0144 H   0  0  0  0  0  0
    2.2556    1.7767  -24.6701 H   0  0  0  0  0  0
    3.1153    1.3973  -22.7639 H   0  0  0  0  0  0
    4.3487    0.7758  -23.9253 H   0  0  0  0  0  0
    4.8862    0.1403  -21.5638 H   0  0  0  0  0  0
    7.7124    3.0115  -22.5103 H   0  0  0  0  0  0
    4.0391    2.6312  -20.7527 H   0  0  0  0  0  0
    5.3378    1.6664  -19.8484 H   0  0  0  0  0  0
   -1.5386    3.4520  -26.8794 H   0  0  0  0  0  0
    0.3408    2.1601  -20.7601 H   0  0  0  0  0  0
    7.1518    0.7758  -21.6888 H   0  0  0  0  0  0
   -2.9775    3.5328  -28.3134 H   0  0  0  0  0  0
    7.4840    9.1410  -22.6380 N   0  3  0  0  0  0
    5.6920    8.7240  -21.6920 C   0  0  0  0  0  0
    3.5360    7.4210  -22.3160 C   0  0  0  0  0  0
    6.0630    9.3340  -23.0670 C   0  0  0  0  0  0
    7.1800    8.5520  -21.2960 C   0  0  0  0  0  0
    4.9880    7.3530  -21.7940 C   0  0  0  0  0  0
    4.9690    9.7260  -20.7720 C   0  0  0  0  0  0
    7.9071   10.0463  -22.5060 H   0  0  0  0  0  0
    7.9018    8.4284  -23.2157 H   0  0  0  0  0  0
    3.4800    8.1371  -23.1491 H   0  0  0  0  0  0
    2.8812    7.8139  -21.5242 H   0  0  0  0  0  0
    5.8509    8.5658  -23.8252 H   0  0  0  0  0  0
    5.8551   10.4123  -23.0040 H   0  0  0  0  0  0
    7.4029    9.3285  -20.5495 H   0  0  0  0  0  0
    7.4050    7.4772  -21.3600 H   0  0  0  0  0  0
    4.9980    6.8639  -20.8088 H   0  0  0  0  0  0
    5.5772    6.6877  -22.4423 H   0  0  0  0  0  0
    4.7311    9.2401  -19.8142 H   0  0  0  0  0  0
    5.6204   10.5935  -20.5899 H   0  0  0  0  0  0
    4.0384   10.0619  -21.2528 H   0  0  0  0  0  0
  1  2  2  0  0  0
  1  3  1  0  0  0
  1 34  1  0  0  0
  2  6  1  0  0  0
  2 35  1  0  0  0
  3  5  2  0  0  0
  3 27  1  0  0  0
  4  5  1  0  0  0
  4  6  2  0  0  0
  4 18  1  0  0  0
  5 24  1  0  0  0
  6 10  1  0  0  0
  7 10  2  0  0  0
  7 23  1  0  0  0
  7 33  1  0  0  0
  8 21  1  0  0  0
  8 22  1  0  0  0
  8 36  1  0  0  0
  8 37  1  0  0  0
  9 21  1  0  0  0
  9 31  1  0  0  0
  9 38  1  0  0  0
  9 39  1  0  0  0
 10 40  1  0  0  0
 11 12  1  0  0  0
 11 14  2  0  0  0
 11 15  1  0  0  0
 12 17  1  0  0  0
 12 28  2  0  0  0
 13 28  1  0  0  0
 13 29  2  0  0  0
 13 54  1  0  0  0
 14 29  1  0  0  0
 14 31  1  0  0  0
 15 30  2  0  0  0
 15 41  1  0  0  0
 16 17  2  0  0  0
 16 18  1  0  0  0
 16 30  1  0  0  0
 17 26  1  0  0  0
 18 23  2  0  0  0
 19 20  1  0  0  0
 19 31  1  0  0  0
 19 42  1  0  0  0
 19 43  1  0  0  0
 20 22  1  0  0  0
 20 32  1  0  0  0
 20 44  1  0  0  0
 21 32  1  0  0  0
 21 45  1  0  0  0
 22 46  1  0  0  0
 22 47  1  0  0  0
 23 48  1  0  0  0
 24 25  3  0  0  0
 25 49  1  0  0  0
 32 50  1  0  0  0
 33 51  1  0  0  0
 52 55  1  0  0  0
 52 56  1  0  0  0
 52 59  1  0  0  0
 52 60  1  0  0  0
 53 55  1  0  0  0
 53 56  1  0  0  0
 53 57  1  0  0  0
 53 58  1  0  0  0
 54 57  1  0  0  0
 54 61  1  0  0  0
 54 62  1  0  0  0
 55 63  1  0  0  0
 55 64  1  0  0  0
 56 65  1  0  0  0
 56 66  1  0  0  0
 57 67  1  0  0  0
 57 68  1  0  0  0
 58 69  1  0  0  0
 58 70  1  0  0  0
 58 71  1  0  0  0
M  CHG  1  52   1
M  END
> <s_m_entry_id>
7

> <s_m_entry_name>
000000007.1

> <s_m_Source_Path>
/Users/zaksoul/Documents/2

> <s_m_Source_File>
000000007.mol2

> <i_m_Source_File_Index>
1

$$$$
No_0_8
                    3D
 Schrodinger Suite 2022-4.
 71 77  0  0  1  0            999 V2000
   -5.3760    3.2350  -21.9560 C   0  0  0  0  0  0
   -5.6370    3.4300  -23.2920 C   0  0  0  0  0  0
   -4.1320    3.0260  -21.6060 C   0  0  0  0  0  0
   -3.2260    3.2140  -23.7610 C   0  0  0  0  0  0
   -3.0690    2.9580  -22.3420 C   0  0  0  0  0  0
   -4.5770    3.4300  -24.2920 C   0  0  0  0  0  0
   -3.8020    3.5080  -26.4820 C   0  0  0  0  0  0
    5.8960    3.0880  -21.1270 C   0  0  0  0  0  0
    5.7770    3.2560  -23.6760 C   0  0  0  0  0  0
   -4.8210    3.5640  -25.6290 C   0  0  0  0  0  0
    1.9740    3.6560  -23.7250 C   0  0  0  0  0  0
    1.1080    4.7290  -23.4210 C   0  0  0  0  0  0
    2.8510    5.9850  -22.7090 C   0  0  0  0  0  0
    3.3630    3.8980  -23.3960 C   0  0  0  0  0  0
    1.4780    2.5270  -24.4050 C   0  0  0  0  0  0
   -0.6800    3.2560  -24.3070 C   0  0  0  0  0  0
   -0.2070    4.4880  -23.6880 C   0  0  0  0  0  0
   -2.1290    3.2100  -24.6760 C   0  0  0  0  0  0
    4.0630    1.4220  -23.1280 C   0  0  0  0  0  0
    4.9980    1.0880  -21.9760 C   0  0  2  0  0  0
    6.5350    2.6960  -22.4780 C   0  0  2  0  0  0
    4.9300    2.0740  -20.7970 C   0  0  0  0  0  0
   -2.4460    3.3740  -26.1050 C   0  0  0  0  0  0
   -1.7160    2.5900  -21.7350 C   0  0  0  0  0  0
   -0.6770    2.2760  -21.2220 C   0  0  0  0  0  0
   -1.0920    5.4960  -23.3400 F   0  0  0  0  0  0
   -3.9260    2.7750  -20.2250 F   0  0  0  0  0  0
    1.5340    5.8990  -22.8710 N   0  0  0  0  0  0
    3.7870    5.0600  -22.9320 N   0  0  0  0  0  0
    0.1790    2.3910  -24.7250 N   0  0  0  0  0  0
    4.3230    2.8880  -23.5760 N   0  0  0  0  0  0
    6.4060    1.2160  -22.4430 N   0  0  1  0  0  0
   -3.9620    3.5330  -27.8730 O   0  0  0  0  0  0
   -6.1871    3.2581  -21.2372 H   0  0  0  0  0  0
   -6.6551    3.5896  -23.6283 H   0  0  0  0  0  0
    5.3881    4.0583  -21.2300 H   0  0  0  0  0  0
    6.6740    3.1193  -20.3500 H   0  0  0  0  0  0
    6.1975    2.8385  -24.6028 H   0  0  0  0  0  0
    5.8779    4.3512  -23.6952 H   0  0  0  0  0  0
   -5.8344    3.7136  -25.9835 H   0  0  0  0  0  0
    2.1514    1.7271  -24.6910 H   0  0  0  0  0  0
    3.0201    1.3211  -22.7931 H   0  0  0  0  0  0
    4.2598    0.7406  -23.9688 H   0  0  0  0  0  0
    4.8103    0.0637  -21.6218 H   0  0  0  0  0  0
    7.5929    2.9958  -22.5103 H   0  0  0  0  0  0
    3.9276    2.5252  -20.7576 H   0  0  0  0  0  0
    5.2410    1.5610  -19.8750 H   0  0  0  0  0  0
   -1.6692    3.3941  -26.8608 H   0  0  0  0  0  0
    0.2374    1.9999  -20.7718 H   0  0  0  0  0  0
    7.0658    0.7348  -21.7362 H   0  0  0  0  0  0
   -3.1107    3.4835  -28.2917 H   0  0  0  0  0  0
    6.9580    9.4960  -23.2180 N   0  3  0  0  0  0
    5.4810    8.8000  -21.9490 C   0  0  0  0  0  0
    3.3540    7.3390  -22.2190 C   0  0  0  0  0  0
    5.4660    9.5760  -23.2900 C   0  0  0  0  0  0
    7.0300    8.7520  -21.9220 C   0  0  0  0  0  0
    4.8880    7.3770  -22.0510 C   0  0  0  0  0  0
    4.9160    9.6250  -20.7770 C   0  0  0  0  0  0
    7.3252   10.4244  -23.0789 H   0  0  0  0  0  0
    7.2849    8.8921  -23.9559 H   0  0  0  0  0  0
    3.0441    8.1219  -22.9269 H   0  0  0  0  0  0
    2.8737    7.5811  -21.2595 H   0  0  0  0  0  0
    5.1449    8.8658  -24.0662 H   0  0  0  0  0  0
    5.1902   10.6144  -23.0541 H   0  0  0  0  0  0
    7.3580    9.4721  -21.1579 H   0  0  0  0  0  0
    7.3211    7.7187  -22.1621 H   0  0  0  0  0  0
    5.1709    6.8001  -21.1582 H   0  0  0  0  0  0
    5.3612    6.8448  -22.8893 H   0  0  0  0  0  0
    4.9510    9.0260  -19.8550 H   0  0  0  0  0  0
    5.5181   10.5361  -20.6450 H   0  0  0  0  0  0
    3.8739    9.9040  -20.9920 H   0  0  0  0  0  0
  1  2  2  0  0  0
  1  3  1  0  0  0
  1 34  1  0  0  0
  2  6  1  0  0  0
  2 35  1  0  0  0
  3  5  2  0  0  0
  3 27  1  0  0  0
  4  5  1  0  0  0
  4  6  2  0  0  0
  4 18  1  0  0  0
  5 24  1  0  0  0
  6 10  1  0  0  0
  7 10  2  0  0  0
  7 23  1  0  0  0
  7 33  1  0  0  0
  8 21  1  0  0  0
  8 22  1  0  0  0
  8 36  1  0  0  0
  8 37  1  0  0  0
  9 21  1  0  0  0
  9 31  1  0  0  0
  9 38  1  0  0  0
  9 39  1  0  0  0
 10 40  1  0  0  0
 11 12  1  0  0  0
 11 14  2  0  0  0
 11 15  1  0  0  0
 12 17  1  0  0  0
 12 28  2  0  0  0
 13 28  1  0  0  0
 13 29  2  0  0  0
 13 54  1  0  0  0
 14 29  1  0  0  0
 14 31  1  0  0  0
 15 30  2  0  0  0
 15 41  1  0  0  0
 16 17  2  0  0  0
 16 18  1  0  0  0
 16 30  1  0  0  0
 17 26  1  0  0  0
 18 23  2  0  0  0
 19 20  1  0  0  0
 19 31  1  0  0  0
 19 42  1  0  0  0
 19 43  1  0  0  0
 20 22  1  0  0  0
 20 32  1  0  0  0
 20 44  1  0  0  0
 21 32  1  0  0  0
 21 45  1  0  0  0
 22 46  1  0  0  0
 22 47  1  0  0  0
 23 48  1  0  0  0
 24 25  3  0  0  0
 25 49  1  0  0  0
 32 50  1  0  0  0
 33 51  1  0  0  0
 52 55  1  0  0  0
 52 56  1  0  0  0
 52 59  1  0  0  0
 52 60  1  0  0  0
 53 55  1  0  0  0
 53 56  1  0  0  0
 53 57  1  0  0  0
 53 58  1  0  0  0
 54 57  1  0  0  0
 54 61  1  0  0  0
 54 62  1  0  0  0
 55 63  1  0  0  0
 55 64  1  0  0  0
 56 65  1  0  0  0
 56 66  1  0  0  0
 57 67  1  0  0  0
 57 68  1  0  0  0
 58 69  1  0  0  0
 58 70  1  0  0  0
 58 71  1  0  0  0
M  CHG  1  52   1
M  END
> <s_m_entry_id>
8

> <s_m_entry_name>
000000008.1

> <s_m_Source_Path>
/Users/zaksoul/Documents/2

> <s_m_Source_File>
000000008.mol2

> <i_m_Source_File_Index>
1

$$$$
No_0_9
                    3D
 Schrodinger Suite 2022-4.
 71 77  0  0  1  0            999 V2000
   -5.3960    3.4520  -22.1180 C   0  0  0  0  0  0
   -5.6060    3.6400  -23.4640 C   0  0  0  0  0  0
   -4.1730    3.2070  -21.7240 C   0  0  0  0  0  0
   -3.1890    3.3400  -23.8490 C   0  0  0  0  0  0
   -3.0890    3.0960  -22.4230 C   0  0  0  0  0  0
   -4.5150    3.5940  -24.4280 C   0  0  0  0  0  0
   -3.6650    3.6220  -26.5910 C   0  0  0  0  0  0
    5.8310    2.9450  -20.9100 C   0  0  0  0  0  0
    5.8020    3.0880  -23.4630 C   0  0  0  0  0  0
   -4.7090    3.7210  -25.7730 C   0  0  0  0  0  0
    2.0190    3.6130  -23.6440 C   0  0  0  0  0  0
    1.1790    4.7160  -23.3800 C   0  0  0  0  0  0
    2.9380    5.9220  -22.6230 C   0  0  0  0  0  0
    3.4030    3.8120  -23.2700 C   0  0  0  0  0  0
    1.5080    2.4930  -24.3290 C   0  0  0  0  0  0
   -0.6270    3.2930  -24.3100 C   0  0  0  0  0  0
   -0.1340    4.5160  -23.6880 C   0  0  0  0  0  0
   -2.0630    3.2900  -24.7270 C   0  0  0  0  0  0
    4.0110    1.3180  -22.9540 C   0  0  0  0  0  0
    4.8960    0.9670  -21.7680 C   0  0  2  0  0  0
    6.5010    2.5180  -22.2340 C   0  0  2  0  0  0
    4.8220    1.9670  -20.6020 C   0  0  0  0  0  0
   -2.3270    3.4480  -26.1670 C   0  0  0  0  0  0
   -1.7690    2.6900  -21.7670 C   0  0  0  0  0  0
   -0.7590    2.3490  -21.2170 C   0  0  0  0  0  0
   -0.9960    5.5550  -23.3800 F   0  0  0  0  0  0
   -4.0210    2.9650  -20.3340 F   0  0  0  0  0  0
    1.6250    5.8770  -22.8280 N   0  0  0  0  0  0
    3.8490    4.9650  -22.8040 N   0  0  0  0  0  0
    0.2170    2.3950  -24.6900 N   0  0  0  0  0  0
    4.3340    2.7700  -23.4080 N   0  0  0  0  0  0
    6.3220    1.0430  -22.1890 N   0  0  1  0  0  0
   -3.7780    3.6370  -27.9870 O   0  0  0  0  0  0
   -6.2289    3.5102  -21.4266 H   0  0  0  0  0  0
   -6.6068    3.8287  -23.8354 H   0  0  0  0  0  0
    5.3596    3.9303  -21.0402 H   0  0  0  0  0  0
    6.5836    2.9601  -20.1079 H   0  0  0  0  0  0
    6.2389    2.6471  -24.3711 H   0  0  0  0  0  0
    5.9403    4.1790  -23.4892 H   0  0  0  0  0  0
   -5.7047    3.8997  -26.1625 H   0  0  0  0  0  0
    2.1641    1.6683  -24.5828 H   0  0  0  0  0  0
    2.9548    1.2544  -22.6534 H   0  0  0  0  0  0
    4.2129    0.6213  -23.7809 H   0  0  0  0  0  0
    4.6628   -0.0465  -21.4096 H   0  0  0  0  0  0
    7.5690    2.7815  -22.2350 H   0  0  0  0  0  0
    3.8347    2.4521  -20.6010 H   0  0  0  0  0  0
    5.0846    1.4549  -19.6646 H   0  0  0  0  0  0
   -1.5253    3.4340  -26.8965 H   0  0  0  0  0  0
    0.1300    2.0480  -20.7330 H   0  0  0  0  0  0
    6.9414    0.5488  -21.4552 H   0  0  0  0  0  0
   -2.9152    3.5539  -28.3758 H   0  0  0  0  0  0
    6.5930    9.7780  -23.7320 N   0  3  0  0  0  0
    5.5120    8.8610  -22.2250 C   0  0  0  0  0  0
    3.4680    7.2650  -22.1300 C   0  0  0  0  0  0
    5.1260    9.7460  -23.4370 C   0  0  0  0  0  0
    7.0210    8.9330  -22.5730 C   0  0  0  0  0  0
    4.9930    7.4100  -22.3290 C   0  0  0  0  0  0
    5.2060    9.5350  -20.8740 C   0  0  0  0  0  0
    6.9301   10.7171  -23.5890 H   0  0  0  0  0  0
    6.7620    9.2669  -24.5842 H   0  0  0  0  0  0
    2.9519    8.0791  -22.6601 H   0  0  0  0  0  0
    3.2250    7.3850  -21.0639 H   0  0  0  0  0  0
    4.6650    9.0820  -24.1830 H   0  0  0  0  0  0
    4.8589   10.7352  -23.0369 H   0  0  0  0  0  0
    7.4851    9.6091  -21.8399 H   0  0  0  0  0  0
    7.3011    7.9507  -22.9811 H   0  0  0  0  0  0
    5.5179    6.7821  -21.5941 H   0  0  0  0  0  0
    5.2750    6.9909  -23.3062 H   0  0  0  0  0  0
    5.4990    8.8630  -20.0539 H   0  0  0  0  0  0
    5.7701   10.4762  -20.7970 H   0  0  0  0  0  0
    4.1288    9.7470  -20.8060 H   0  0  0  0  0  0
  1  2  2  0  0  0
  1  3  1  0  0  0
  1 34  1  0  0  0
  2  6  1  0  0  0
  2 35  1  0  0  0
  3  5  2  0  0  0
  3 27  1  0  0  0
  4  5  1  0  0  0
  4  6  2  0  0  0
  4 18  1  0  0  0
  5 24  1  0  0  0
  6 10  1  0  0  0
  7 10  2  0  0  0
  7 23  1  0  0  0
  7 33  1  0  0  0
  8 21  1  0  0  0
  8 22  1  0  0  0
  8 36  1  0  0  0
  8 37  1  0  0  0
  9 21  1  0  0  0
  9 31  1  0  0  0
  9 38  1  0  0  0
  9 39  1  0  0  0
 10 40  1  0  0  0
 11 12  1  0  0  0
 11 14  2  0  0  0
 11 15  1  0  0  0
 12 17  1  0  0  0
 12 28  2  0  0  0
 13 28  1  0  0  0
 13 29  2  0  0  0
 13 54  1  0  0  0
 14 29  1  0  0  0
 14 31  1  0  0  0
 15 30  2  0  0  0
 15 41  1  0  0  0
 16 17  2  0  0  0
 16 18  1  0  0  0
 16 30  1  0  0  0
 17 26  1  0  0  0
 18 23  2  0  0  0
 19 20  1  0  0  0
 19 31  1  0  0  0
 19 42  1  0  0  0
 19 43  1  0  0  0
 20 22  1  0  0  0
 20 32  1  0  0  0
 20 44  1  0  0  0
 21 32  1  0  0  0
 21 45  1  0  0  0
 22 46  1  0  0  0
 22 47  1  0  0  0
 23 48  1  0  0  0
 24 25  3  0  0  0
 25 49  1  0  0  0
 32 50  1  0  0  0
 33 51  1  0  0  0
 52 55  1  0  0  0
 52 56  1  0  0  0
 52 59  1  0  0  0
 52 60  1  0  0  0
 53 55  1  0  0  0
 53 56  1  0  0  0
 53 57  1  0  0  0
 53 58  1  0  0  0
 54 57  1  0  0  0
 54 61  1  0  0  0
 54 62  1  0  0  0
 55 63  1  0  0  0
 55 64  1  0  0  0
 56 65  1  0  0  0
 56 66  1  0  0  0
 57 67  1  0  0  0
 57 68  1  0  0  0
 58 69  1  0  0  0
 58 70  1  0  0  0
 58 71  1  0  0  0
M  CHG  1  52   1
M  END
> <s_m_entry_id>
9

> <s_m_entry_name>
000000009.1

> <s_m_Source_Path>
/Users/zaksoul/Documents/2

> <s_m_Source_File>
000000009.mol2

> <i_m_Source_File_Index>
1

$$$$
No_0_10
                    3D
 Schrodinger Suite 2022-4.
 70 76  0  0  1  0            999 V2000
   -5.3350    3.4340  -21.8170 C   0  0  0  0  0  0
   -5.6080    3.5770  -23.1570 C   0  0  0  0  0  0
   -4.0900    3.2220  -21.4720 C   0  0  0  0  0  0
   -3.2060    3.3080  -23.6430 C   0  0  0  0  0  0
   -3.0370    3.1090  -22.2160 C   0  0  0  0  0  0
   -4.5610    3.5220  -24.1680 C   0  0  0  0  0  0
   -3.8110    3.4990  -26.3670 C   0  0  0  0  0  0
    5.9430    3.1610  -21.1070 C   0  0  0  0  0  0
    5.7970    3.2270  -23.6590 C   0  0  0  0  0  0
   -4.8180    3.6040  -25.5050 C   0  0  0  0  0  0
    1.9990    3.6790  -23.6830 C   0  0  0  0  0  0
    1.1510    4.7740  -23.4140 C   0  0  0  0  0  0
    2.9200    6.0340  -22.7730 C   0  0  0  0  0  0
    3.3950    3.9140  -23.3790 C   0  0  0  0  0  0
    1.4800    2.5300  -24.3110 C   0  0  0  0  0  0
   -0.6670    3.2920  -24.2180 C   0  0  0  0  0  0
   -0.1700    4.5420  -23.6560 C   0  0  0  0  0  0
   -2.1200    3.2510  -24.5690 C   0  0  0  0  0  0
    4.0640    1.4410  -23.0170 C   0  0  0  0  0  0
    5.0080    1.1420  -21.8630 C   0  0  2  0  0  0
    6.5610    2.7060  -22.4480 C   0  0  2  0  0  0
    4.9670    2.1760  -20.7250 C   0  0  0  0  0  0
   -2.4520    3.3620  -26.0000 C   0  0  0  0  0  0
   -1.6820    2.7470  -21.6090 C   0  0  0  0  0  0
   -0.6420    2.4400  -21.0960 C   0  0  0  0  0  0
   -1.0370    5.5750  -23.3390 F   0  0  0  0  0  0
   -3.8710    3.0240  -20.0840 F   0  0  0  0  0  0
    1.6000    5.9600  -22.9170 N   0  0  0  0  0  0
    3.8400    5.0880  -22.9680 N   0  0  0  0  0  0
    0.1760    2.3990  -24.6100 N   0  0  0  0  0  0
    4.3390    2.8840  -23.5280 N   0  0  0  0  0  0
    6.4120    1.2300  -22.3510 N   0  0  1  0  0  0
   -3.9860    3.4700  -27.7560 O   0  0  0  0  0  0
   -6.1369    3.4972  -21.0904 H   0  0  0  0  0  0
   -6.6279    3.7376  -23.4873 H   0  0  0  0  0  0
    5.4477    4.1335  -21.2442 H   0  0  0  0  0  0
    6.7305    3.2135  -20.3407 H   0  0  0  0  0  0
    6.2004    2.7661  -24.5727 H   0  0  0  0  0  0
    5.9121    4.3191  -23.7236 H   0  0  0  0  0  0
   -5.8332    3.7536  -25.8544 H   0  0  0  0  0  0
    2.1392    1.7093  -24.5699 H   0  0  0  0  0  0
    3.0234    1.3683  -22.6678 H   0  0  0  0  0  0
    4.2416    0.7234  -23.8315 H   0  0  0  0  0  0
    4.8102    0.1357  -21.4653 H   0  0  0  0  0  0
    7.6226    2.9886  -22.5045 H   0  0  0  0  0  0
    3.9714    2.6425  -20.6927 H   0  0  0  0  0  0
    5.2819    1.6966  -19.7864 H   0  0  0  0  0  0
   -1.6832    3.3389  -26.7638 H   0  0  0  0  0  0
    0.2737    2.1691  -20.6452 H   0  0  0  0  0  0
    7.0727    0.7692  -21.6315 H   0  0  0  0  0  0
   -3.1402    3.3909  -28.1814 H   0  0  0  0  0  0
    4.9210    9.6940  -23.7980 O   0  5  0  0  0  0
    5.3360   11.1120  -22.0580 O   0  0  0  0  0  0
    6.7220    8.9010  -20.0010 N   0  3  0  0  0  0
    5.5350    8.7630  -21.6870 C   0  0  0  0  0  0
    3.4460    7.4000  -22.3450 C   0  0  0  0  0  0
    5.2410    9.0040  -20.1830 C   0  0  0  0  0  0
    7.0590    8.6650  -21.4380 C   0  0  0  0  0  0
    4.9810    7.4160  -22.1970 C   0  0  0  0  0  0
    5.2380    9.9470  -22.5820 C   0  0  0  0  0  0
    6.9260    8.0639  -19.4779 H   0  0  0  0  0  0
    7.0768    9.8045  -19.7292 H   0  0  0  0  0  0
    3.1418    8.1574  -23.0824 H   0  0  0  0  0  0
    2.9840    7.6870  -21.3889 H   0  0  0  0  0  0
    4.9790   10.0669  -20.0750 H   0  0  0  0  0  0
    4.8063    8.0726  -19.7912 H   0  0  0  0  0  0
    7.3300    7.6030  -21.5310 H   0  0  0  0  0  0
    7.5062    9.5953  -21.8181 H   0  0  0  0  0  0
    5.2910    6.6121  -21.5131 H   0  0  0  0  0  0
    5.4440    7.1740  -23.1650 H   0  0  0  0  0  0
  1  2  2  0  0  0
  1  3  1  0  0  0
  1 34  1  0  0  0
  2  6  1  0  0  0
  2 35  1  0  0  0
  3  5  2  0  0  0
  3 27  1  0  0  0
  4  5  1  0  0  0
  4  6  2  0  0  0
  4 18  1  0  0  0
  5 24  1  0  0  0
  6 10  1  0  0  0
  7 10  2  0  0  0
  7 23  1  0  0  0
  7 33  1  0  0  0
  8 21  1  0  0  0
  8 22  1  0  0  0
  8 36  1  0  0  0
  8 37  1  0  0  0
  9 21  1  0  0  0
  9 31  1  0  0  0
  9 38  1  0  0  0
  9 39  1  0  0  0
 10 40  1  0  0  0
 11 12  1  0  0  0
 11 14  2  0  0  0
 11 15  1  0  0  0
 12 17  1  0  0  0
 12 28  2  0  0  0
 13 28  1  0  0  0
 13 29  2  0  0  0
 13 56  1  0  0  0
 14 29  1  0  0  0
 14 31  1  0  0  0
 15 30  2  0  0  0
 15 41  1  0  0  0
 16 17  2  0  0  0
 16 18  1  0  0  0
 16 30  1  0  0  0
 17 26  1  0  0  0
 18 23  2  0  0  0
 19 20  1  0  0  0
 19 31  1  0  0  0
 19 42  1  0  0  0
 19 43  1  0  0  0
 20 22  1  0  0  0
 20 32  1  0  0  0
 20 44  1  0  0  0
 21 32  1  0  0  0
 21 45  1  0  0  0
 22 46  1  0  0  0
 22 47  1  0  0  0
 23 48  1  0  0  0
 24 25  3  0  0  0
 25 49  1  0  0  0
 32 50  1  0  0  0
 33 51  1  0  0  0
 52 60  1  0  0  0
 53 60  2  0  0  0
 54 57  1  0  0  0
 54 58  1  0  0  0
 54 61  1  0  0  0
 54 62  1  0  0  0
 55 57  1  0  0  0
 55 58  1  0  0  0
 55 59  1  0  0  0
 55 60  1  0  0  0
 56 59  1  0  0  0
 56 63  1  0  0  0
 56 64  1  0  0  0
 57 65  1  0  0  0
 57 66  1  0  0  0
 58 67  1  0  0  0
 58 68  1  0  0  0
 59 69  1  0  0  0
 59 70  1  0  0  0
M  CHG  2  52  -1  54   1
M  END
> <s_m_entry_id>
10

> <s_m_entry_name>
000000010.1

> <s_m_Source_Path>
/Users/zaksoul/Documents/2

> <s_m_Source_File>
000000010.mol2

> <i_m_Source_File_Index>
1

$$$$
No_0_11
                    3D
 Schrodinger Suite 2022-4.
 70 76  0  0  1  0            999 V2000
   -5.2120    3.4550  -22.0980 C   0  0  0  0  0  0
   -5.4450    3.6400  -23.4400 C   0  0  0  0  0  0
   -3.9780    3.2320  -21.7220 C   0  0  0  0  0  0
   -3.0290    3.3850  -23.8620 C   0  0  0  0  0  0
   -2.9030    3.1420  -22.4380 C   0  0  0  0  0  0
   -4.3680    3.6150  -24.4200 C   0  0  0  0  0  0
   -3.5520    3.6600  -26.5960 C   0  0  0  0  0  0
    6.0400    3.1570  -21.0590 C   0  0  0  0  0  0
    5.9700    3.3010  -23.6110 C   0  0  0  0  0  0
   -4.5840    3.7390  -25.7620 C   0  0  0  0  0  0
    2.1750    3.7550  -23.7350 C   0  0  0  0  0  0
    1.3190    4.8420  -23.4570 C   0  0  0  0  0  0
    3.0670    6.0810  -22.7250 C   0  0  0  0  0  0
    3.5610    3.9800  -23.3820 C   0  0  0  0  0  0
    1.6760    2.6260  -24.4130 C   0  0  0  0  0  0
   -0.4730    3.3860  -24.3610 C   0  0  0  0  0  0
    0.0060    4.6180  -23.7460 C   0  0  0  0  0  0
   -1.9160    3.3570  -24.7560 C   0  0  0  0  0  0
    4.2200    1.4970  -23.0760 C   0  0  0  0  0  0
    5.1300    1.1630  -21.9040 C   0  0  2  0  0  0
    6.6980    2.7440  -22.3930 C   0  0  2  0  0  0
    5.0540    2.1610  -20.7370 C   0  0  0  0  0  0
   -2.2040    3.5110  -26.1930 C   0  0  0  0  0  0
   -1.5660    2.7610  -21.8020 C   0  0  0  0  0  0
   -0.5410    2.4380  -21.2680 C   0  0  0  0  0  0
   -0.8710    5.6410  -23.4240 F   0  0  0  0  0  0
   -3.8000    2.9920  -20.3350 F   0  0  0  0  0  0
    1.7520    6.0120  -22.9110 N   0  0  0  0  0  0
    3.9930    5.1410  -22.9210 N   0  0  0  0  0  0
    0.3810    2.5050  -24.7550 N   0  0  0  0  0  0
    4.5100    2.9560  -23.5340 N   0  0  0  0  0  0
    6.5470    1.2660  -22.3470 N   0  0  1  0  0  0
   -3.6850    3.6740  -27.9900 O   0  0  0  0  0  0
   -6.0353    3.4972  -21.3942 H   0  0  0  0  0  0
   -6.4543    3.8107  -23.7965 H   0  0  0  0  0  0
    5.5487    4.1336  -21.1811 H   0  0  0  0  0  0
    6.8038    3.1853  -20.2679 H   0  0  0  0  0  0
    6.4018    2.8692  -24.5260 H   0  0  0  0  0  0
    6.0870    4.3944  -23.6382 H   0  0  0  0  0  0
   -5.5886    3.8996  -26.1363 H   0  0  0  0  0  0
    2.3428    1.8135  -24.6781 H   0  0  0  0  0  0
    3.1696    1.4143  -22.7602 H   0  0  0  0  0  0
    4.4229    0.8054  -23.9070 H   0  0  0  0  0  0
    4.9202    0.1450  -21.5438 H   0  0  0  0  0  0
    7.7607    3.0276  -22.4102 H   0  0  0  0  0  0
    4.0579    2.6273  -20.7198 H   0  0  0  0  0  0
    5.3406    1.6525  -19.8047 H   0  0  0  0  0  0
   -1.4128    3.5120  -26.9340 H   0  0  0  0  0  0
    0.3603    2.1539  -20.7968 H   0  0  0  0  0  0
    7.1864    0.7827  -21.6231 H   0  0  0  0  0  0
   -2.8268    3.6077  -28.3919 H   0  0  0  0  0  0
    4.5690    9.9970  -23.6520 O   0  5  0  0  0  0
    5.2390   11.2460  -21.8630 O   0  0  0  0  0  0
    7.1610    8.9540  -20.4140 N   0  3  0  0  0  0
    5.6640    8.8980  -21.8390 C   0  0  0  0  0  0
    3.5790    7.4330  -22.2400 C   0  0  0  0  0  0
    5.6710    8.9420  -20.2870 C   0  0  0  0  0  0
    7.2100    8.9090  -21.9080 C   0  0  0  0  0  0
    5.1070    7.5710  -22.3960 C   0  0  0  0  0  0
    5.1120   10.1420  -22.5000 C   0  0  0  0  0  0
    7.5232    8.0855  -20.0528 H   0  0  0  0  0  0
    7.5050    9.8500  -20.1060 H   0  0  0  0  0  0
    3.0797    8.2365  -22.8013 H   0  0  0  0  0  0
    3.3061    7.5700  -21.1832 H   0  0  0  0  0  0
    5.3680    9.9589  -19.9970 H   0  0  0  0  0  0
    5.3888    7.9374  -19.9388 H   0  0  0  0  0  0
    7.5251    7.8927  -22.1871 H   0  0  0  0  0  0
    7.5068    9.9122  -22.2477 H   0  0  0  0  0  0
    5.6027    6.7275  -21.8933 H   0  0  0  0  0  0
    5.3752    7.4799  -23.4589 H   0  0  0  0  0  0
  1  2  2  0  0  0
  1  3  1  0  0  0
  1 34  1  0  0  0
  2  6  1  0  0  0
  2 35  1  0  0  0
  3  5  2  0  0  0
  3 27  1  0  0  0
  4  5  1  0  0  0
  4  6  2  0  0  0
  4 18  1  0  0  0
  5 24  1  0  0  0
  6 10  1  0  0  0
  7 10  2  0  0  0
  7 23  1  0  0  0
  7 33  1  0  0  0
  8 21  1  0  0  0
  8 22  1  0  0  0
  8 36  1  0  0  0
  8 37  1  0  0  0
  9 21  1  0  0  0
  9 31  1  0  0  0
  9 38  1  0  0  0
  9 39  1  0  0  0
 10 40  1  0  0  0
 11 12  1  0  0  0
 11 14  2  0  0  0
 11 15  1  0  0  0
 12 17  1  0  0  0
 12 28  2  0  0  0
 13 28  1  0  0  0
 13 29  2  0  0  0
 13 56  1  0  0  0
 14 29  1  0  0  0
 14 31  1  0  0  0
 15 30  2  0  0  0
 15 41  1  0  0  0
 16 17  2  0  0  0
 16 18  1  0  0  0
 16 30  1  0  0  0
 17 26  1  0  0  0
 18 23  2  0  0  0
 19 20  1  0  0  0
 19 31  1  0  0  0
 19 42  1  0  0  0
 19 43  1  0  0  0
 20 22  1  0  0  0
 20 32  1  0  0  0
 20 44  1  0  0  0
 21 32  1  0  0  0
 21 45  1  0  0  0
 22 46  1  0  0  0
 22 47  1  0  0  0
 23 48  1  0  0  0
 24 25  3  0  0  0
 25 49  1  0  0  0
 32 50  1  0  0  0
 33 51  1  0  0  0
 52 60  1  0  0  0
 53 60  2  0  0  0
 54 57  1  0  0  0
 54 58  1  0  0  0
 54 61  1  0  0  0
 54 62  1  0  0  0
 55 57  1  0  0  0
 55 58  1  0  0  0
 55 59  1  0  0  0
 55 60  1  0  0  0
 56 59  1  0  0  0
 56 63  1  0  0  0
 56 64  1  0  0  0
 57 65  1  0  0  0
 57 66  1  0  0  0
 58 67  1  0  0  0
 58 68  1  0  0  0
 59 69  1  0  0  0
 59 70  1  0  0  0
M  CHG  2  52  -1  54   1
M  END
> <s_m_entry_id>
11

> <s_m_entry_name>
000000011.1

> <s_m_Source_Path>
/Users/zaksoul/Documents/2

> <s_m_Source_File>
000000011.mol2

> <i_m_Source_File_Index>
1

$$$$
No_0_12
                    3D
 Schrodinger Suite 2022-4.
 68 74  0  0  1  0            999 V2000
   -5.0540    3.2590  -22.0740 C   0  0  0  0  0  0
   -5.3450    3.4020  -23.4100 C   0  0  0  0  0  0
   -3.7990    3.0840  -21.7430 C   0  0  0  0  0  0
   -2.9410    3.2110  -23.9220 C   0  0  0  0  0  0
   -2.7510    3.0080  -22.4990 C   0  0  0  0  0  0
   -4.3070    3.3850  -24.4320 C   0  0  0  0  0  0
   -3.5800    3.3990  -26.6390 C   0  0  0  0  0  0
    6.2350    3.3340  -21.4820 C   0  0  0  0  0  0
    6.0590    3.4100  -24.0320 C   0  0  0  0  0  0
   -4.5800    3.4670  -25.7660 C   0  0  0  0  0  0
    2.2500    3.7430  -24.0140 C   0  0  0  0  0  0
    1.3710    4.8110  -23.7290 C   0  0  0  0  0  0
    3.1060    6.1210  -23.0980 C   0  0  0  0  0  0
    3.6400    4.0200  -23.7220 C   0  0  0  0  0  0
    1.7600    2.5830  -24.6430 C   0  0  0  0  0  0
   -0.4090    3.2770  -24.5240 C   0  0  0  0  0  0
    0.0550    4.5390  -23.9580 C   0  0  0  0  0  0
   -1.8630    3.1930  -24.8600 C   0  0  0  0  0  0
    4.3900    1.5670  -23.3830 C   0  0  0  0  0  0
    5.3550    1.2910  -22.2410 C   0  0  2  0  0  0
    6.8520    2.9060  -22.8310 C   0  0  2  0  0  0
    5.2940    2.3160  -21.0960 C   0  0  0  0  0  0
   -2.2140    3.3020  -26.2870 C   0  0  0  0  0  0
   -1.3790    2.6850  -21.9080 C   0  0  0  0  0  0
   -0.3240    2.4070  -21.4080 C   0  0  0  0  0  0
   -0.8410    5.5420  -23.6270 F   0  0  0  0  0  0
   -3.5600    2.8850  -20.3590 F   0  0  0  0  0  0
    1.7870    6.0060  -23.2290 N   0  0  0  0  0  0
    4.0530    5.2050  -23.3080 N   0  0  0  0  0  0
    0.4570    2.4130  -24.9300 N   0  0  0  0  0  0
    4.6140    3.0220  -23.8880 N   0  0  0  0  0  0
    6.7500    1.4260  -22.7420 N   0  0  1  0  0  0
   -3.7690    3.3720  -28.0270 O   0  0  0  0  0  0
   -5.8501    3.2931  -21.3391 H   0  0  0  0  0  0
   -6.3728    3.5315  -23.7292 H   0  0  0  0  0  0
    5.7071    4.2909  -21.6072 H   0  0  0  0  0  0
    7.0276    3.4057  -20.7227 H   0  0  0  0  0  0
    6.4676    2.9670  -24.9522 H   0  0  0  0  0  0
    6.1397    4.5055  -24.0905 H   0  0  0  0  0  0
   -5.6029    3.5873  -26.1040 H   0  0  0  0  0  0
    2.4415    1.7851  -24.9150 H   0  0  0  0  0  0
    3.3561    1.4601  -23.0229 H   0  0  0  0  0  0
    4.5818    0.8603  -24.2038 H   0  0  0  0  0  0
    5.1925    0.2768  -21.8474 H   0  0  0  0  0  0
    7.9036    3.2219  -22.8976 H   0  0  0  0  0  0
    4.2847    2.7510  -21.0506 H   0  0  0  0  0  0
    5.6330    1.8408  -20.1637 H   0  0  0  0  0  0
   -1.4530    3.3080  -27.0590 H   0  0  0  0  0  0
    0.6040    2.1630  -20.9670 H   0  0  0  0  0  0
    7.4326    0.9820  -22.0326 H   0  0  0  0  0  0
   -2.9250    3.3225  -28.4604 H   0  0  0  0  0  0
    5.4690    9.7880  -22.8300 F   0  0  0  0  0  0
    6.4370    9.3370  -19.9700 N   0  3  0  0  0  0
    5.5850    8.8720  -21.7890 C   0  0  0  0  0  0
    3.5940    7.5000  -22.6670 C   0  0  0  0  0  0
    7.0310    8.8120  -21.2400 C   0  0  0  0  0  0
    5.0240    9.4260  -20.4560 C   0  0  0  0  0  0
    5.0570    7.4790  -22.1790 C   0  0  0  0  0  0
    6.7838   10.2704  -19.8131 H   0  0  0  0  0  0
    6.4930    8.6184  -19.2654 H   0  0  0  0  0  0
    3.4990    8.2012  -23.5092 H   0  0  0  0  0  0
    2.9462    7.8819  -21.8642 H   0  0  0  0  0  0
    7.2609    7.7503  -21.0670 H   0  0  0  0  0  0
    7.5810    9.6451  -21.7020 H   0  0  0  0  0  0
    4.8099   10.4923  -20.6210 H   0  0  0  0  0  0
    4.4714    8.6035  -19.9783 H   0  0  0  0  0  0
    5.1450    6.8000  -21.3180 H   0  0  0  0  0  0
    5.6977    7.0522  -22.9647 H   0  0  0  0  0  0
  1  2  2  0  0  0
  1  3  1  0  0  0
  1 34  1  0  0  0
  2  6  1  0  0  0
  2 35  1  0  0  0
  3  5  2  0  0  0
  3 27  1  0  0  0
  4  5  1  0  0  0
  4  6  2  0  0  0
  4 18  1  0  0  0
  5 24  1  0  0  0
  6 10  1  0  0  0
  7 10  2  0  0  0
  7 23  1  0  0  0
  7 33  1  0  0  0
  8 21  1  0  0  0
  8 22  1  0  0  0
  8 36  1  0  0  0
  8 37  1  0  0  0
  9 21  1  0  0  0
  9 31  1  0  0  0
  9 38  1  0  0  0
  9 39  1  0  0  0
 10 40  1  0  0  0
 11 12  1  0  0  0
 11 14  2  0  0  0
 11 15  1  0  0  0
 12 17  1  0  0  0
 12 28  2  0  0  0
 13 28  1  0  0  0
 13 29  2  0  0  0
 13 55  1  0  0  0
 14 29  1  0  0  0
 14 31  1  0  0  0
 15 30  2  0  0  0
 15 41  1  0  0  0
 16 17  2  0  0  0
 16 18  1  0  0  0
 16 30  1  0  0  0
 17 26  1  0  0  0
 18 23  2  0  0  0
 19 20  1  0  0  0
 19 31  1  0  0  0
 19 42  1  0  0  0
 19 43  1  0  0  0
 20 22  1  0  0  0
 20 32  1  0  0  0
 20 44  1  0  0  0
 21 32  1  0  0  0
 21 45  1  0  0  0
 22 46  1  0  0  0
 22 47  1  0  0  0
 23 48  1  0  0  0
 24 25  3  0  0  0
 25 49  1  0  0  0
 32 50  1  0  0  0
 33 51  1  0  0  0
 52 54  1  0  0  0
 53 56  1  0  0  0
 53 57  1  0  0  0
 53 59  1  0  0  0
 53 60  1  0  0  0
 54 56  1  0  0  0
 54 57  1  0  0  0
 54 58  1  0  0  0
 55 58  1  0  0  0
 55 61  1  0  0  0
 55 62  1  0  0  0
 56 63  1  0  0  0
 56 64  1  0  0  0
 57 65  1  0  0  0
 57 66  1  0  0  0
 58 67  1  0  0  0
 58 68  1  0  0  0
M  CHG  1  53   1
M  END
> <s_m_entry_id>
12

> <s_m_entry_name>
000000012.1

> <s_m_Source_Path>
/Users/zaksoul/Documents/2

> <s_m_Source_File>
000000012.mol2

> <i_m_Source_File_Index>
1

$$$$
No_0_13
                    3D
 Schrodinger Suite 2022-4.
 68 74  0  0  1  0            999 V2000
   -5.4700    3.0470  -21.8730 C   0  0  0  0  0  0
   -5.7580    3.2370  -23.2040 C   0  0  0  0  0  0
   -4.2200    2.8310  -21.5490 C   0  0  0  0  0  0
   -3.3590    3.0030  -23.7240 C   0  0  0  0  0  0
   -3.1730    2.7530  -22.3070 C   0  0  0  0  0  0
   -4.7210    3.2260  -24.2270 C   0  0  0  0  0  0
   -3.9930    3.2890  -26.4340 C   0  0  0  0  0  0
    5.8170    2.8320  -21.2890 C   0  0  0  0  0  0
    5.6440    2.9900  -23.8350 C   0  0  0  0  0  0
   -4.9920    3.3550  -25.5580 C   0  0  0  0  0  0
    1.8430    3.4140  -23.8040 C   0  0  0  0  0  0
    0.9900    4.4930  -23.4860 C   0  0  0  0  0  0
    2.7560    5.7410  -22.8180 C   0  0  0  0  0  0
    3.2400    3.6480  -23.5060 C   0  0  0  0  0  0
    1.3260    2.2850  -24.4680 C   0  0  0  0  0  0
   -0.8260    3.0270  -24.3250 C   0  0  0  0  0  0
   -0.3320    4.2600  -23.7230 C   0  0  0  0  0  0
   -2.2820    2.9890  -24.6630 C   0  0  0  0  0  0
    3.9300    1.1690  -23.2410 C   0  0  0  0  0  0
    4.8890    0.8350  -22.1080 C   0  0  2  0  0  0
    6.4240    2.4310  -22.6510 C   0  0  2  0  0  0
    4.8520    1.8260  -20.9330 C   0  0  0  0  0  0
   -2.6300    3.1490  -26.0850 C   0  0  0  0  0  0
   -1.8090    2.3800  -21.7280 C   0  0  0  0  0  0
   -0.7620    2.0620  -21.2370 C   0  0  0  0  0  0
   -1.2030    5.2740  -23.3600 F   0  0  0  0  0  0
   -3.9850    2.5850  -20.1720 F   0  0  0  0  0  0
    1.4360    5.6630  -22.9510 N   0  0  0  0  0  0
    3.6810    4.8100  -23.0560 N   0  0  0  0  0  0
    0.0190    2.1550  -24.7580 N   0  0  0  0  0  0
    4.1900    2.6320  -23.7020 N   0  0  0  0  0  0
    6.2870    0.9520  -22.6070 N   0  0  1  0  0  0
   -4.1830    3.3090  -27.8210 O   0  0  0  0  0  0
   -6.2648    3.0781  -21.1365 H   0  0  0  0  0  0
   -6.7820    3.4016  -23.5192 H   0  0  0  0  0  0
    5.3137    3.8054  -21.3848 H   0  0  0  0  0  0
    6.6120    2.8623  -20.5293 H   0  0  0  0  0  0
    6.0406    2.5662  -24.7694 H   0  0  0  0  0  0
    5.7510    4.0845  -23.8613 H   0  0  0  0  0  0
   -6.0119    3.5096  -25.8913 H   0  0  0  0  0  0
    1.9875    1.4789  -24.7641 H   0  0  0  0  0  0
    2.8938    1.0762  -22.8838 H   0  0  0  0  0  0
    4.1046    0.4838  -24.0836 H   0  0  0  0  0  0
    4.7022   -0.1867  -21.7456 H   0  0  0  0  0  0
    7.4828    2.7237  -22.7085 H   0  0  0  0  0  0
    3.8537    2.2843  -20.8745 H   0  0  0  0  0  0
    5.1800    1.3153  -20.0156 H   0  0  0  0  0  0
   -1.8696    3.1600  -26.8575 H   0  0  0  0  0  0
    0.1600    1.7820  -20.8050 H   0  0  0  0  0  0
    6.9585    0.4698  -21.9120 H   0  0  0  0  0  0
   -3.3411    3.2516  -28.2573 H   0  0  0  0  0  0
    4.9690    9.5070  -22.6540 F   0  0  0  0  0  0
    6.6010    8.8130  -20.1690 N   0  3  0  0  0  0
    5.3640    8.4920  -21.7860 C   0  0  0  0  0  0
    3.2780    7.0950  -22.3450 C   0  0  0  0  0  0
    6.8990    8.4700  -21.5950 C   0  0  0  0  0  0
    5.1100    8.8590  -20.3040 C   0  0  0  0  0  0
    4.8140    7.1190  -22.2120 C   0  0  0  0  0  0
    6.9382    9.7445  -19.9829 H   0  0  0  0  0  0
    6.8489    8.0273  -19.5882 H   0  0  0  0  0  0
    2.9599    7.8762  -23.0511 H   0  0  0  0  0  0
    2.8221    7.3430  -21.3751 H   0  0  0  0  0  0
    7.2058    7.4138  -21.6100 H   0  0  0  0  0  0
    7.2920    9.3831  -22.0660 H   0  0  0  0  0  0
    4.8219    9.9204  -20.2840 H   0  0  0  0  0  0
    4.7192    7.9544  -19.8152 H   0  0  0  0  0  0
    5.1288    6.3574  -21.4834 H   0  0  0  0  0  0
    5.2682    6.8239  -23.1694 H   0  0  0  0  0  0
  1  2  2  0  0  0
  1  3  1  0  0  0
  1 34  1  0  0  0
  2  6  1  0  0  0
  2 35  1  0  0  0
  3  5  2  0  0  0
  3 27  1  0  0  0
  4  5  1  0  0  0
  4  6  2  0  0  0
  4 18  1  0  0  0
  5 24  1  0  0  0
  6 10  1  0  0  0
  7 10  2  0  0  0
  7 23  1  0  0  0
  7 33  1  0  0  0
  8 21  1  0  0  0
  8 22  1  0  0  0
  8 36  1  0  0  0
  8 37  1  0  0  0
  9 21  1  0  0  0
  9 31  1  0  0  0
  9 38  1  0  0  0
  9 39  1  0  0  0
 10 40  1  0  0  0
 11 12  1  0  0  0
 11 14  2  0  0  0
 11 15  1  0  0  0
 12 17  1  0  0  0
 12 28  2  0  0  0
 13 28  1  0  0  0
 13 29  2  0  0  0
 13 55  1  0  0  0
 14 29  1  0  0  0
 14 31  1  0  0  0
 15 30  2  0  0  0
 15 41  1  0  0  0
 16 17  2  0  0  0
 16 18  1  0  0  0
 16 30  1  0  0  0
 17 26  1  0  0  0
 18 23  2  0  0  0
 19 20  1  0  0  0
 19 31  1  0  0  0
 19 42  1  0  0  0
 19 43  1  0  0  0
 20 22  1  0  0  0
 20 32  1  0  0  0
 20 44  1  0  0  0
 21 32  1  0  0  0
 21 45  1  0  0  0
 22 46  1  0  0  0
 22 47  1  0  0  0
 23 48  1  0  0  0
 24 25  3  0  0  0
 25 49  1  0  0  0
 32 50  1  0  0  0
 33 51  1  0  0  0
 52 54  1  0  0  0
 53 56  1  0  0  0
 53 57  1  0  0  0
 53 59  1  0  0  0
 53 60  1  0  0  0
 54 56  1  0  0  0
 54 57  1  0  0  0
 54 58  1  0  0  0
 55 58  1  0  0  0
 55 61  1  0  0  0
 55 62  1  0  0  0
 56 63  1  0  0  0
 56 64  1  0  0  0
 57 65  1  0  0  0
 57 66  1  0  0  0
 58 67  1  0  0  0
 58 68  1  0  0  0
M  CHG  1  53   1
M  END
> <s_m_entry_id>
13

> <s_m_entry_name>
000000013.1

> <s_m_Source_Path>
/Users/zaksoul/Documents/2

> <s_m_Source_File>
000000013.mol2

> <i_m_Source_File_Index>
1

$$$$
No_0_14
                    3D
 Schrodinger Suite 2022-4.
 68 74  0  0  1  0            999 V2000
   -5.3210    3.2450  -22.0620 C   0  0  0  0  0  0
   -5.5650    3.4290  -23.4020 C   0  0  0  0  0  0
   -4.0820    3.0320  -21.6950 C   0  0  0  0  0  0
   -3.1510    3.1950  -23.8420 C   0  0  0  0  0  0
   -3.0120    2.9520  -22.4190 C   0  0  0  0  0  0
   -4.4950    3.4140  -24.3900 C   0  0  0  0  0  0
   -3.6950    3.4680  -26.5720 C   0  0  0  0  0  0
    5.9410    3.0420  -21.1050 C   0  0  0  0  0  0
    5.8510    3.1870  -23.6570 C   0  0  0  0  0  0
   -4.7220    3.5370  -25.7300 C   0  0  0  0  0  0
    2.0510    3.6090  -23.7520 C   0  0  0  0  0  0
    1.1880    4.6880  -23.4680 C   0  0  0  0  0  0
    2.9300    5.9410  -22.7470 C   0  0  0  0  0  0
    3.4370    3.8450  -23.4090 C   0  0  0  0  0  0
    1.5560    2.4760  -24.4270 C   0  0  0  0  0  0
   -0.5990    3.2180  -24.3590 C   0  0  0  0  0  0
   -0.1260    4.4530  -23.7470 C   0  0  0  0  0  0
   -2.0430    3.1770  -24.7440 C   0  0  0  0  0  0
    4.1200    1.3680  -23.1100 C   0  0  0  0  0  0
    5.0410    1.0400  -21.9450 C   0  0  2  0  0  0
    6.5920    2.6340  -22.4450 C   0  0  2  0  0  0
    4.9650    2.0370  -20.7760 C   0  0  0  0  0  0
   -2.3440    3.3290  -26.1780 C   0  0  0  0  0  0
   -1.6670    2.5810  -21.7930 C   0  0  0  0  0  0
   -0.6360    2.2670  -21.2660 C   0  0  0  0  0  0
   -1.0090    5.4690  -23.4170 F   0  0  0  0  0  0
   -3.8930    2.7930  -20.3100 F   0  0  0  0  0  0
    1.6140    5.8610  -22.9230 N   0  0  0  0  0  0
    3.8630    5.0100  -22.9510 N   0  0  0  0  0  0
    0.2600    2.3440  -24.7600 N   0  0  0  0  0  0
    4.3940    2.8290  -23.5690 N   0  0  0  0  0  0
    6.4540    1.1550  -22.3980 N   0  0  1  0  0  0
   -3.8390    3.4810  -27.9650 O   0  0  0  0  0  0
   -6.1389    3.2791  -21.3515 H   0  0  0  0  0  0
   -6.5784    3.5905  -23.7512 H   0  0  0  0  0  0
    5.4394    4.0139  -21.2221 H   0  0  0  0  0  0
    6.7103    3.0763  -20.3195 H   0  0  0  0  0  0
    6.2793    2.7587  -24.5752 H   0  0  0  0  0  0
    5.9579    4.2815  -23.6842 H   0  0  0  0  0  0
   -5.7304    3.6895  -26.0972 H   0  0  0  0  0  0
    2.2284    1.6701  -24.6980 H   0  0  0  0  0  0
    3.0725    1.2762  -22.7871 H   0  0  0  0  0  0
    4.3229    0.6786  -23.9428 H   0  0  0  0  0  0
    4.8423    0.0202  -21.5839 H   0  0  0  0  0  0
    7.6519    2.9275  -22.4682 H   0  0  0  0  0  0
    3.9648    2.4942  -20.7528 H   0  0  0  0  0  0
    5.2628    1.5302  -19.8462 H   0  0  0  0  0  0
   -1.5582    3.3380  -26.9247 H   0  0  0  0  0  0
    0.2716    1.9898  -20.8027 H   0  0  0  0  0  0
    7.1032    0.6770  -21.6793 H   0  0  0  0  0  0
   -2.9829    3.4226  -28.3727 H   0  0  0  0  0  0
    4.8480    9.8680  -22.6760 F   0  0  0  0  0  0
    6.9920    9.1410  -20.6290 N   0  3  0  0  0  0
    5.4820    8.8320  -21.9970 C   0  0  0  0  0  0
    3.4350    7.2970  -22.2640 C   0  0  0  0  0  0
    7.0220    8.9330  -22.1110 C   0  0  0  0  0  0
    5.5060    9.0630  -20.4670 C   0  0  0  0  0  0
    4.9600    7.4490  -22.4310 C   0  0  0  0  0  0
    7.2908   10.0825  -20.4281 H   0  0  0  0  0  0
    7.4092    8.3397  -20.1818 H   0  0  0  0  0  0
    2.9251    8.0969  -22.8209 H   0  0  0  0  0  0
    3.1669    7.4310  -21.2056 H   0  0  0  0  0  0
    7.3961    7.9127  -22.2811 H   0  0  0  0  0  0
    7.2429    9.9104  -22.5647 H   0  0  0  0  0  0
    5.1499   10.0894  -20.2949 H   0  0  0  0  0  0
    5.2890    8.0929  -19.9960 H   0  0  0  0  0  0
    5.4710    6.6679  -21.8490 H   0  0  0  0  0  0
    5.2331    7.2690  -23.4812 H   0  0  0  0  0  0
  1  2  2  0  0  0
  1  3  1  0  0  0
  1 34  1  0  0  0
  2  6  1  0  0  0
  2 35  1  0  0  0
  3  5  2  0  0  0
  3 27  1  0  0  0
  4  5  1  0  0  0
  4  6  2  0  0  0
  4 18  1  0  0  0
  5 24  1  0  0  0
  6 10  1  0  0  0
  7 10  2  0  0  0
  7 23  1  0  0  0
  7 33  1  0  0  0
  8 21  1  0  0  0
  8 22  1  0  0  0
  8 36  1  0  0  0
  8 37  1  0  0  0
  9 21  1  0  0  0
  9 31  1  0  0  0
  9 38  1  0  0  0
  9 39  1  0  0  0
 10 40  1  0  0  0
 11 12  1  0  0  0
 11 14  2  0  0  0
 11 15  1  0  0  0
 12 17  1  0  0  0
 12 28  2  0  0  0
 13 28  1  0  0  0
 13 29  2  0  0  0
 13 55  1  0  0  0
 14 29  1  0  0  0
 14 31  1  0  0  0
 15 30  2  0  0  0
 15 41  1  0  0  0
 16 17  2  0  0  0
 16 18  1  0  0  0
 16 30  1  0  0  0
 17 26  1  0  0  0
 18 23  2  0  0  0
 19 20  1  0  0  0
 19 31  1  0  0  0
 19 42  1  0  0  0
 19 43  1  0  0  0
 20 22  1  0  0  0
 20 32  1  0  0  0
 20 44  1  0  0  0
 21 32  1  0  0  0
 21 45  1  0  0  0
 22 46  1  0  0  0
 22 47  1  0  0  0
 23 48  1  0  0  0
 24 25  3  0  0  0
 25 49  1  0  0  0
 32 50  1  0  0  0
 33 51  1  0  0  0
 52 54  1  0  0  0
 53 56  1  0  0  0
 53 57  1  0  0  0
 53 59  1  0  0  0
 53 60  1  0  0  0
 54 56  1  0  0  0
 54 57  1  0  0  0
 54 58  1  0  0  0
 55 58  1  0  0  0
 55 61  1  0  0  0
 55 62  1  0  0  0
 56 63  1  0  0  0
 56 64  1  0  0  0
 57 65  1  0  0  0
 57 66  1  0  0  0
 58 67  1  0  0  0
 58 68  1  0  0  0
M  CHG  1  53   1
M  END
> <s_m_entry_id>
14

> <s_m_entry_name>
000000014.1

> <s_m_Source_Path>
/Users/zaksoul/Documents/2

> <s_m_Source_File>
000000014.mol2

> <i_m_Source_File_Index>
1

$$$$
No_0_15
                    3D
 Schrodinger Suite 2022-4.
 68 74  0  0  1  0            999 V2000
   -5.5950    3.4470  -22.1790 C   0  0  0  0  0  0
   -5.7980    3.6860  -23.5180 C   0  0  0  0  0  0
   -4.3710    3.1940  -21.7880 C   0  0  0  0  0  0
   -3.3770    3.4170  -23.9000 C   0  0  0  0  0  0
   -3.2830    3.1180  -22.4840 C   0  0  0  0  0  0
   -4.7010    3.6850  -24.4770 C   0  0  0  0  0  0
   -3.8400    3.8030  -26.6320 C   0  0  0  0  0  0
    5.6300    2.9690  -20.9270 C   0  0  0  0  0  0
    5.6140    3.2110  -23.4720 C   0  0  0  0  0  0
   -4.8880    3.8630  -25.8170 C   0  0  0  0  0  0
    1.8280    3.7170  -23.6550 C   0  0  0  0  0  0
    0.9780    4.8030  -23.3530 C   0  0  0  0  0  0
    2.7250    5.9910  -22.5390 C   0  0  0  0  0  0
    3.2080    3.9110  -23.2660 C   0  0  0  0  0  0
    1.3290    2.6210  -24.3850 C   0  0  0  0  0  0
   -0.8120    3.4050  -24.3480 C   0  0  0  0  0  0
   -0.3310    4.6060  -23.6760 C   0  0  0  0  0  0
   -2.2460    3.4090  -24.7730 C   0  0  0  0  0  0
    3.8320    1.4100  -23.0420 C   0  0  0  0  0  0
    4.7130    1.0200  -21.8660 C   0  0  2  0  0  0
    6.3100    2.5980  -22.2630 C   0  0  2  0  0  0
    4.6250    1.9730  -20.6630 C   0  0  0  0  0  0
   -2.5030    3.6220  -26.2080 C   0  0  0  0  0  0
   -1.9640    2.6960  -21.8370 C   0  0  0  0  0  0
   -0.9540    2.3400  -21.2950 C   0  0  0  0  0  0
   -1.2020    5.6270  -23.3330 F   0  0  0  0  0  0
   -4.2250    2.8990  -20.4080 F   0  0  0  0  0  0
    1.4140    5.9450  -22.7530 N   0  0  0  0  0  0
    3.6440    5.0480  -22.7520 N   0  0  0  0  0  0
    0.0400    2.5290  -24.7580 N   0  0  0  0  0  0
    4.1480    2.8810  -23.4380 N   0  0  0  0  0  0
    6.1410    1.1220  -22.2760 N   0  0  1  0  0  0
   -3.9450    3.8710  -28.0270 O   0  0  0  0  0  0
   -6.4324    3.4721  -21.4912 H   0  0  0  0  0  0
   -6.7979    3.8828  -23.8874 H   0  0  0  0  0  0
    5.1516    3.9551  -21.0209 H   0  0  0  0  0  0
    6.3769    2.9579  -20.1195 H   0  0  0  0  0  0
    6.0589    2.8085  -24.3940 H   0  0  0  0  0  0
    5.7441    4.3031  -23.4549 H   0  0  0  0  0  0
   -5.8830    4.0497  -26.2045 H   0  0  0  0  0  0
    1.9921    1.8115  -24.6679 H   0  0  0  0  0  0
    2.7743    1.3282  -22.7513 H   0  0  0  0  0  0
    4.0439    0.7481  -23.8946 H   0  0  0  0  0  0
    4.4849   -0.0084  -21.5491 H   0  0  0  0  0  0
    7.3758    2.8695  -22.2469 H   0  0  0  0  0  0
    3.6341    2.4503  -20.6489 H   0  0  0  0  0  0
    4.8863    1.4262  -19.7450 H   0  0  0  0  0  0
   -1.6970    3.6411  -26.9327 H   0  0  0  0  0  0
   -0.0656    2.0268  -20.8178 H   0  0  0  0  0  0
    6.7599    0.6035  -21.5587 H   0  0  0  0  0  0
   -3.0795    3.8097  -28.4138 H   0  0  0  0  0  0
    4.3330   10.0500  -22.3350 F   0  0  0  0  0  0
    6.9660    9.2860  -20.9950 N   0  3  0  0  0  0
    5.1850    9.0050  -21.9930 C   0  0  0  0  0  0
    3.2430    7.3170  -21.9910 C   0  0  0  0  0  0
    6.6370    9.2760  -22.4550 C   0  0  0  0  0  0
    5.5770    9.0360  -20.4950 C   0  0  0  0  0  0
    4.6640    7.6440  -22.4920 C   0  0  0  0  0  0
    7.2420   10.2189  -20.7310 H   0  0  0  0  0  0
    7.5347    8.4804  -20.7861 H   0  0  0  0  0  0
    2.5571    8.1259  -22.2830 H   0  0  0  0  0  0
    3.2420    7.2840  -20.8915 H   0  0  0  0  0  0
    7.0231    8.3298  -22.8621 H   0  0  0  0  0  0
    6.6710   10.3216  -22.7949 H   0  0  0  0  0  0
    5.2089    9.9902  -20.0899 H   0  0  0  0  0  0
    5.5500    7.9956  -20.1389 H   0  0  0  0  0  0
    5.3561    6.8499  -22.1750 H   0  0  0  0  0  0
    4.6760    7.6300  -23.5918 H   0  0  0  0  0  0
  1  2  2  0  0  0
  1  3  1  0  0  0
  1 34  1  0  0  0
  2  6  1  0  0  0
  2 35  1  0  0  0
  3  5  2  0  0  0
  3 27  1  0  0  0
  4  5  1  0  0  0
  4  6  2  0  0  0
  4 18  1  0  0  0
  5 24  1  0  0  0
  6 10  1  0  0  0
  7 10  2  0  0  0
  7 23  1  0  0  0
  7 33  1  0  0  0
  8 21  1  0  0  0
  8 22  1  0  0  0
  8 36  1  0  0  0
  8 37  1  0  0  0
  9 21  1  0  0  0
  9 31  1  0  0  0
  9 38  1  0  0  0
  9 39  1  0  0  0
 10 40  1  0  0  0
 11 12  1  0  0  0
 11 14  2  0  0  0
 11 15  1  0  0  0
 12 17  1  0  0  0
 12 28  2  0  0  0
 13 28  1  0  0  0
 13 29  2  0  0  0
 13 55  1  0  0  0
 14 29  1  0  0  0
 14 31  1  0  0  0
 15 30  2  0  0  0
 15 41  1  0  0  0
 16 17  2  0  0  0
 16 18  1  0  0  0
 16 30  1  0  0  0
 17 26  1  0  0  0
 18 23  2  0  0  0
 19 20  1  0  0  0
 19 31  1  0  0  0
 19 42  1  0  0  0
 19 43  1  0  0  0
 20 22  1  0  0  0
 20 32  1  0  0  0
 20 44  1  0  0  0
 21 32  1  0  0  0
 21 45  1  0  0  0
 22 46  1  0  0  0
 22 47  1  0  0  0
 23 48  1  0  0  0
 24 25  3  0  0  0
 25 49  1  0  0  0
 32 50  1  0  0  0
 33 51  1  0  0  0
 52 54  1  0  0  0
 53 56  1  0  0  0
 53 57  1  0  0  0
 53 59  1  0  0  0
 53 60  1  0  0  0
 54 56  1  0  0  0
 54 57  1  0  0  0
 54 58  1  0  0  0
 55 58  1  0  0  0
 55 61  1  0  0  0
 55 62  1  0  0  0
 56 63  1  0  0  0
 56 64  1  0  0  0
 57 65  1  0  0  0
 57 66  1  0  0  0
 58 67  1  0  0  0
 58 68  1  0  0  0
M  CHG  1  53   1
M  END
> <s_m_entry_id>
15

> <s_m_entry_name>
000000015.1

> <s_m_Source_Path>
/Users/zaksoul/Documents/2

> <s_m_Source_File>
000000015.mol2

> <i_m_Source_File_Index>
1

$$$$
No_0_16
                    3D
 Schrodinger Suite 2022-4.
 68 74  0  0  1  0            999 V2000
   -5.5410    3.2260  -21.7810 C   0  0  0  0  0  0
   -5.7930    3.4380  -23.1160 C   0  0  0  0  0  0
   -4.3010    2.9960  -21.4280 C   0  0  0  0  0  0
   -3.3830    3.1930  -23.5770 C   0  0  0  0  0  0
   -3.2360    2.9210  -22.1600 C   0  0  0  0  0  0
   -4.7300    3.4330  -24.1120 C   0  0  0  0  0  0
   -3.9450    3.5220  -26.2980 C   0  0  0  0  0  0
    5.7250    2.9120  -20.9090 C   0  0  0  0  0  0
    5.6190    3.1080  -23.4570 C   0  0  0  0  0  0
   -4.9650    3.5840  -25.4480 C   0  0  0  0  0  0
    1.8220    3.5620  -23.5170 C   0  0  0  0  0  0
    0.9700    4.6430  -23.2060 C   0  0  0  0  0  0
    2.7280    5.8680  -22.4740 C   0  0  0  0  0  0
    3.2130    3.7800  -23.1790 C   0  0  0  0  0  0
    1.3130    2.4470  -24.2100 C   0  0  0  0  0  0
   -0.8350    3.2050  -24.1130 C   0  0  0  0  0  0
   -0.3470    4.4240  -23.4800 C   0  0  0  0  0  0
   -2.2830    3.1830  -24.4880 C   0  0  0  0  0  0
    3.8770    1.2930  -22.9330 C   0  0  0  0  0  0
    4.8030    0.9350  -21.7810 C   0  0  2  0  0  0
    6.3640    2.5260  -22.2610 C   0  0  2  0  0  0
    4.7430    1.9090  -20.5930 C   0  0  0  0  0  0
   -2.5920    3.3660  -25.9170 C   0  0  0  0  0  0
   -1.8910    2.5280  -21.5510 C   0  0  0  0  0  0
   -0.8590    2.1940  -21.0380 C   0  0  0  0  0  0
   -1.2200    5.4400  -23.1250 F   0  0  0  0  0  0
   -4.1040    2.7290  -20.0490 F   0  0  0  0  0  0
    1.4100    5.8020  -22.6420 N   0  0  0  0  0  0
    3.6510    4.9320  -22.7020 N   0  0  0  0  0  0
    0.0140    2.3320  -24.5360 N   0  0  0  0  0  0
    4.1590    2.7600  -23.3660 N   0  0  0  0  0  0
    6.2140    1.0470  -22.2420 N   0  0  1  0  0  0
   -4.0980    3.5640  -27.6890 O   0  0  0  0  0  0
   -6.3544    3.2531  -21.0650 H   0  0  0  0  0  0
   -6.8075    3.6148  -23.4545 H   0  0  0  0  0  0
    5.2317    3.8906  -21.0038 H   0  0  0  0  0  0
    6.5002    2.9251  -20.1287 H   0  0  0  0  0  0
    6.0370    2.6930  -24.3860 H   0  0  0  0  0  0
    5.7351    4.2018  -23.4641 H   0  0  0  0  0  0
   -5.9749    3.7517  -25.8044 H   0  0  0  0  0  0
    1.9762    1.6404  -24.5009 H   0  0  0  0  0  0
    2.8312    1.2022  -22.6042 H   0  0  0  0  0  0
    4.0677    0.6181  -23.7804 H   0  0  0  0  0  0
    4.5991   -0.0904  -21.4389 H   0  0  0  0  0  0
    7.4263    2.8105  -22.2862 H   0  0  0  0  0  0
    3.7472    2.3746  -20.5526 H   0  0  0  0  0  0
    5.0436    1.3825  -19.6751 H   0  0  0  0  0  0
   -1.8112    3.3821  -26.6687 H   0  0  0  0  0  0
    0.0498    1.9011  -20.5871 H   0  0  0  0  0  0
    6.8641    0.5498  -21.5374 H   0  0  0  0  0  0
   -3.2458    3.5056  -28.1047 H   0  0  0  0  0  0
    4.0170   10.0420  -22.3670 F   0  0  0  0  0  0
    6.9310    9.4610  -21.6690 N   0  3  0  0  0  0
    5.0030    9.0640  -22.2790 C   0  0  0  0  0  0
    3.2470    7.2090  -21.9680 C   0  0  0  0  0  0
    6.2930    9.4850  -23.0230 C   0  0  0  0  0  0
    5.7080    9.0650  -20.9010 C   0  0  0  0  0  0
    4.4940    7.6850  -22.7400 C   0  0  0  0  0  0
    7.1832   10.4027  -21.4128 H   0  0  0  0  0  0
    7.5927    8.7013  -21.6370 H   0  0  0  0  0  0
    2.4529    7.9651  -22.0560 H   0  0  0  0  0  0
    3.4881    7.1290  -20.8977 H   0  0  0  0  0  0
    6.6540    8.5960  -23.5610 H   0  0  0  0  0  0
    6.1700   10.5432  -23.2971 H   0  0  0  0  0  0
    5.3628    9.9636  -20.3687 H   0  0  0  0  0  0
    5.8410    8.0120  -20.6120 H   0  0  0  0  0  0
    5.2981    6.9429  -22.6270 H   0  0  0  0  0  0
    4.2670    7.7200  -23.8158 H   0  0  0  0  0  0
  1  2  2  0  0  0
  1  3  1  0  0  0
  1 34  1  0  0  0
  2  6  1  0  0  0
  2 35  1  0  0  0
  3  5  2  0  0  0
  3 27  1  0  0  0
  4  5  1  0  0  0
  4  6  2  0  0  0
  4 18  1  0  0  0
  5 24  1  0  0  0
  6 10  1  0  0  0
  7 10  2  0  0  0
  7 23  1  0  0  0
  7 33  1  0  0  0
  8 21  1  0  0  0
  8 22  1  0  0  0
  8 36  1  0  0  0
  8 37  1  0  0  0
  9 21  1  0  0  0
  9 31  1  0  0  0
  9 38  1  0  0  0
  9 39  1  0  0  0
 10 40  1  0  0  0
 11 12  1  0  0  0
 11 14  2  0  0  0
 11 15  1  0  0  0
 12 17  1  0  0  0
 12 28  2  0  0  0
 13 28  1  0  0  0
 13 29  2  0  0  0
 13 55  1  0  0  0
 14 29  1  0  0  0
 14 31  1  0  0  0
 15 30  2  0  0  0
 15 41  1  0  0  0
 16 17  2  0  0  0
 16 18  1  0  0  0
 16 30  1  0  0  0
 17 26  1  0  0  0
 18 23  2  0  0  0
 19 20  1  0  0  0
 19 31  1  0  0  0
 19 42  1  0  0  0
 19 43  1  0  0  0
 20 22  1  0  0  0
 20 32  1  0  0  0
 20 44  1  0  0  0
 21 32  1  0  0  0
 21 45  1  0  0  0
 22 46  1  0  0  0
 22 47  1  0  0  0
 23 48  1  0  0  0
 24 25  3  0  0  0
 25 49  1  0  0  0
 32 50  1  0  0  0
 33 51  1  0  0  0
 52 54  1  0  0  0
 53 56  1  0  0  0
 53 57  1  0  0  0
 53 59  1  0  0  0
 53 60  1  0  0  0
 54 56  1  0  0  0
 54 57  1  0  0  0
 54 58  1  0  0  0
 55 58  1  0  0  0
 55 61  1  0  0  0
 55 62  1  0  0  0
 56 63  1  0  0  0
 56 64  1  0  0  0
 57 65  1  0  0  0
 57 66  1  0  0  0
 58 67  1  0  0  0
 58 68  1  0  0  0
M  CHG  1  53   1
M  END
> <s_m_entry_id>
16

> <s_m_entry_name>
000000016.1

> <s_m_Source_Path>
/Users/zaksoul/Documents/2

> <s_m_Source_File>
000000016.mol2

> <i_m_Source_File_Index>
1

$$$$
No_0_17
                    3D
 Schrodinger Suite 2022-4.
 71 77  0  0  1  0            999 V2000
   -5.4320    3.2820  -22.0800 C   0  0  0  0  0  0
   -5.6920    3.4450  -23.4200 C   0  0  0  0  0  0
   -4.1930    3.0490  -21.7270 C   0  0  0  0  0  0
   -3.2890    3.1500  -23.8890 C   0  0  0  0  0  0
   -3.1350    2.9310  -22.4630 C   0  0  0  0  0  0
   -4.6360    3.3870  -24.4220 C   0  0  0  0  0  0
   -3.8670    3.3810  -26.6160 C   0  0  0  0  0  0
    5.8350    2.8530  -21.2770 C   0  0  0  0  0  0
    5.7120    2.9500  -23.8300 C   0  0  0  0  0  0
   -4.8800    3.4890  -25.7610 C   0  0  0  0  0  0
    1.9210    3.4520  -23.8800 C   0  0  0  0  0  0
    1.0850    4.5560  -23.6050 C   0  0  0  0  0  0
    2.8640    5.7840  -22.9340 C   0  0  0  0  0  0
    3.3170    3.6650  -23.5610 C   0  0  0  0  0  0
    1.3920    2.3180  -24.5260 C   0  0  0  0  0  0
   -0.7450    3.1070  -24.4430 C   0  0  0  0  0  0
   -0.2370    4.3440  -23.8610 C   0  0  0  0  0  0
   -2.1960    3.0900  -24.8060 C   0  0  0  0  0  0
    3.9500    1.1800  -23.2240 C   0  0  0  0  0  0
    4.8810    0.8550  -22.0650 C   0  0  2  0  0  0
    6.4590    2.4050  -22.6180 C   0  0  2  0  0  0
    4.8430    1.8750  -20.9150 C   0  0  0  0  0  0
   -2.5140    3.2210  -26.2390 C   0  0  0  0  0  0
   -1.7900    2.5440  -21.8490 C   0  0  0  0  0  0
   -0.7580    2.2180  -21.3310 C   0  0  0  0  0  0
   -1.0930    5.3840  -23.5390 F   0  0  0  0  0  0
   -3.9890    2.8330  -20.3390 F   0  0  0  0  0  0
    1.5450    5.7290  -23.0900 N   0  0  0  0  0  0
    3.7740    4.8290  -23.1320 N   0  0  0  0  0  0
    0.0890    2.2070  -24.8380 N   0  0  0  0  0  0
    4.2490    2.6260  -23.7150 N   0  0  0  0  0  0
    6.2900    0.9310  -22.5400 N   0  0  1  0  0  0
   -4.0310    3.3700  -28.0070 O   0  0  0  0  0  0
   -6.2391    3.3472  -21.3593 H   0  0  0  0  0  0
   -6.7065    3.6218  -23.7585 H   0  0  0  0  0  0
    5.3534    3.8334  -21.4072 H   0  0  0  0  0  0
    6.6160    2.8853  -20.5031 H   0  0  0  0  0  0
    6.1178    2.4948  -24.7455 H   0  0  0  0  0  0
    5.8421    4.0411  -23.8804 H   0  0  0  0  0  0
   -5.8901    3.6565  -26.1171 H   0  0  0  0  0  0
    2.0430    1.4924  -24.7898 H   0  0  0  0  0  0
    2.9058    1.1174  -22.8837 H   0  0  0  0  0  0
    4.1267    0.4703  -24.0457 H   0  0  0  0  0  0
    4.6660   -0.1533  -21.6815 H   0  0  0  0  0  0
    7.5246    2.6744  -22.6624 H   0  0  0  0  0  0
    3.8539    2.3554  -20.8857 H   0  0  0  0  0  0
    5.1438    1.3813  -19.9792 H   0  0  0  0  0  0
   -1.7392    3.1979  -26.9968 H   0  0  0  0  0  0
    0.1499    1.9300  -20.8750 H   0  0  0  0  0  0
    6.9380    0.4530  -21.8203 H   0  0  0  0  0  0
   -3.1825    3.2849  -28.4258 H   0  0  0  0  0  0
    8.4860    9.2980  -21.6870 N   0  3  0  0  0  0
    6.8410    8.2420  -21.0350 C   0  0  0  0  0  0
    5.4140    8.4230  -21.5880 C   0  0  0  0  0  0
    4.8520    7.0460  -21.9720 C   0  0  0  0  0  0
    7.4850    9.5830  -20.6130 C   0  0  0  0  0  0
    7.8990    7.9990  -22.1390 C   0  0  0  0  0  0
    3.4050    7.1380  -22.4850 C   0  0  0  0  0  0
    9.3796    9.1171  -21.2572 H   0  0  0  0  0  0
    8.3740    9.9773  -22.4233 H   0  0  0  0  0  0
    6.8870    7.4861  -20.2372 H   0  0  0  0  0  0
    5.4450    9.0671  -22.4792 H   0  0  0  0  0  0
    4.7759    8.8760  -20.8149 H   0  0  0  0  0  0
    4.8890    6.3790  -21.0980 H   0  0  0  0  0  0
    5.4876    6.5953  -22.7485 H   0  0  0  0  0  0
    6.8320   10.3830  -20.9920 H   0  0  0  0  0  0
    7.9900    9.4050  -19.6521 H   0  0  0  0  0  0
    8.5647    7.2043  -21.7712 H   0  0  0  0  0  0
    7.4039    8.1920  -23.1021 H   0  0  0  0  0  0
    3.3590    7.8469  -23.3249 H   0  0  0  0  0  0
    2.7610    7.5440  -21.6910 H   0  0  0  0  0  0
  1  2  2  0  0  0
  1  3  1  0  0  0
  1 34  1  0  0  0
  2  6  1  0  0  0
  2 35  1  0  0  0
  3  5  2  0  0  0
  3 27  1  0  0  0
  4  5  1  0  0  0
  4  6  2  0  0  0
  4 18  1  0  0  0
  5 24  1  0  0  0
  6 10  1  0  0  0
  7 10  2  0  0  0
  7 23  1  0  0  0
  7 33  1  0  0  0
  8 21  1  0  0  0
  8 22  1  0  0  0
  8 36  1  0  0  0
  8 37  1  0  0  0
  9 21  1  0  0  0
  9 31  1  0  0  0
  9 38  1  0  0  0
  9 39  1  0  0  0
 10 40  1  0  0  0
 11 12  1  0  0  0
 11 14  2  0  0  0
 11 15  1  0  0  0
 12 17  1  0  0  0
 12 28  2  0  0  0
 13 28  1  0  0  0
 13 29  2  0  0  0
 13 58  1  0  0  0
 14 29  1  0  0  0
 14 31  1  0  0  0
 15 30  2  0  0  0
 15 41  1  0  0  0
 16 17  2  0  0  0
 16 18  1  0  0  0
 16 30  1  0  0  0
 17 26  1  0  0  0
 18 23  2  0  0  0
 19 20  1  0  0  0
 19 31  1  0  0  0
 19 42  1  0  0  0
 19 43  1  0  0  0
 20 22  1  0  0  0
 20 32  1  0  0  0
 20 44  1  0  0  0
 21 32  1  0  0  0
 21 45  1  0  0  0
 22 46  1  0  0  0
 22 47  1  0  0  0
 23 48  1  0  0  0
 24 25  3  0  0  0
 25 49  1  0  0  0
 32 50  1  0  0  0
 33 51  1  0  0  0
 52 56  1  0  0  0
 52 57  1  0  0  0
 52 59  1  0  0  0
 52 60  1  0  0  0
 53 54  1  0  0  0
 53 56  1  0  0  0
 53 57  1  0  0  0
 53 61  1  0  0  0
 54 55  1  0  0  0
 54 62  1  0  0  0
 54 63  1  0  0  0
 55 58  1  0  0  0
 55 64  1  0  0  0
 55 65  1  0  0  0
 56 66  1  0  0  0
 56 67  1  0  0  0
 57 68  1  0  0  0
 57 69  1  0  0  0
 58 70  1  0  0  0
 58 71  1  0  0  0
M  CHG  1  52   1
M  END
> <s_m_entry_id>
17

> <s_m_entry_name>
000000017.1

> <s_m_Source_Path>
/Users/zaksoul/Documents/2

> <s_m_Source_File>
000000017.mol2

> <i_m_Source_File_Index>
1

$$$$
No_0_18
                    3D
 Schrodinger Suite 2022-4.
 71 77  0  0  1  0            999 V2000
   -5.3220    3.6410  -22.1640 C   0  0  0  0  0  0
   -5.5560    3.8140  -23.5080 C   0  0  0  0  0  0
   -4.0930    3.3890  -21.7910 C   0  0  0  0  0  0
   -3.1500    3.4880  -23.9370 C   0  0  0  0  0  0
   -3.0230    3.2600  -22.5100 C   0  0  0  0  0  0
   -4.4840    3.7480  -24.4920 C   0  0  0  0  0  0
   -3.6770    3.7420  -26.6720 C   0  0  0  0  0  0
    5.9230    3.0490  -21.1700 C   0  0  0  0  0  0
    5.8450    3.1620  -23.7230 C   0  0  0  0  0  0
   -4.7030    3.8600  -25.8350 C   0  0  0  0  0  0
    2.0630    3.7170  -23.8360 C   0  0  0  0  0  0
    1.2380    4.8310  -23.5700 C   0  0  0  0  0  0
    3.0220    6.0310  -22.8610 C   0  0  0  0  0  0
    3.4560    3.9090  -23.4920 C   0  0  0  0  0  0
    1.5300    2.5940  -24.4970 C   0  0  0  0  0  0
   -0.5970    3.4130  -24.4470 C   0  0  0  0  0  0
   -0.0820    4.6390  -23.8500 C   0  0  0  0  0  0
   -2.0420    3.4180  -24.8360 C   0  0  0  0  0  0
    4.0490    1.4130  -23.1570 C   0  0  0  0  0  0
    4.9540    1.0690  -21.9850 C   0  0  2  0  0  0
    6.5630    2.6000  -22.5010 C   0  0  2  0  0  0
    4.9110    2.0840  -20.8300 C   0  0  0  0  0  0
   -2.3330    3.5620  -26.2730 C   0  0  0  0  0  0
   -1.6950    2.8510  -21.8750 C   0  0  0  0  0  0
   -0.6770    2.5070  -21.3410 C   0  0  0  0  0  0
   -0.9290    5.6900  -23.5370 F   0  0  0  0  0  0
   -3.9150    3.1620  -20.4020 F   0  0  0  0  0  0
    1.7050    5.9950  -23.0400 N   0  0  0  0  0  0
    3.9210    5.0640  -23.0490 N   0  0  0  0  0  0
    0.2310    2.5040  -24.8330 N   0  0  0  0  0  0
    4.3760    2.8570  -23.6360 N   0  0  0  0  0  0
    6.3720    1.1270  -22.4350 N   0  0  1  0  0  0
   -3.8170    3.7410  -28.0660 O   0  0  0  0  0  0
   -6.1405    3.7143  -21.4570 H   0  0  0  0  0  0
   -6.5619    4.0078  -23.8624 H   0  0  0  0  0  0
    5.4566    4.0364  -21.3023 H   0  0  0  0  0  0
    6.6906    3.0661  -20.3823 H   0  0  0  0  0  0
    6.2597    2.7060  -24.6341 H   0  0  0  0  0  0
    5.9914    4.2514  -23.7654 H   0  0  0  0  0  0
   -5.7044    4.0436  -26.2073 H   0  0  0  0  0  0
    2.1731    1.7603  -24.7548 H   0  0  0  0  0  0
    2.9980    1.3636  -22.8362 H   0  0  0  0  0  0
    4.2287    0.7053  -23.9797 H   0  0  0  0  0  0
    4.7188    0.0618  -21.6106 H   0  0  0  0  0  0
    7.6329    2.8544  -22.5262 H   0  0  0  0  0  0
    3.9276    2.5767  -20.8159 H   0  0  0  0  0  0
    5.1886    1.5803  -19.8923 H   0  0  0  0  0  0
   -1.5450    3.5309  -27.0168 H   0  0  0  0  0  0
    0.2188    2.2041  -20.8711 H   0  0  0  0  0  0
    7.0019    0.6362  -21.7078 H   0  0  0  0  0  0
   -2.9624    3.6469  -28.4700 H   0  0  0  0  0  0
    8.5850    9.8240  -22.4540 N   0  3  0  0  0  0
    7.1770    8.5940  -21.5870 C   0  0  0  0  0  0
    5.6570    8.7180  -21.8080 C   0  0  0  0  0  0
    5.1010    7.3440  -22.2090 C   0  0  0  0  0  0
    7.8250    9.9350  -21.1710 C   0  0  0  0  0  0
    7.9850    8.5320  -22.9070 C   0  0  0  0  0  0
    3.5740    7.3740  -22.3950 C   0  0  0  0  0  0
    9.5585    9.6721  -22.2411 H   0  0  0  0  0  0
    8.2811   10.5577  -23.0748 H   0  0  0  0  0  0
    7.4349    7.7743  -20.9003 H   0  0  0  0  0  0
    5.4619    9.4414  -22.6134 H   0  0  0  0  0  0
    5.1772    9.0498  -20.8754 H   0  0  0  0  0  0
    5.3599    6.6042  -21.4372 H   0  0  0  0  0  0
    5.5772    7.0149  -23.1444 H   0  0  0  0  0  0
    7.0633   10.7147  -21.3189 H   0  0  0  0  0  0
    8.5339    9.7080  -20.3611 H   0  0  0  0  0  0
    8.7559    7.7591  -22.7720 H   0  0  0  0  0  0
    7.2844    8.7749  -23.7195 H   0  0  0  0  0  0
    3.3102    8.1513  -23.1273 H   0  0  0  0  0  0
    3.0950    7.6570  -21.4461 H   0  0  0  0  0  0
  1  2  2  0  0  0
  1  3  1  0  0  0
  1 34  1  0  0  0
  2  6  1  0  0  0
  2 35  1  0  0  0
  3  5  2  0  0  0
  3 27  1  0  0  0
  4  5  1  0  0  0
  4  6  2  0  0  0
  4 18  1  0  0  0
  5 24  1  0  0  0
  6 10  1  0  0  0
  7 10  2  0  0  0
  7 23  1  0  0  0
  7 33  1  0  0  0
  8 21  1  0  0  0
  8 22  1  0  0  0
  8 36  1  0  0  0
  8 37  1  0  0  0
  9 21  1  0  0  0
  9 31  1  0  0  0
  9 38  1  0  0  0
  9 39  1  0  0  0
 10 40  1  0  0  0
 11 12  1  0  0  0
 11 14  2  0  0  0
 11 15  1  0  0  0
 12 17  1  0  0  0
 12 28  2  0  0  0
 13 28  1  0  0  0
 13 29  2  0  0  0
 13 58  1  0  0  0
 14 29  1  0  0  0
 14 31  1  0  0  0
 15 30  2  0  0  0
 15 41  1  0  0  0
 16 17  2  0  0  0
 16 18  1  0  0  0
 16 30  1  0  0  0
 17 26  1  0  0  0
 18 23  2  0  0  0
 19 20  1  0  0  0
 19 31  1  0  0  0
 19 42  1  0  0  0
 19 43  1  0  0  0
 20 22  1  0  0  0
 20 32  1  0  0  0
 20 44  1  0  0  0
 21 32  1  0  0  0
 21 45  1  0  0  0
 22 46  1  0  0  0
 22 47  1  0  0  0
 23 48  1  0  0  0
 24 25  3  0  0  0
 25 49  1  0  0  0
 32 50  1  0  0  0
 33 51  1  0  0  0
 52 56  1  0  0  0
 52 57  1  0  0  0
 52 59  1  0  0  0
 52 60  1  0  0  0
 53 54  1  0  0  0
 53 56  1  0  0  0
 53 57  1  0  0  0
 53 61  1  0  0  0
 54 55  1  0  0  0
 54 62  1  0  0  0
 54 63  1  0  0  0
 55 58  1  0  0  0
 55 64  1  0  0  0
 55 65  1  0  0  0
 56 66  1  0  0  0
 56 67  1  0  0  0
 57 68  1  0  0  0
 57 69  1  0  0  0
 58 70  1  0  0  0
 58 71  1  0  0  0
M  CHG  1  52   1
M  END
> <s_m_entry_id>
18

> <s_m_entry_name>
000000018.1

> <s_m_Source_Path>
/Users/zaksoul/Documents/2

> <s_m_Source_File>
000000018.mol2

> <i_m_Source_File_Index>
1

$$$$
No_0_19
                    3D
 Schrodinger Suite 2022-4.
 71 77  0  0  1  0            999 V2000
   -5.1880    3.4590  -22.1120 C   0  0  0  0  0  0
   -5.4200    3.6440  -23.4540 C   0  0  0  0  0  0
   -3.9550    3.2330  -21.7360 C   0  0  0  0  0  0
   -3.0050    3.3830  -23.8750 C   0  0  0  0  0  0
   -2.8800    3.1400  -22.4510 C   0  0  0  0  0  0
   -4.3430    3.6160  -24.4340 C   0  0  0  0  0  0
   -3.5260    3.6580  -26.6100 C   0  0  0  0  0  0
    6.0630    3.1330  -21.0700 C   0  0  0  0  0  0
    5.9940    3.2760  -23.6220 C   0  0  0  0  0  0
   -4.5590    3.7400  -25.7760 C   0  0  0  0  0  0
    2.2000    3.7390  -23.7470 C   0  0  0  0  0  0
    1.3460    4.8290  -23.4710 C   0  0  0  0  0  0
    3.0970    6.0640  -22.7390 C   0  0  0  0  0  0
    3.5860    3.9610  -23.3940 C   0  0  0  0  0  0
    1.6980    2.6110  -24.4250 C   0  0  0  0  0  0
   -0.4500    3.3770  -24.3740 C   0  0  0  0  0  0
    0.0330    4.6080  -23.7590 C   0  0  0  0  0  0
   -1.8920    3.3510  -24.7700 C   0  0  0  0  0  0
    4.2390    1.4770  -23.0870 C   0  0  0  0  0  0
    5.1470    1.1400  -21.9150 C   0  0  2  0  0  0
    6.7200    2.7170  -22.4040 C   0  0  2  0  0  0
    5.0740    2.1390  -20.7480 C   0  0  0  0  0  0
   -2.1800    3.5050  -26.2060 C   0  0  0  0  0  0
   -1.5440    2.7560  -21.8150 C   0  0  0  0  0  0
   -0.5210    2.4300  -21.2800 C   0  0  0  0  0  0
   -0.8420    5.6330  -23.4380 F   0  0  0  0  0  0
   -3.7790    2.9940  -20.3490 F   0  0  0  0  0  0
    1.7820    5.9980  -22.9250 N   0  0  0  0  0  0
    4.0210    5.1210  -22.9340 N   0  0  0  0  0  0
    0.4030    2.4930  -24.7670 N   0  0  0  0  0  0
    4.5320    2.9340  -23.5460 N   0  0  0  0  0  0
    6.5650    1.2400  -22.3570 N   0  0  1  0  0  0
   -3.6600    3.6710  -28.0040 O   0  0  0  0  0  0
   -6.0117    3.5031  -21.4087 H   0  0  0  0  0  0
   -6.4289    3.8165  -23.8110 H   0  0  0  0  0  0
    5.5737    4.1106  -21.1921 H   0  0  0  0  0  0
    6.8263    3.1603  -20.2784 H   0  0  0  0  0  0
    6.4241    2.8419  -24.5367 H   0  0  0  0  0  0
    6.1131    4.3692  -23.6503 H   0  0  0  0  0  0
   -5.5628    3.9026  -26.1514 H   0  0  0  0  0  0
    2.3628    1.7966  -24.6891 H   0  0  0  0  0  0
    3.1884    1.3963  -22.7711 H   0  0  0  0  0  0
    4.4398    0.7839  -23.9173 H   0  0  0  0  0  0
    4.9351    0.1229  -21.5537 H   0  0  0  0  0  0
    7.7835    2.9975  -22.4201 H   0  0  0  0  0  0
    4.0792    2.6082  -20.7319 H   0  0  0  0  0  0
    5.3586    1.6314  -19.8145 H   0  0  0  0  0  0
   -1.3883    3.5040  -26.9465 H   0  0  0  0  0  0
    0.3799    2.1440  -20.8091 H   0  0  0  0  0  0
    7.2030    0.7559  -21.6324 H   0  0  0  0  0  0
   -2.8018    3.6018  -28.4054 H   0  0  0  0  0  0
    8.2260   10.4280  -23.1240 N   0  3  0  0  0  0
    7.1760    8.9680  -22.1180 C   0  0  0  0  0  0
    5.6410    8.9330  -21.9850 C   0  0  0  0  0  0
    5.1380    7.5450  -22.4100 C   0  0  0  0  0  0
    7.7740   10.3320  -21.7020 C   0  0  0  0  0  0
    7.6610    9.1200  -23.5800 C   0  0  0  0  0  0
    3.6130    7.4140  -22.2540 C   0  0  0  0  0  0
    9.2321   10.3711  -23.1480 H   0  0  0  0  0  0
    7.7207   11.1744  -23.5753 H   0  0  0  0  0  0
    7.6590    8.1251  -21.6020 H   0  0  0  0  0  0
    5.1992    9.6986  -22.6397 H   0  0  0  0  0  0
    5.3588    9.1201  -20.9384 H   0  0  0  0  0  0
    5.6350    6.7740  -21.8030 H   0  0  0  0  0  0
    5.4151    7.3599  -23.4583 H   0  0  0  0  0  0
    6.9294   11.0277  -21.5891 H   0  0  0  0  0  0
    8.6671   10.1170  -21.0969 H   0  0  0  0  0  0
    8.5109    8.4331  -23.7060 H   0  0  0  0  0  0
    6.7736    9.3521  -24.1872 H   0  0  0  0  0  0
    3.1172    8.2187  -22.8168 H   0  0  0  0  0  0
    3.3401    7.5520  -21.1974 H   0  0  0  0  0  0
  1  2  2  0  0  0
  1  3  1  0  0  0
  1 34  1  0  0  0
  2  6  1  0  0  0
  2 35  1  0  0  0
  3  5  2  0  0  0
  3 27  1  0  0  0
  4  5  1  0  0  0
  4  6  2  0  0  0
  4 18  1  0  0  0
  5 24  1  0  0  0
  6 10  1  0  0  0
  7 10  2  0  0  0
  7 23  1  0  0  0
  7 33  1  0  0  0
  8 21  1  0  0  0
  8 22  1  0  0  0
  8 36  1  0  0  0
  8 37  1  0  0  0
  9 21  1  0  0  0
  9 31  1  0  0  0
  9 38  1  0  0  0
  9 39  1  0  0  0
 10 40  1  0  0  0
 11 12  1  0  0  0
 11 14  2  0  0  0
 11 15  1  0  0  0
 12 17  1  0  0  0
 12 28  2  0  0  0
 13 28  1  0  0  0
 13 29  2  0  0  0
 13 58  1  0  0  0
 14 29  1  0  0  0
 14 31  1  0  0  0
 15 30  2  0  0  0
 15 41  1  0  0  0
 16 17  2  0  0  0
 16 18  1  0  0  0
 16 30  1  0  0  0
 17 26  1  0  0  0
 18 23  2  0  0  0
 19 20  1  0  0  0
 19 31  1  0  0  0
 19 42  1  0  0  0
 19 43  1  0  0  0
 20 22  1  0  0  0
 20 32  1  0  0  0
 20 44  1  0  0  0
 21 32  1  0  0  0
 21 45  1  0  0  0
 22 46  1  0  0  0
 22 47  1  0  0  0
 23 48  1  0  0  0
 24 25  3  0  0  0
 25 49  1  0  0  0
 32 50  1  0  0  0
 33 51  1  0  0  0
 52 56  1  0  0  0
 52 57  1  0  0  0
 52 59  1  0  0  0
 52 60  1  0  0  0
 53 54  1  0  0  0
 53 56  1  0  0  0
 53 57  1  0  0  0
 53 61  1  0  0  0
 54 55  1  0  0  0
 54 62  1  0  0  0
 54 63  1  0  0  0
 55 58  1  0  0  0
 55 64  1  0  0  0
 55 65  1  0  0  0
 56 66  1  0  0  0
 56 67  1  0  0  0
 57 68  1  0  0  0
 57 69  1  0  0  0
 58 70  1  0  0  0
 58 71  1  0  0  0
M  CHG  1  52   1
M  END
> <s_m_entry_id>
19

> <s_m_entry_name>
000000019.1

> <s_m_Source_Path>
/Users/zaksoul/Documents/2

> <s_m_Source_File>
000000019.mol2

> <i_m_Source_File_Index>
1

$$$$
No_0_20
                    3D
 Schrodinger Suite 2022-4.
 71 77  0  0  1  0            999 V2000
   -5.2650    3.6480  -22.0310 C   0  0  0  0  0  0
   -5.4800    3.8300  -23.3760 C   0  0  0  0  0  0
   -4.0390    3.4030  -21.6410 C   0  0  0  0  0  0
   -3.0660    3.5250  -23.7710 C   0  0  0  0  0  0
   -2.9590    3.2870  -22.3440 C   0  0  0  0  0  0
   -4.3930    3.7790  -24.3450 C   0  0  0  0  0  0
   -3.5540    3.7960  -26.5120 C   0  0  0  0  0  0
    5.9680    3.1320  -20.8720 C   0  0  0  0  0  0
    5.9270    3.2640  -23.4250 C   0  0  0  0  0  0
   -4.5930    3.9000  -25.6900 C   0  0  0  0  0  0
    2.1440    3.7920  -23.5910 C   0  0  0  0  0  0
    1.3060    4.8980  -23.3290 C   0  0  0  0  0  0
    3.0710    6.1050  -22.5850 C   0  0  0  0  0  0
    3.5300    3.9910  -23.2250 C   0  0  0  0  0  0
    1.6290    2.6700  -24.2680 C   0  0  0  0  0  0
   -0.5050    3.4730  -24.2430 C   0  0  0  0  0  0
   -0.0080    4.6980  -23.6300 C   0  0  0  0  0  0
   -1.9440    3.4700  -24.6540 C   0  0  0  0  0  0
    4.1360    1.4980  -22.9000 C   0  0  0  0  0  0
    5.0260    1.1510  -21.7160 C   0  0  2  0  0  0
    6.6310    2.6980  -22.1970 C   0  0  2  0  0  0
    4.9580    2.1570  -20.5550 C   0  0  0  0  0  0
   -2.2140    3.6220  -26.0940 C   0  0  0  0  0  0
   -1.6360    2.8830  -21.6930 C   0  0  0  0  0  0
   -0.6240    2.5430  -21.1460 C   0  0  0  0  0  0
   -0.8680    5.7400  -23.3220 F   0  0  0  0  0  0
   -3.8810    3.1670  -20.2510 F   0  0  0  0  0  0
    1.7560    6.0610  -22.7840 N   0  0  0  0  0  0
    3.9800    5.1460  -22.7660 N   0  0  0  0  0  0
    0.3360    2.5720  -24.6240 N   0  0  0  0  0  0
    4.4590    2.9480  -23.3620 N   0  0  0  0  0  0
    6.4500    1.2240  -22.1440 N   0  0  1  0  0  0
   -3.6730    3.8040  -27.9080 O   0  0  0  0  0  0
   -6.0941    3.7102  -21.3354 H   0  0  0  0  0  0
   -6.4819    4.0187  -23.7444 H   0  0  0  0  0  0
    5.4967    4.1171  -21.0042 H   0  0  0  0  0  0
    6.7237    3.1502  -20.0729 H   0  0  0  0  0  0
    6.3597    2.8182  -24.3328 H   0  0  0  0  0  0
    6.0662    4.3547  -23.4573 H   0  0  0  0  0  0
   -5.5905    4.0776  -26.0754 H   0  0  0  0  0  0
    2.2823    1.8431  -24.5219 H   0  0  0  0  0  0
    3.0811    1.4374  -22.5941 H   0  0  0  0  0  0
    4.3338    0.7975  -23.7247 H   0  0  0  0  0  0
    4.7928    0.1393  -21.3525 H   0  0  0  0  0  0
    7.6993    2.9603  -22.2041 H   0  0  0  0  0  0
    3.9715    2.6437  -20.5510 H   0  0  0  0  0  0
    5.2253    1.6486  -19.6169 H   0  0  0  0  0  0
   -1.4157    3.6029  -26.8271 H   0  0  0  0  0  0
    0.2670    2.2430  -20.6650 H   0  0  0  0  0  0
    7.0725    0.7320  -21.4113 H   0  0  0  0  0  0
   -2.8118    3.7189  -28.3000 H   0  0  0  0  0  0
    7.7350   10.8570  -23.6670 N   0  3  0  0  0  0
    7.0170    9.2490  -22.5960 C   0  0  0  0  0  0
    5.5540    9.0900  -22.1390 C   0  0  0  0  0  0
    5.0470    7.7050  -22.5700 C   0  0  0  0  0  0
    7.6150   10.6180  -22.1950 C   0  0  0  0  0  0
    7.1570    9.5500  -24.1080 C   0  0  0  0  0  0
    3.6050    7.4490  -22.1010 C   0  0  0  0  0  0
    8.7124   10.8770  -23.9128 H   0  0  0  0  0  0
    7.1006   11.5955  -23.9282 H   0  0  0  0  0  0
    7.6490    8.4071  -22.2770 H   0  0  0  0  0  0
    4.9362    9.8688  -22.6099 H   0  0  0  0  0  0
    5.5010    9.1740  -21.0435 H   0  0  0  0  0  0
    5.7090    6.9291  -22.1580 H   0  0  0  0  0  0
    5.0960    7.6230  -23.6658 H   0  0  0  0  0  0
    6.7788   11.2382  -21.8399 H   0  0  0  0  0  0
    8.6311   10.4240  -21.8210 H   0  0  0  0  0  0
    7.9946    8.9403  -24.4778 H   0  0  0  0  0  0
    6.1453    9.7609  -24.4849 H   0  0  0  0  0  0
    2.9524    8.2555  -22.4668 H   0  0  0  0  0  0
    3.5660    7.4840  -21.0022 H   0  0  0  0  0  0
  1  2  2  0  0  0
  1  3  1  0  0  0
  1 34  1  0  0  0
  2  6  1  0  0  0
  2 35  1  0  0  0
  3  5  2  0  0  0
  3 27  1  0  0  0
  4  5  1  0  0  0
  4  6  2  0  0  0
  4 18  1  0  0  0
  5 24  1  0  0  0
  6 10  1  0  0  0
  7 10  2  0  0  0
  7 23  1  0  0  0
  7 33  1  0  0  0
  8 21  1  0  0  0
  8 22  1  0  0  0
  8 36  1  0  0  0
  8 37  1  0  0  0
  9 21  1  0  0  0
  9 31  1  0  0  0
  9 38  1  0  0  0
  9 39  1  0  0  0
 10 40  1  0  0  0
 11 12  1  0  0  0
 11 14  2  0  0  0
 11 15  1  0  0  0
 12 17  1  0  0  0
 12 28  2  0  0  0
 13 28  1  0  0  0
 13 29  2  0  0  0
 13 58  1  0  0  0
 14 29  1  0  0  0
 14 31  1  0  0  0
 15 30  2  0  0  0
 15 41  1  0  0  0
 16 17  2  0  0  0
 16 18  1  0  0  0
 16 30  1  0  0  0
 17 26  1  0  0  0
 18 23  2  0  0  0
 19 20  1  0  0  0
 19 31  1  0  0  0
 19 42  1  0  0  0
 19 43  1  0  0  0
 20 22  1  0  0  0
 20 32  1  0  0  0
 20 44  1  0  0  0
 21 32  1  0  0  0
 21 45  1  0  0  0
 22 46  1  0  0  0
 22 47  1  0  0  0
 23 48  1  0  0  0
 24 25  3  0  0  0
 25 49  1  0  0  0
 32 50  1  0  0  0
 33 51  1  0  0  0
 52 56  1  0  0  0
 52 57  1  0  0  0
 52 59  1  0  0  0
 52 60  1  0  0  0
 53 54  1  0  0  0
 53 56  1  0  0  0
 53 57  1  0  0  0
 53 61  1  0  0  0
 54 55  1  0  0  0
 54 62  1  0  0  0
 54 63  1  0  0  0
 55 58  1  0  0  0
 55 64  1  0  0  0
 55 65  1  0  0  0
 56 66  1  0  0  0
 56 67  1  0  0  0
 57 68  1  0  0  0
 57 69  1  0  0  0
 58 70  1  0  0  0
 58 71  1  0  0  0
M  CHG  1  52   1
M  END
> <s_m_entry_id>
20

> <s_m_entry_name>
000000020.1

> <s_m_Source_Path>
/Users/zaksoul/Documents/2

> <s_m_Source_File>
000000020.mol2

> <i_m_Source_File_Index>
1

$$$$
No_0_21
                    3D
 Schrodinger Suite 2022-4.
 71 77  0  0  1  0            999 V2000
   -5.3360    3.1480  -22.1720 C   0  0  0  0  0  0
   -5.5980    3.2810  -23.5150 C   0  0  0  0  0  0
   -4.0900    2.9690  -21.8130 C   0  0  0  0  0  0
   -3.1850    3.0720  -23.9740 C   0  0  0  0  0  0
   -3.0260    2.8810  -22.5460 C   0  0  0  0  0  0
   -4.5390    3.2500  -24.5150 C   0  0  0  0  0  0
   -3.7640    3.2420  -26.7060 C   0  0  0  0  0  0
    5.9370    3.1650  -21.3410 C   0  0  0  0  0  0
    5.8170    3.2210  -23.8940 C   0  0  0  0  0  0
   -4.7830    3.3230  -25.8550 C   0  0  0  0  0  0
    2.0100    3.5760  -23.9600 C   0  0  0  0  0  0
    1.1310    4.6500  -23.7030 C   0  0  0  0  0  0
    2.8600    5.9560  -23.0460 C   0  0  0  0  0  0
    3.3950    3.8470  -23.6410 C   0  0  0  0  0  0
    1.5270    2.4120  -24.5900 C   0  0  0  0  0  0
   -0.6400    3.1200  -24.5230 C   0  0  0  0  0  0
   -0.1810    4.3830  -23.9580 C   0  0  0  0  0  0
   -2.0880    3.0410  -24.8890 C   0  0  0  0  0  0
    4.1230    1.3930  -23.2660 C   0  0  0  0  0  0
    5.0620    1.1210  -22.1010 C   0  0  2  0  0  0
    6.5810    2.7230  -22.6730 C   0  0  2  0  0  0
    4.9830    2.1560  -20.9660 C   0  0  0  0  0  0
   -2.4070    3.1400  -26.3240 C   0  0  0  0  0  0
   -1.6690    2.5550  -21.9230 C   0  0  0  0  0  0
   -0.6270    2.2760  -21.3980 C   0  0  0  0  0  0
   -1.0780    5.3950  -23.6540 F   0  0  0  0  0  0
   -3.8810    2.7800  -20.4230 F   0  0  0  0  0  0
    1.5440    5.8480  -23.2040 N   0  0  0  0  0  0
    3.8060    5.0330  -23.2280 N   0  0  0  0  0  0
    0.2300    2.2470  -24.9030 N   0  0  0  0  0  0
    4.3670    2.8420  -23.7780 N   0  0  0  0  0  0
    6.4680    1.2440  -22.5740 N   0  0  1  0  0  0
   -3.9240    3.2040  -28.0970 O   0  0  0  0  0  0
   -6.1471    3.1932  -21.4543 H   0  0  0  0  0  0
   -6.6178    3.4145  -23.8573 H   0  0  0  0  0  0
    5.4181    4.1241  -21.4854 H   0  0  0  0  0  0
    6.7140    3.2397  -20.5660 H   0  0  0  0  0  0
    6.2417    2.7680  -24.8020 H   0  0  0  0  0  0
    5.9048    4.3155  -23.9606 H   0  0  0  0  0  0
   -5.7981    3.4454  -26.2151 H   0  0  0  0  0  0
    2.2096    1.6079  -24.8400 H   0  0  0  0  0  0
    3.0812    1.2951  -22.9268 H   0  0  0  0  0  0
    4.3289    0.6784  -24.0765 H   0  0  0  0  0  0
    4.8854    0.1111  -21.7025 H   0  0  0  0  0  0
    7.6358    3.0319  -22.7184 H   0  0  0  0  0  0
    3.9754    2.5968  -20.9458 H   0  0  0  0  0  0
    5.2988    1.6868  -20.0225 H   0  0  0  0  0  0
   -1.6300    3.1350  -27.0799 H   0  0  0  0  0  0
    0.2901    2.0300  -20.9359 H   0  0  0  0  0  0
    7.1329    0.8014  -21.8471 H   0  0  0  0  0  0
   -3.0718    3.1456  -28.5127 H   0  0  0  0  0  0
    5.5220    9.5950  -23.0440 F   0  0  0  0  0  0
    7.6780   10.0250  -20.9330 N   0  3  0  0  0  0
    5.8790    9.3830  -21.7170 C   0  0  0  0  0  0
    4.7650    8.6720  -20.9210 C   0  0  0  0  0  0
    4.3930    7.2830  -21.4830 C   0  0  0  0  0  0
    6.3440   10.6960  -21.0410 C   0  0  0  0  0  0
    7.2810    8.7380  -21.5880 C   0  0  0  0  0  0
    3.3470    7.3360  -22.6160 C   0  0  0  0  0  0
    7.8722    9.8459  -19.9602 H   0  0  0  0  0  0
    8.3311   10.5051  -21.5321 H   0  0  0  0  0  0
    3.8683    9.3088  -20.8990 H   0  0  0  0  0  0
    5.0751    8.5690  -19.8707 H   0  0  0  0  0  0
    4.0159    6.6479  -20.6679 H   0  0  0  0  0  0
    5.3015    6.7817  -21.8482 H   0  0  0  0  0  0
    6.4310   11.4496  -21.8376 H   0  0  0  0  0  0
    5.9089   10.7050  -20.0308 H   0  0  0  0  0  0
    7.2120    7.9830  -20.7910 H   0  0  0  0  0  0
    7.7268    8.7420  -22.5936 H   0  0  0  0  0  0
    3.7741    7.8592  -23.4843 H   0  0  0  0  0  0
    2.4876    7.9413  -22.2918 H   0  0  0  0  0  0
  1  2  2  0  0  0
  1  3  1  0  0  0
  1 34  1  0  0  0
  2  6  1  0  0  0
  2 35  1  0  0  0
  3  5  2  0  0  0
  3 27  1  0  0  0
  4  5  1  0  0  0
  4  6  2  0  0  0
  4 18  1  0  0  0
  5 24  1  0  0  0
  6 10  1  0  0  0
  7 10  2  0  0  0
  7 23  1  0  0  0
  7 33  1  0  0  0
  8 21  1  0  0  0
  8 22  1  0  0  0
  8 36  1  0  0  0
  8 37  1  0  0  0
  9 21  1  0  0  0
  9 31  1  0  0  0
  9 38  1  0  0  0
  9 39  1  0  0  0
 10 40  1  0  0  0
 11 12  1  0  0  0
 11 14  2  0  0  0
 11 15  1  0  0  0
 12 17  1  0  0  0
 12 28  2  0  0  0
 13 28  1  0  0  0
 13 29  2  0  0  0
 13 59  1  0  0  0
 14 29  1  0  0  0
 14 31  1  0  0  0
 15 30  2  0  0  0
 15 41  1  0  0  0
 16 17  2  0  0  0
 16 18  1  0  0  0
 16 30  1  0  0  0
 17 26  1  0  0  0
 18 23  2  0  0  0
 19 20  1  0  0  0
 19 31  1  0  0  0
 19 42  1  0  0  0
 19 43  1  0  0  0
 20 22  1  0  0  0
 20 32  1  0  0  0
 20 44  1  0  0  0
 21 32  1  0  0  0
 21 45  1  0  0  0
 22 46  1  0  0  0
 22 47  1  0  0  0
 23 48  1  0  0  0
 24 25  3  0  0  0
 25 49  1  0  0  0
 32 50  1  0  0  0
 33 51  1  0  0  0
 52 54  1  0  0  0
 53 57  1  0  0  0
 53 58  1  0  0  0
 53 60  1  0  0  0
 53 61  1  0  0  0
 54 55  1  0  0  0
 54 57  1  0  0  0
 54 58  1  0  0  0
 55 56  1  0  0  0
 55 62  1  0  0  0
 55 63  1  0  0  0
 56 59  1  0  0  0
 56 64  1  0  0  0
 56 65  1  0  0  0
 57 66  1  0  0  0
 57 67  1  0  0  0
 58 68  1  0  0  0
 58 69  1  0  0  0
 59 70  1  0  0  0
 59 71  1  0  0  0
M  CHG  1  53   1
M  END
> <s_m_entry_id>
21

> <s_m_entry_name>
000000021.1

> <s_m_Source_Path>
/Users/zaksoul/Documents/2

> <s_m_Source_File>
000000021.mol2

> <i_m_Source_File_Index>
1

$$$$
No_0_22
                    3D
 Schrodinger Suite 2022-4.
 71 77  0  0  1  0            999 V2000
   -5.3210    3.2450  -22.0620 C   0  0  0  0  0  0
   -5.5650    3.4290  -23.4020 C   0  0  0  0  0  0
   -4.0820    3.0320  -21.6950 C   0  0  0  0  0  0
   -3.1510    3.1950  -23.8420 C   0  0  0  0  0  0
   -3.0120    2.9520  -22.4190 C   0  0  0  0  0  0
   -4.4950    3.4140  -24.3900 C   0  0  0  0  0  0
   -3.6950    3.4680  -26.5720 C   0  0  0  0  0  0
    5.9410    3.0420  -21.1050 C   0  0  0  0  0  0
    5.8510    3.1870  -23.6570 C   0  0  0  0  0  0
   -4.7220    3.5370  -25.7300 C   0  0  0  0  0  0
    2.0510    3.6090  -23.7520 C   0  0  0  0  0  0
    1.1880    4.6880  -23.4680 C   0  0  0  0  0  0
    2.9300    5.9410  -22.7470 C   0  0  0  0  0  0
    3.4370    3.8450  -23.4090 C   0  0  0  0  0  0
    1.5560    2.4760  -24.4270 C   0  0  0  0  0  0
   -0.5990    3.2180  -24.3590 C   0  0  0  0  0  0
   -0.1260    4.4530  -23.7470 C   0  0  0  0  0  0
   -2.0430    3.1770  -24.7440 C   0  0  0  0  0  0
    4.1200    1.3680  -23.1100 C   0  0  0  0  0  0
    5.0410    1.0400  -21.9450 C   0  0  2  0  0  0
    6.5920    2.6340  -22.4450 C   0  0  2  0  0  0
    4.9650    2.0370  -20.7760 C   0  0  0  0  0  0
   -2.3440    3.3290  -26.1780 C   0  0  0  0  0  0
   -1.6670    2.5810  -21.7930 C   0  0  0  0  0  0
   -0.6360    2.2670  -21.2660 C   0  0  0  0  0  0
   -1.0090    5.4690  -23.4170 F   0  0  0  0  0  0
   -3.8930    2.7930  -20.3100 F   0  0  0  0  0  0
    1.6140    5.8610  -22.9230 N   0  0  0  0  0  0
    3.8630    5.0100  -22.9510 N   0  0  0  0  0  0
    0.2600    2.3440  -24.7600 N   0  0  0  0  0  0
    4.3940    2.8290  -23.5690 N   0  0  0  0  0  0
    6.4540    1.1550  -22.3980 N   0  0  1  0  0  0
   -3.8390    3.4810  -27.9650 O   0  0  0  0  0  0
   -6.1389    3.2791  -21.3515 H   0  0  0  0  0  0
   -6.5784    3.5905  -23.7512 H   0  0  0  0  0  0
    5.4394    4.0139  -21.2221 H   0  0  0  0  0  0
    6.7103    3.0763  -20.3195 H   0  0  0  0  0  0
    6.2793    2.7587  -24.5752 H   0  0  0  0  0  0
    5.9579    4.2815  -23.6842 H   0  0  0  0  0  0
   -5.7304    3.6895  -26.0972 H   0  0  0  0  0  0
    2.2284    1.6701  -24.6980 H   0  0  0  0  0  0
    3.0725    1.2762  -22.7871 H   0  0  0  0  0  0
    4.3229    0.6786  -23.9428 H   0  0  0  0  0  0
    4.8423    0.0202  -21.5839 H   0  0  0  0  0  0
    7.6519    2.9275  -22.4682 H   0  0  0  0  0  0
    3.9648    2.4942  -20.7528 H   0  0  0  0  0  0
    5.2628    1.5302  -19.8462 H   0  0  0  0  0  0
   -1.5582    3.3380  -26.9247 H   0  0  0  0  0  0
    0.2716    1.9898  -20.8027 H   0  0  0  0  0  0
    7.1032    0.6770  -21.6793 H   0  0  0  0  0  0
   -2.9829    3.4226  -28.3727 H   0  0  0  0  0  0
    4.9720    9.9490  -23.0510 F   0  0  0  0  0  0
    7.8020   10.4090  -22.0170 N   0  3  0  0  0  0
    5.9070    9.5910  -22.0870 C   0  0  0  0  0  0
    5.3410    8.5710  -21.0770 C   0  0  0  0  0  0
    4.8800    7.2490  -21.7260 C   0  0  0  0  0  0
    6.5100   10.8390  -21.3950 C   0  0  0  0  0  0
    7.2680    9.1970  -22.7140 C   0  0  0  0  0  0
    3.4350    7.2970  -22.2640 C   0  0  0  0  0  0
    8.4302   10.1119  -21.2868 H   0  0  0  0  0  0
    8.0680   11.0900  -22.7110 H   0  0  0  0  0  0
    4.4987    9.0242  -20.5338 H   0  0  0  0  0  0
    6.1008    8.3561  -20.3112 H   0  0  0  0  0  0
    4.9711    6.4325  -20.9945 H   0  0  0  0  0  0
    5.5659    6.9861  -22.5448 H   0  0  0  0  0  0
    6.1609   11.7164  -21.9592 H   0  0  0  0  0  0
    6.5800   10.6041  -20.3226 H   0  0  0  0  0  0
    7.6340    8.3219  -22.1570 H   0  0  0  0  0  0
    7.2090    9.4450  -23.7841 H   0  0  0  0  0  0
    3.3750    8.0237  -23.0876 H   0  0  0  0  0  0
    2.7649    7.6771  -21.4788 H   0  0  0  0  0  0
  1  2  2  0  0  0
  1  3  1  0  0  0
  1 34  1  0  0  0
  2  6  1  0  0  0
  2 35  1  0  0  0
  3  5  2  0  0  0
  3 27  1  0  0  0
  4  5  1  0  0  0
  4  6  2  0  0  0
  4 18  1  0  0  0
  5 24  1  0  0  0
  6 10  1  0  0  0
  7 10  2  0  0  0
  7 23  1  0  0  0
  7 33  1  0  0  0
  8 21  1  0  0  0
  8 22  1  0  0  0
  8 36  1  0  0  0
  8 37  1  0  0  0
  9 21  1  0  0  0
  9 31  1  0  0  0
  9 38  1  0  0  0
  9 39  1  0  0  0
 10 40  1  0  0  0
 11 12  1  0  0  0
 11 14  2  0  0  0
 11 15  1  0  0  0
 12 17  1  0  0  0
 12 28  2  0  0  0
 13 28  1  0  0  0
 13 29  2  0  0  0
 13 59  1  0  0  0
 14 29  1  0  0  0
 14 31  1  0  0  0
 15 30  2  0  0  0
 15 41  1  0  0  0
 16 17  2  0  0  0
 16 18  1  0  0  0
 16 30  1  0  0  0
 17 26  1  0  0  0
 18 23  2  0  0  0
 19 20  1  0  0  0
 19 31  1  0  0  0
 19 42  1  0  0  0
 19 43  1  0  0  0
 20 22  1  0  0  0
 20 32  1  0  0  0
 20 44  1  0  0  0
 21 32  1  0  0  0
 21 45  1  0  0  0
 22 46  1  0  0  0
 22 47  1  0  0  0
 23 48  1  0  0  0
 24 25  3  0  0  0
 25 49  1  0  0  0
 32 50  1  0  0  0
 33 51  1  0  0  0
 52 54  1  0  0  0
 53 57  1  0  0  0
 53 58  1  0  0  0
 53 60  1  0  0  0
 53 61  1  0  0  0
 54 55  1  0  0  0
 54 57  1  0  0  0
 54 58  1  0  0  0
 55 56  1  0  0  0
 55 62  1  0  0  0
 55 63  1  0  0  0
 56 59  1  0  0  0
 56 64  1  0  0  0
 56 65  1  0  0  0
 57 66  1  0  0  0
 57 67  1  0  0  0
 58 68  1  0  0  0
 58 69  1  0  0  0
 59 70  1  0  0  0
 59 71  1  0  0  0
M  CHG  1  53   1
M  END
> <s_m_entry_id>
22

> <s_m_entry_name>
000000022.1

> <s_m_Source_Path>
/Users/zaksoul/Documents/2

> <s_m_Source_File>
000000022.mol2

> <i_m_Source_File_Index>
1

$$$$
No_0_23
                    3D
 Schrodinger Suite 2022-4.
 71 77  0  0  1  0            999 V2000
   -5.5460    3.2770  -22.3670 C   0  0  0  0  0  0
   -5.7640    3.4640  -23.7110 C   0  0  0  0  0  0
   -4.3190    3.0400  -21.9790 C   0  0  0  0  0  0
   -3.3470    3.1810  -24.1090 C   0  0  0  0  0  0
   -3.2370    2.9370  -22.6830 C   0  0  0  0  0  0
   -4.6770    3.4260  -24.6810 C   0  0  0  0  0  0
   -3.8380    3.4600  -26.8480 C   0  0  0  0  0  0
    5.6910    2.8490  -21.2140 C   0  0  0  0  0  0
    5.6480    2.9920  -23.7670 C   0  0  0  0  0  0
   -4.8780    3.5510  -26.0250 C   0  0  0  0  0  0
    1.8600    3.4900  -23.9290 C   0  0  0  0  0  0
    1.0130    4.5870  -23.6610 C   0  0  0  0  0  0
    2.7680    5.8060  -22.9120 C   0  0  0  0  0  0
    3.2450    3.6990  -23.5630 C   0  0  0  0  0  0
    1.3540    2.3670  -24.6120 C   0  0  0  0  0  0
   -0.7860    3.1520  -24.5820 C   0  0  0  0  0  0
   -0.2990    4.3780  -23.9630 C   0  0  0  0  0  0
   -2.2250    3.1390  -24.9920 C   0  0  0  0  0  0
    3.8720    1.2090  -23.2490 C   0  0  0  0  0  0
    4.7650    0.8650  -22.0680 C   0  0  2  0  0  0
    6.3570    2.4270  -22.5420 C   0  0  2  0  0  0
    4.6890    1.8640  -20.9020 C   0  0  0  0  0  0
   -2.4970    3.2950  -26.4310 C   0  0  0  0  0  0
   -1.9120    2.5410  -22.0340 C   0  0  0  0  0  0
   -0.8970    2.2060  -21.4890 C   0  0  0  0  0  0
   -1.1670    5.4110  -23.6500 F   0  0  0  0  0  0
   -4.1580    2.7990  -20.5900 F   0  0  0  0  0  0
    1.4540    5.7520  -23.1110 N   0  0  0  0  0  0
    3.6850    4.8560  -23.0980 N   0  0  0  0  0  0
    0.0620    2.2600  -24.9670 N   0  0  0  0  0  0
    4.1830    2.6640  -23.7050 N   0  0  0  0  0  0
    6.1890    0.9510  -22.4960 N   0  0  1  0  0  0
   -3.9580    3.4740  -28.2440 O   0  0  0  0  0  0
   -6.3759    3.3292  -21.6716 H   0  0  0  0  0  0
   -6.7674    3.6458  -24.0786 H   0  0  0  0  0  0
    5.2117    3.8309  -21.3411 H   0  0  0  0  0  0
    6.4472    2.8692  -20.4154 H   0  0  0  0  0  0
    6.0839    2.5541  -24.6771 H   0  0  0  0  0  0
    5.7782    4.0839  -23.7942 H   0  0  0  0  0  0
   -5.8767    3.7236  -26.4094 H   0  0  0  0  0  0
    2.0146    1.5468  -24.8690 H   0  0  0  0  0  0
    2.8174    1.1384  -22.9442 H   0  0  0  0  0  0
    4.0749    0.5146  -24.0776 H   0  0  0  0  0  0
    4.5411   -0.1504  -21.7090 H   0  0  0  0  0  0
    7.4229    2.6985  -22.5481 H   0  0  0  0  0  0
    3.6986    2.3426  -20.8959 H   0  0  0  0  0  0
    4.9603    1.3537  -19.9661 H   0  0  0  0  0  0
   -1.6991    3.2870  -27.1647 H   0  0  0  0  0  0
   -0.0030    1.9120  -21.0100 H   0  0  0  0  0  0
    6.8158    0.4611  -21.7655 H   0  0  0  0  0  0
   -3.0963    3.3978  -28.6367 H   0  0  0  0  0  0
    4.4790    9.9620  -23.2640 F   0  0  0  0  0  0
    7.4360   10.5420  -22.8090 N   0  3  0  0  0  0
    5.6180    9.5980  -22.5550 C   0  0  0  0  0  0
    5.3380    8.4620  -21.5480 C   0  0  0  0  0  0
    4.8190    7.1660  -22.2060 C   0  0  0  0  0  0
    6.2870   10.8260  -21.8920 C   0  0  0  0  0  0
    6.8300    9.3530  -23.4880 C   0  0  0  0  0  0
    3.2910    7.1520  -22.4220 C   0  0  0  0  0  0
    8.2211   10.2340  -22.2569 H   0  0  0  0  0  0
    7.5100   11.2931  -23.4771 H   0  0  0  0  0  0
    4.6094    8.8088  -20.8004 H   0  0  0  0  0  0
    6.2553    8.2429  -20.9818 H   0  0  0  0  0  0
    5.1091    6.3028  -21.5889 H   0  0  0  0  0  0
    5.3260    7.0190  -23.1710 H   0  0  0  0  0  0
    5.7780   11.7180  -22.2860 H   0  0  0  0  0  0
    6.5988   10.5132  -20.8846 H   0  0  0  0  0  0
    7.3541    8.4658  -23.1029 H   0  0  0  0  0  0
    6.5290    9.6810  -24.4939 H   0  0  0  0  0  0
    3.0169    7.9352  -23.1442 H   0  0  0  0  0  0
    2.7869    7.4201  -21.4818 H   0  0  0  0  0  0
  1  2  2  0  0  0
  1  3  1  0  0  0
  1 34  1  0  0  0
  2  6  1  0  0  0
  2 35  1  0  0  0
  3  5  2  0  0  0
  3 27  1  0  0  0
  4  5  1  0  0  0
  4  6  2  0  0  0
  4 18  1  0  0  0
  5 24  1  0  0  0
  6 10  1  0  0  0
  7 10  2  0  0  0
  7 23  1  0  0  0
  7 33  1  0  0  0
  8 21  1  0  0  0
  8 22  1  0  0  0
  8 36  1  0  0  0
  8 37  1  0  0  0
  9 21  1  0  0  0
  9 31  1  0  0  0
  9 38  1  0  0  0
  9 39  1  0  0  0
 10 40  1  0  0  0
 11 12  1  0  0  0
 11 14  2  0  0  0
 11 15  1  0  0  0
 12 17  1  0  0  0
 12 28  2  0  0  0
 13 28  1  0  0  0
 13 29  2  0  0  0
 13 59  1  0  0  0
 14 29  1  0  0  0
 14 31  1  0  0  0
 15 30  2  0  0  0
 15 41  1  0  0  0
 16 17  2  0  0  0
 16 18  1  0  0  0
 16 30  1  0  0  0
 17 26  1  0  0  0
 18 23  2  0  0  0
 19 20  1  0  0  0
 19 31  1  0  0  0
 19 42  1  0  0  0
 19 43  1  0  0  0
 20 22  1  0  0  0
 20 32  1  0  0  0
 20 44  1  0  0  0
 21 32  1  0  0  0
 21 45  1  0  0  0
 22 46  1  0  0  0
 22 47  1  0  0  0
 23 48  1  0  0  0
 24 25  3  0  0  0
 25 49  1  0  0  0
 32 50  1  0  0  0
 33 51  1  0  0  0
 52 54  1  0  0  0
 53 57  1  0  0  0
 53 58  1  0  0  0
 53 60  1  0  0  0
 53 61  1  0  0  0
 54 55  1  0  0  0
 54 57  1  0  0  0
 54 58  1  0  0  0
 55 56  1  0  0  0
 55 62  1  0  0  0
 55 63  1  0  0  0
 56 59  1  0  0  0
 56 64  1  0  0  0
 56 65  1  0  0  0
 57 66  1  0  0  0
 57 67  1  0  0  0
 58 68  1  0  0  0
 58 69  1  0  0  0
 59 70  1  0  0  0
 59 71  1  0  0  0
M  CHG  1  53   1
M  END
> <s_m_entry_id>
23

> <s_m_entry_name>
000000023.1

> <s_m_Source_Path>
/Users/zaksoul/Documents/2

> <s_m_Source_File>
000000023.mol2

> <i_m_Source_File_Index>
1

$$$$
No_0_24
                    3D
 Schrodinger Suite 2022-4.
 73 78  0  0  1  0            999 V2000
   -5.1110    3.3550  -22.1370 C   0  0  0  0  0  0
   -5.3660    3.5240  -23.4770 C   0  0  0  0  0  0
   -3.8680    3.1520  -21.7780 C   0  0  0  0  0  0
   -2.9540    3.2980  -23.9330 C   0  0  0  0  0  0
   -2.8030    3.0700  -22.5080 C   0  0  0  0  0  0
   -4.3030    3.5040  -24.4730 C   0  0  0  0  0  0
   -3.5200    3.5400  -26.6610 C   0  0  0  0  0  0
    6.1590    3.2220  -21.2630 C   0  0  0  0  0  0
    6.0490    3.3410  -23.8150 C   0  0  0  0  0  0
   -4.5410    3.6130  -25.8130 C   0  0  0  0  0  0
    2.2460    3.7410  -23.8860 C   0  0  0  0  0  0
    1.3790    4.8190  -23.6060 C   0  0  0  0  0  0
    3.1200    6.0880  -22.9120 C   0  0  0  0  0  0
    3.6340    3.9880  -23.5560 C   0  0  0  0  0  0
    1.7530    2.5990  -24.5460 C   0  0  0  0  0  0
   -0.4060    3.3300  -24.4700 C   0  0  0  0  0  0
    0.0650    4.5740  -23.8730 C   0  0  0  0  0  0
   -1.8530    3.2770  -24.8430 C   0  0  0  0  0  0
    4.3320    1.5180  -23.2380 C   0  0  0  0  0  0
    5.2630    1.2070  -22.0760 C   0  0  2  0  0  0
    6.8020    2.8040  -22.6030 C   0  0  2  0  0  0
    5.1910    2.2150  -20.9170 C   0  0  0  0  0  0
   -2.1650    3.4130  -26.2770 C   0  0  0  0  0  0
   -1.4520    2.7130  -21.8890 C   0  0  0  0  0  0
   -0.4150    2.4100  -21.3670 C   0  0  0  0  0  0
   -0.8210    5.5870  -23.5470 F   0  0  0  0  0  0
   -3.6670    2.9280  -20.3910 F   0  0  0  0  0  0
    1.8030    5.9990  -23.0770 N   0  0  0  0  0  0
    4.0560    5.1600  -23.1130 N   0  0  0  0  0  0
    0.4550    2.4560  -24.8680 N   0  0  0  0  0  0
    4.5940    2.9760  -23.7140 N   0  0  0  0  0  0
    6.6730    1.3250  -22.5410 N   0  0  1  0  0  0
   -3.6750    3.5390  -28.0530 O   0  0  0  0  0  0
   -5.9242    3.3911  -21.4212 H   0  0  0  0  0  0
   -6.3828    3.6766  -23.8203 H   0  0  0  0  0  0
    5.6513    4.1900  -21.3861 H   0  0  0  0  0  0
    6.9336    3.2685  -20.4834 H   0  0  0  0  0  0
    6.4728    2.9061  -24.7322 H   0  0  0  0  0  0
    6.1500    4.4356  -23.8544 H   0  0  0  0  0  0
   -5.5534    3.7555  -26.1732 H   0  0  0  0  0  0
    2.4271    1.7935  -24.8138 H   0  0  0  0  0  0
    3.2876    1.4231  -22.9060 H   0  0  0  0  0  0
    4.5319    0.8205  -24.0647 H   0  0  0  0  0  0
    5.0732    0.1895  -21.7035 H   0  0  0  0  0  0
    7.8601    3.1026  -22.6383 H   0  0  0  0  0  0
    4.1886    2.6672  -20.8897 H   0  0  0  0  0  0
    5.4988    1.7194  -19.9844 H   0  0  0  0  0  0
   -1.3851    3.4180  -27.0298 H   0  0  0  0  0  0
    0.4974    2.1419  -20.9078 H   0  0  0  0  0  0
    7.3297    0.8576  -21.8222 H   0  0  0  0  0  0
   -2.8222    3.4806  -28.4675 H   0  0  0  0  0  0
    8.7830    8.5730  -20.8060 N   0  3  0  0  0  0
    7.4000    8.4800  -20.2240 C   0  0  0  0  0  0
    4.9170    8.7970  -20.7130 C   0  0  0  0  0  0
    4.3020    7.4270  -21.0620 C   0  0  0  0  0  0
    6.3540    8.9420  -21.2570 C   0  0  0  0  0  0
    9.8880    8.3180  -19.8210 C   0  0  0  0  0  0
    3.6210    7.4510  -22.4460 C   0  0  0  0  0  0
    8.9099    9.4825  -21.2218 H   0  0  0  0  0  0
    8.8660    7.9279  -21.5761 H   0  0  0  0  0  0
    7.3360    9.1154  -19.3284 H   0  0  0  0  0  0
    7.1940    7.4388  -19.9350 H   0  0  0  0  0  0
    4.9240    8.9269  -19.6207 H   0  0  0  0  0  0
    4.2859    9.5971  -21.1271 H   0  0  0  0  0  0
    3.5626    7.1512  -20.2957 H   0  0  0  0  0  0
    5.0897    6.6593  -21.0550 H   0  0  0  0  0  0
    6.4600    8.3470  -22.1761 H   0  0  0  0  0  0
    6.5410    9.9931  -21.5220 H   0  0  0  0  0  0
   10.8598    8.4060  -20.3289 H   0  0  0  0  0  0
    9.8320    9.0553  -19.0066 H   0  0  0  0  0  0
    9.7820    7.3048  -19.4059 H   0  0  0  0  0  0
    4.3219    7.8559  -23.1909 H   0  0  0  0  0  0
    2.7815    8.1616  -22.4270 H   0  0  0  0  0  0
  1  2  2  0  0  0
  1  3  1  0  0  0
  1 34  1  0  0  0
  2  6  1  0  0  0
  2 35  1  0  0  0
  3  5  2  0  0  0
  3 27  1  0  0  0
  4  5  1  0  0  0
  4  6  2  0  0  0
  4 18  1  0  0  0
  5 24  1  0  0  0
  6 10  1  0  0  0
  7 10  2  0  0  0
  7 23  1  0  0  0
  7 33  1  0  0  0
  8 21  1  0  0  0
  8 22  1  0  0  0
  8 36  1  0  0  0
  8 37  1  0  0  0
  9 21  1  0  0  0
  9 31  1  0  0  0
  9 38  1  0  0  0
  9 39  1  0  0  0
 10 40  1  0  0  0
 11 12  1  0  0  0
 11 14  2  0  0  0
 11 15  1  0  0  0
 12 17  1  0  0  0
 12 28  2  0  0  0
 13 28  1  0  0  0
 13 29  2  0  0  0
 13 58  1  0  0  0
 14 29  1  0  0  0
 14 31  1  0  0  0
 15 30  2  0  0  0
 15 41  1  0  0  0
 16 17  2  0  0  0
 16 18  1  0  0  0
 16 30  1  0  0  0
 17 26  1  0  0  0
 18 23  2  0  0  0
 19 20  1  0  0  0
 19 31  1  0  0  0
 19 42  1  0  0  0
 19 43  1  0  0  0
 20 22  1  0  0  0
 20 32  1  0  0  0
 20 44  1  0  0  0
 21 32  1  0  0  0
 21 45  1  0  0  0
 22 46  1  0  0  0
 22 47  1  0  0  0
 23 48  1  0  0  0
 24 25  3  0  0  0
 25 49  1  0  0  0
 32 50  1  0  0  0
 33 51  1  0  0  0
 52 53  1  0  0  0
 52 57  1  0  0  0
 52 59  1  0  0  0
 52 60  1  0  0  0
 53 56  1  0  0  0
 53 61  1  0  0  0
 53 62  1  0  0  0
 54 55  1  0  0  0
 54 56  1  0  0  0
 54 63  1  0  0  0
 54 64  1  0  0  0
 55 58  1  0  0  0
 55 65  1  0  0  0
 55 66  1  0  0  0
 56 67  1  0  0  0
 56 68  1  0  0  0
 57 69  1  0  0  0
 57 70  1  0  0  0
 57 71  1  0  0  0
 58 72  1  0  0  0
 58 73  1  0  0  0
M  CHG  1  52   1
M  END
> <s_m_entry_id>
24

> <s_m_entry_name>
000000024.1

> <s_m_Source_Path>
/Users/zaksoul/Documents/2

> <s_m_Source_File>
000000024.mol2

> <i_m_Source_File_Index>
1

$$$$
No_0_25
                    3D
 Schrodinger Suite 2022-4.
 73 78  0  0  1  0            999 V2000
   -5.3080    3.4540  -22.2780 C   0  0  0  0  0  0
   -5.5300    3.6150  -23.6250 C   0  0  0  0  0  0
   -4.0760    3.2390  -21.8890 C   0  0  0  0  0  0
   -3.1110    3.3570  -24.0240 C   0  0  0  0  0  0
   -2.9950    3.1380  -22.5950 C   0  0  0  0  0  0
   -4.4450    3.5750  -24.5960 C   0  0  0  0  0  0
   -3.6120    3.5850  -26.7660 C   0  0  0  0  0  0
    5.9370    3.1920  -21.1460 C   0  0  0  0  0  0
    5.8860    3.2920  -23.7010 C   0  0  0  0  0  0
   -4.6510    3.6760  -25.9420 C   0  0  0  0  0  0
    2.0920    3.7380  -23.8620 C   0  0  0  0  0  0
    1.2310    4.8280  -23.6100 C   0  0  0  0  0  0
    2.9720    6.0820  -22.8850 C   0  0  0  0  0  0
    3.4740    3.9710  -23.5020 C   0  0  0  0  0  0
    1.5990    2.5960  -24.5240 C   0  0  0  0  0  0
   -0.5510    3.3540  -24.5030 C   0  0  0  0  0  0
   -0.0790    4.5960  -23.9050 C   0  0  0  0  0  0
   -1.9900    3.3150  -24.9090 C   0  0  0  0  0  0
    4.1350    1.4950  -23.1490 C   0  0  0  0  0  0
    5.0360    1.1810  -21.9640 C   0  0  2  0  0  0
    6.6060    2.7560  -22.4680 C   0  0  2  0  0  0
    4.9490    2.1990  -20.8140 C   0  0  0  0  0  0
   -2.2680    3.4450  -26.3500 C   0  0  0  0  0  0
   -1.6630    2.7700  -21.9420 C   0  0  0  0  0  0
   -0.6420    2.4580  -21.3940 C   0  0  0  0  0  0
   -0.9600    5.6230  -23.6070 F   0  0  0  0  0  0
   -3.9090    3.0230  -20.4970 F   0  0  0  0  0  0
    1.6580    6.0070  -23.0800 N   0  0  0  0  0  0
    3.9010    5.1400  -23.0580 N   0  0  0  0  0  0
    0.3080    2.4670  -24.8740 N   0  0  0  0  0  0
    4.4260    2.9450  -23.6290 N   0  0  0  0  0  0
    6.4560    1.2790  -22.3970 N   0  0  1  0  0  0
   -3.7350    3.5740  -28.1610 O   0  0  0  0  0  0
   -6.1366    3.5062  -21.5810 H   0  0  0  0  0  0
   -6.5368    3.7776  -23.9924 H   0  0  0  0  0  0
    5.4444    4.1652  -21.2883 H   0  0  0  0  0  0
    6.6938    3.2344  -20.3488 H   0  0  0  0  0  0
    6.3261    2.8448  -24.6045 H   0  0  0  0  0  0
    6.0021    4.3850  -23.7454 H   0  0  0  0  0  0
   -5.6530    3.8286  -26.3265 H   0  0  0  0  0  0
    2.2697    1.7807  -24.7700 H   0  0  0  0  0  0
    3.0823    1.4153  -22.8401 H   0  0  0  0  0  0
    4.3451    0.7891  -23.9660 H   0  0  0  0  0  0
    4.8250    0.1693  -21.5874 H   0  0  0  0  0  0
    7.6682    3.0417  -22.4801 H   0  0  0  0  0  0
    3.9522    2.6641  -20.8140 H   0  0  0  0  0  0
    5.2297    1.7073  -19.8709 H   0  0  0  0  0  0
   -1.4711    3.4340  -27.0847 H   0  0  0  0  0  0
    0.2563    2.1829  -20.9118 H   0  0  0  0  0  0
    7.0911    0.8096  -21.6603 H   0  0  0  0  0  0
   -2.8734    3.5028  -28.5547 H   0  0  0  0  0  0
    8.7580    8.6920  -21.3400 N   0  3  0  0  0  0
    7.4570    8.5210  -20.6060 C   0  0  0  0  0  0
    4.9240    8.7630  -20.7870 C   0  0  0  0  0  0
    4.3180    7.3860  -21.1250 C   0  0  0  0  0  0
    6.2820    8.9860  -21.4870 C   0  0  0  0  0  0
    9.9790    8.4380  -20.5030 C   0  0  0  0  0  0
    3.4780    7.4420  -22.4180 C   0  0  0  0  0  0
    8.8050    9.6223  -21.7251 H   0  0  0  0  0  0
    8.7710    8.0829  -22.1431 H   0  0  0  0  0  0
    7.4780    9.1148  -19.6803 H   0  0  0  0  0  0
    7.3210    7.4616  -20.3429 H   0  0  0  0  0  0
    5.0560    8.8470  -19.6982 H   0  0  0  0  0  0
    4.2226    9.5554  -21.0872 H   0  0  0  0  0  0
    3.6841    7.0501  -20.2911 H   0  0  0  0  0  0
    5.1258    6.6492  -21.2460 H   0  0  0  0  0  0
    6.2980    8.4343  -22.4385 H   0  0  0  0  0  0
    6.4010   10.0538  -21.7230 H   0  0  0  0  0  0
   10.8812    8.5840  -21.1151 H   0  0  0  0  0  0
    9.9950    9.1382  -19.6548 H   0  0  0  0  0  0
    9.9570    7.4052  -20.1251 H   0  0  0  0  0  0
    4.0726    7.9047  -23.2195 H   0  0  0  0  0  0
    2.6231    8.1179  -22.2690 H   0  0  0  0  0  0
  1  2  2  0  0  0
  1  3  1  0  0  0
  1 34  1  0  0  0
  2  6  1  0  0  0
  2 35  1  0  0  0
  3  5  2  0  0  0
  3 27  1  0  0  0
  4  5  1  0  0  0
  4  6  2  0  0  0
  4 18  1  0  0  0
  5 24  1  0  0  0
  6 10  1  0  0  0
  7 10  2  0  0  0
  7 23  1  0  0  0
  7 33  1  0  0  0
  8 21  1  0  0  0
  8 22  1  0  0  0
  8 36  1  0  0  0
  8 37  1  0  0  0
  9 21  1  0  0  0
  9 31  1  0  0  0
  9 38  1  0  0  0
  9 39  1  0  0  0
 10 40  1  0  0  0
 11 12  1  0  0  0
 11 14  2  0  0  0
 11 15  1  0  0  0
 12 17  1  0  0  0
 12 28  2  0  0  0
 13 28  1  0  0  0
 13 29  2  0  0  0
 13 58  1  0  0  0
 14 29  1  0  0  0
 14 31  1  0  0  0
 15 30  2  0  0  0
 15 41  1  0  0  0
 16 17  2  0  0  0
 16 18  1  0  0  0
 16 30  1  0  0  0
 17 26  1  0  0  0
 18 23  2  0  0  0
 19 20  1  0  0  0
 19 31  1  0  0  0
 19 42  1  0  0  0
 19 43  1  0  0  0
 20 22  1  0  0  0
 20 32  1  0  0  0
 20 44  1  0  0  0
 21 32  1  0  0  0
 21 45  1  0  0  0
 22 46  1  0  0  0
 22 47  1  0  0  0
 23 48  1  0  0  0
 24 25  3  0  0  0
 25 49  1  0  0  0
 32 50  1  0  0  0
 33 51  1  0  0  0
 52 53  1  0  0  0
 52 57  1  0  0  0
 52 59  1  0  0  0
 52 60  1  0  0  0
 53 56  1  0  0  0
 53 61  1  0  0  0
 53 62  1  0  0  0
 54 55  1  0  0  0
 54 56  1  0  0  0
 54 63  1  0  0  0
 54 64  1  0  0  0
 55 58  1  0  0  0
 55 65  1  0  0  0
 55 66  1  0  0  0
 56 67  1  0  0  0
 56 68  1  0  0  0
 57 69  1  0  0  0
 57 70  1  0  0  0
 57 71  1  0  0  0
 58 72  1  0  0  0
 58 73  1  0  0  0
M  CHG  1  52   1
M  END
> <s_m_entry_id>
25

> <s_m_entry_name>
000000025.1

> <s_m_Source_Path>
/Users/zaksoul/Documents/2

> <s_m_Source_File>
000000025.mol2

> <i_m_Source_File_Index>
1

$$$$
No_0_26
                    3D
 Schrodinger Suite 2022-4.
 73 78  0  0  1  0            999 V2000
   -5.3020    3.3280  -22.1810 C   0  0  0  0  0  0
   -5.5380    3.4850  -23.5260 C   0  0  0  0  0  0
   -4.0670    3.1150  -21.8040 C   0  0  0  0  0  0
   -3.1230    3.2260  -23.9490 C   0  0  0  0  0  0
   -2.9930    3.0120  -22.5200 C   0  0  0  0  0  0
   -4.4630    3.4420  -24.5090 C   0  0  0  0  0  0
   -3.6530    3.4440  -26.6870 C   0  0  0  0  0  0
    5.9530    3.0740  -21.1640 C   0  0  0  0  0  0
    5.8770    3.1660  -23.7180 C   0  0  0  0  0  0
   -4.6830    3.5380  -25.8520 C   0  0  0  0  0  0
    2.0810    3.6090  -23.8420 C   0  0  0  0  0  0
    1.2230    4.7000  -23.5850 C   0  0  0  0  0  0
    2.9700    5.9570  -22.8820 C   0  0  0  0  0  0
    3.4670    3.8440  -23.4970 C   0  0  0  0  0  0
    1.5820    2.4650  -24.4950 C   0  0  0  0  0  0
   -0.5690    3.2220  -24.4540 C   0  0  0  0  0  0
   -0.0910    4.4670  -23.8650 C   0  0  0  0  0  0
   -2.0120    3.1820  -24.8450 C   0  0  0  0  0  0
    4.1320    1.3690  -23.1420 C   0  0  0  0  0  0
    5.0450    1.0600  -21.9660 C   0  0  2  0  0  0
    6.6090    2.6340  -22.4910 C   0  0  2  0  0  0
    4.9700    2.0820  -20.8190 C   0  0  0  0  0  0
   -2.3040    3.3060  -26.2840 C   0  0  0  0  0  0
   -1.6540    2.6470  -21.8800 C   0  0  0  0  0  0
   -0.6270    2.3370  -21.3420 C   0  0  0  0  0  0
   -0.9690    5.4950  -23.5620 F   0  0  0  0  0  0
   -3.8850    2.9040  -20.4130 F   0  0  0  0  0  0
    1.6540    5.8810  -23.0630 N   0  0  0  0  0  0
    3.8970    5.0150  -23.0610 N   0  0  0  0  0  0
    0.2870    2.3350  -24.8320 N   0  0  0  0  0  0
    4.4170    2.8180  -23.6310 N   0  0  0  0  0  0
    6.4610    1.1570  -22.4140 N   0  0  1  0  0  0
   -3.7900    3.4290  -28.0810 O   0  0  0  0  0  0
   -6.1240    3.3822  -21.4764 H   0  0  0  0  0  0
   -6.5484    3.6455  -23.8842 H   0  0  0  0  0  0
    5.4594    4.0470  -21.3043 H   0  0  0  0  0  0
    6.7185    3.1194  -20.3753 H   0  0  0  0  0  0
    6.3067    2.7152  -24.6247 H   0  0  0  0  0  0
    5.9911    4.2589  -23.7685 H   0  0  0  0  0  0
   -5.6887    3.6886  -26.2274 H   0  0  0  0  0  0
    2.2504    1.6490  -24.7449 H   0  0  0  0  0  0
    3.0825    1.2903  -22.8221 H   0  0  0  0  0  0
    4.3338    0.6608  -23.9592 H   0  0  0  0  0  0
    4.8381    0.0496  -21.5835 H   0  0  0  0  0  0
    7.6710    2.9197  -22.5152 H   0  0  0  0  0  0
    3.9726    2.5459  -20.8089 H   0  0  0  0  0  0
    5.2595    1.5937  -19.8768 H   0  0  0  0  0  0
   -1.5148    3.2929  -27.0270 H   0  0  0  0  0  0
    0.2762    2.0639  -20.8679 H   0  0  0  0  0  0
    7.1035    0.6909  -21.6817 H   0  0  0  0  0  0
   -2.9322    3.3558  -28.4827 H   0  0  0  0  0  0
    8.8030    8.7880  -22.0800 N   0  3  0  0  0  0
    7.6360    8.5180  -21.1710 C   0  0  0  0  0  0
    5.0970    8.6370  -20.9600 C   0  0  0  0  0  0
    4.5080    7.2480  -21.2760 C   0  0  0  0  0  0
    6.3220    8.9610  -21.8420 C   0  0  0  0  0  0
   10.1460    8.5590  -21.4490 C   0  0  0  0  0  0
    3.4810    7.3190  -22.4260 C   0  0  0  0  0  0
    8.7500    9.7358  -22.4189 H   0  0  0  0  0  0
    8.7210    8.2172  -22.9067 H   0  0  0  0  0  0
    7.7710    9.0699  -20.2291 H   0  0  0  0  0  0
    7.5890    7.4423  -20.9461 H   0  0  0  0  0  0
    5.3880    8.6790  -19.9000 H   0  0  0  0  0  0
    4.3240    9.4050  -21.1110 H   0  0  0  0  0  0
    4.0222    6.8422  -20.3764 H   0  0  0  0  0  0
    5.3200    6.5600  -21.5540 H   0  0  0  0  0  0
    6.2180    8.4549  -22.8131 H   0  0  0  0  0  0
    6.3570   10.0430  -22.0370 H   0  0  0  0  0  0
   10.9380    8.7790  -22.1800 H   0  0  0  0  0  0
   10.2590    9.2200  -20.5770 H   0  0  0  0  0  0
   10.2260    7.5106  -21.1259 H   0  0  0  0  0  0
    3.9272    7.8473  -23.2815 H   0  0  0  0  0  0
    2.6295    7.9426  -22.1162 H   0  0  0  0  0  0
  1  2  2  0  0  0
  1  3  1  0  0  0
  1 34  1  0  0  0
  2  6  1  0  0  0
  2 35  1  0  0  0
  3  5  2  0  0  0
  3 27  1  0  0  0
  4  5  1  0  0  0
  4  6  2  0  0  0
  4 18  1  0  0  0
  5 24  1  0  0  0
  6 10  1  0  0  0
  7 10  2  0  0  0
  7 23  1  0  0  0
  7 33  1  0  0  0
  8 21  1  0  0  0
  8 22  1  0  0  0
  8 36  1  0  0  0
  8 37  1  0  0  0
  9 21  1  0  0  0
  9 31  1  0  0  0
  9 38  1  0  0  0
  9 39  1  0  0  0
 10 40  1  0  0  0
 11 12  1  0  0  0
 11 14  2  0  0  0
 11 15  1  0  0  0
 12 17  1  0  0  0
 12 28  2  0  0  0
 13 28  1  0  0  0
 13 29  2  0  0  0
 13 58  1  0  0  0
 14 29  1  0  0  0
 14 31  1  0  0  0
 15 30  2  0  0  0
 15 41  1  0  0  0
 16 17  2  0  0  0
 16 18  1  0  0  0
 16 30  1  0  0  0
 17 26  1  0  0  0
 18 23  2  0  0  0
 19 20  1  0  0  0
 19 31  1  0  0  0
 19 42  1  0  0  0
 19 43  1  0  0  0
 20 22  1  0  0  0
 20 32  1  0  0  0
 20 44  1  0  0  0
 21 32  1  0  0  0
 21 45  1  0  0  0
 22 46  1  0  0  0
 22 47  1  0  0  0
 23 48  1  0  0  0
 24 25  3  0  0  0
 25 49  1  0  0  0
 32 50  1  0  0  0
 33 51  1  0  0  0
 52 53  1  0  0  0
 52 57  1  0  0  0
 52 59  1  0  0  0
 52 60  1  0  0  0
 53 56  1  0  0  0
 53 61  1  0  0  0
 53 62  1  0  0  0
 54 55  1  0  0  0
 54 56  1  0  0  0
 54 63  1  0  0  0
 54 64  1  0  0  0
 55 58  1  0  0  0
 55 65  1  0  0  0
 55 66  1  0  0  0
 56 67  1  0  0  0
 56 68  1  0  0  0
 57 69  1  0  0  0
 57 70  1  0  0  0
 57 71  1  0  0  0
 58 72  1  0  0  0
 58 73  1  0  0  0
M  CHG  1  52   1
M  END
> <s_m_entry_id>
26

> <s_m_entry_name>
000000026.1

> <s_m_Source_Path>
/Users/zaksoul/Documents/2

> <s_m_Source_File>
000000026.mol2

> <i_m_Source_File_Index>
1

$$$$
No_0_27
                    3D
 Schrodinger Suite 2022-4.
 71 77  0  0  1  0            999 V2000
   -5.3080    3.7480  -21.8490 C   0  0  0  0  0  0
   -5.5560    3.8970  -23.1930 C   0  0  0  0  0  0
   -4.0750    3.5020  -21.4840 C   0  0  0  0  0  0
   -3.1550    3.5620  -23.6410 C   0  0  0  0  0  0
   -3.0130    3.3590  -22.2120 C   0  0  0  0  0  0
   -4.4950    3.8110  -24.1870 C   0  0  0  0  0  0
   -3.7110    3.7660  -26.3750 C   0  0  0  0  0  0
    5.9470    3.1670  -20.9630 C   0  0  0  0  0  0
    5.8420    3.2340  -23.5170 C   0  0  0  0  0  0
   -4.7280    3.8990  -25.5290 C   0  0  0  0  0  0
    2.0590    3.7890  -23.6000 C   0  0  0  0  0  0
    1.2370    4.9080  -23.3450 C   0  0  0  0  0  0
    3.0300    6.1200  -22.6780 C   0  0  0  0  0  0
    3.4560    3.9860  -23.2750 C   0  0  0  0  0  0
    1.5180    2.6540  -24.2350 C   0  0  0  0  0  0
   -0.6080    3.4750  -24.1770 C   0  0  0  0  0  0
   -0.0860    4.7120  -23.6070 C   0  0  0  0  0  0
   -2.0560    3.4740  -24.5500 C   0  0  0  0  0  0
    4.0510    1.4970  -22.9000 C   0  0  0  0  0  0
    4.9680    1.1730  -21.7310 C   0  0  2  0  0  0
    6.5720    2.6940  -22.2930 C   0  0  2  0  0  0
    4.9380    2.2090  -20.5950 C   0  0  0  0  0  0
   -2.3630    3.5910  -25.9860 C   0  0  0  0  0  0
   -1.6780    2.9610  -21.5830 C   0  0  0  0  0  0
   -0.6550    2.6260  -21.0540 C   0  0  0  0  0  0
   -0.9290    5.7690  -23.3050 F   0  0  0  0  0  0
   -3.8830    3.3010  -20.0930 F   0  0  0  0  0  0
    1.7100    6.0820  -22.8420 N   0  0  0  0  0  0
    3.9260    5.1490  -22.8570 N   0  0  0  0  0  0
    0.2160    2.5580  -24.5540 N   0  0  0  0  0  0
    4.3730    2.9310  -23.4080 N   0  0  0  0  0  0
    6.3820    1.2230  -22.1970 N   0  0  1  0  0  0
   -3.8660    3.7390  -27.7670 O   0  0  0  0  0  0
   -6.1187    3.8343  -21.1346 H   0  0  0  0  0  0
   -6.5656    4.0847  -23.5402 H   0  0  0  0  0  0
    5.4801    4.1523  -21.1082 H   0  0  0  0  0  0
    6.7230    3.1993  -20.1840 H   0  0  0  0  0  0
    6.2468    2.7605  -24.4236 H   0  0  0  0  0  0
    5.9884    4.3224  -23.5806 H   0  0  0  0  0  0
   -5.7334    4.0766  -25.8932 H   0  0  0  0  0  0
    2.1587    1.8155  -24.4830 H   0  0  0  0  0  0
    3.0035    1.4536  -22.5670 H   0  0  0  0  0  0
    4.2215    0.7737  -23.7110 H   0  0  0  0  0  0
    4.7367    0.1731  -21.3351 H   0  0  0  0  0  0
    7.6417    2.9473  -22.3334 H   0  0  0  0  0  0
    3.9554    2.7033  -20.5789 H   0  0  0  0  0  0
    5.2247    1.7224  -19.6511 H   0  0  0  0  0  0
   -1.5832    3.5468  -26.7377 H   0  0  0  0  0  0
    0.2459    2.3320  -20.5881 H   0  0  0  0  0  0
    7.0186    0.7448  -21.4673 H   0  0  0  0  0  0
   -3.0160    3.6361  -28.1786 H   0  0  0  0  0  0
    5.1650   10.3690  -21.9890 N   0  3  0  0  0  0
    6.2820   11.2140  -22.4560 C   0  0  0  0  0  0
    5.8830    9.8540  -23.1730 C   0  0  0  0  0  0
    4.0800    8.9750  -20.1970 C   0  0  0  0  0  0
    5.3650    9.6830  -20.6670 C   0  0  0  0  0  0
    3.5860    7.4710  -22.2430 C   0  0  0  0  0  0
    3.9280    7.5420  -20.7410 C   0  0  0  0  0  0
    4.2399   10.7310  -22.1600 H   0  0  0  0  0  0
    7.0647   10.8162  -21.7933 H   0  0  0  0  0  0
    5.7028   11.9003  -23.0912 H   0  0  0  0  0  0
    5.2252   10.2749  -23.9477 H   0  0  0  0  0  0
    6.5874    9.1906  -22.6497 H   0  0  0  0  0  0
    3.2049    9.5721  -20.4930 H   0  0  0  0  0  0
    4.0570    8.9520  -19.0975 H   0  0  0  0  0  0
    5.6718   10.4234  -19.9136 H   0  0  0  0  0  0
    6.1773    8.9467  -20.7560 H   0  0  0  0  0  0
    4.4850    7.7030  -22.8330 H   0  0  0  0  0  0
    2.8618    8.2612  -22.4901 H   0  0  0  0  0  0
    3.1544    7.0126  -20.1655 H   0  0  0  0  0  0
    4.8549    6.9810  -20.5510 H   0  0  0  0  0  0
  1  2  2  0  0  0
  1  3  1  0  0  0
  1 34  1  0  0  0
  2  6  1  0  0  0
  2 35  1  0  0  0
  3  5  2  0  0  0
  3 27  1  0  0  0
  4  5  1  0  0  0
  4  6  2  0  0  0
  4 18  1  0  0  0
  5 24  1  0  0  0
  6 10  1  0  0  0
  7 10  2  0  0  0
  7 23  1  0  0  0
  7 33  1  0  0  0
  8 21  1  0  0  0
  8 22  1  0  0  0
  8 36  1  0  0  0
  8 37  1  0  0  0
  9 21  1  0  0  0
  9 31  1  0  0  0
  9 38  1  0  0  0
  9 39  1  0  0  0
 10 40  1  0  0  0
 11 12  1  0  0  0
 11 14  2  0  0  0
 11 15  1  0  0  0
 12 17  1  0  0  0
 12 28  2  0  0  0
 13 28  1  0  0  0
 13 29  2  0  0  0
 13 57  1  0  0  0
 14 29  1  0  0  0
 14 31  1  0  0  0
 15 30  2  0  0  0
 15 41  1  0  0  0
 16 17  2  0  0  0
 16 18  1  0  0  0
 16 30  1  0  0  0
 17 26  1  0  0  0
 18 23  2  0  0  0
 19 20  1  0  0  0
 19 31  1  0  0  0
 19 42  1  0  0  0
 19 43  1  0  0  0
 20 22  1  0  0  0
 20 32  1  0  0  0
 20 44  1  0  0  0
 21 32  1  0  0  0
 21 45  1  0  0  0
 22 46  1  0  0  0
 22 47  1  0  0  0
 23 48  1  0  0  0
 24 25  3  0  0  0
 25 49  1  0  0  0
 32 50  1  0  0  0
 33 51  1  0  0  0
 52 53  1  0  0  0
 52 54  1  0  0  0
 52 56  1  0  0  0
 52 59  1  0  0  0
 53 54  1  0  0  0
 53 60  1  0  0  0
 53 61  1  0  0  0
 54 62  1  0  0  0
 54 63  1  0  0  0
 55 56  1  0  0  0
 55 58  1  0  0  0
 55 64  1  0  0  0
 55 65  1  0  0  0
 56 66  1  0  0  0
 56 67  1  0  0  0
 57 58  1  0  0  0
 57 68  1  0  0  0
 57 69  1  0  0  0
 58 70  1  0  0  0
 58 71  1  0  0  0
M  CHG  1  52   1
M  END
> <s_m_entry_id>
27

> <s_m_entry_name>
000000027.1

> <s_m_Source_Path>
/Users/zaksoul/Documents/2

> <s_m_Source_File>
000000027.mol2

> <i_m_Source_File_Index>
1

$$$$
No_0_28
                    3D
 Schrodinger Suite 2022-4.
 71 77  0  0  1  0            999 V2000
   -5.2920    3.4430  -22.2070 C   0  0  0  0  0  0
   -5.5350    3.6180  -23.5490 C   0  0  0  0  0  0
   -4.0540    3.2340  -21.8380 C   0  0  0  0  0  0
   -3.1200    3.3850  -23.9840 C   0  0  0  0  0  0
   -2.9820    3.1510  -22.5590 C   0  0  0  0  0  0
   -4.4640    3.5990  -24.5360 C   0  0  0  0  0  0
   -3.6620    3.6400  -26.7170 C   0  0  0  0  0  0
    5.9680    3.2630  -21.2360 C   0  0  0  0  0  0
    5.8810    3.3930  -23.7880 C   0  0  0  0  0  0
   -4.6900    3.7130  -25.8770 C   0  0  0  0  0  0
    2.0810    3.8080  -23.8910 C   0  0  0  0  0  0
    1.2150    4.8880  -23.6140 C   0  0  0  0  0  0
    2.9550    6.1480  -22.8990 C   0  0  0  0  0  0
    3.4670    4.0490  -23.5480 C   0  0  0  0  0  0
    1.5890    2.6700  -24.5600 C   0  0  0  0  0  0
   -0.5680    3.4090  -24.4990 C   0  0  0  0  0  0
   -0.0970    4.6490  -23.8930 C   0  0  0  0  0  0
   -2.0120    3.3630  -24.8850 C   0  0  0  0  0  0
    4.1530    1.5740  -23.2330 C   0  0  0  0  0  0
    5.0730    1.2550  -22.0650 C   0  0  2  0  0  0
    6.6220    2.8490  -22.5720 C   0  0  2  0  0  0
    4.9940    2.2580  -20.9020 C   0  0  0  0  0  0
   -2.3110    3.5070  -26.3210 C   0  0  0  0  0  0
   -1.6380    2.7860  -21.9300 C   0  0  0  0  0  0
   -0.6070    2.4760  -21.4000 C   0  0  0  0  0  0
   -0.9820    5.6650  -23.5710 F   0  0  0  0  0  0
   -3.8660    3.0030  -20.4510 F   0  0  0  0  0  0
    1.6400    6.0640  -23.0760 N   0  0  0  0  0  0
    3.8890    5.2170  -23.0960 N   0  0  0  0  0  0
    0.2930    2.5340  -24.8930 N   0  0  0  0  0  0
    4.4250    3.0330  -23.7010 N   0  0  0  0  0  0
    6.4860    1.3700  -22.5170 N   0  0  1  0  0  0
   -3.8040    3.6450  -28.1100 O   0  0  0  0  0  0
   -6.1117    3.4801  -21.4987 H   0  0  0  0  0  0
   -6.5482    3.7765  -23.9001 H   0  0  0  0  0  0
    5.4655    4.2336  -21.3601 H   0  0  0  0  0  0
    6.7367    3.3034  -20.4502 H   0  0  0  0  0  0
    6.3109    2.9601  -24.7033 H   0  0  0  0  0  0
    5.9870    4.4873  -23.8223 H   0  0  0  0  0  0
   -5.6986    3.8615  -26.2453 H   0  0  0  0  0  0
    2.2625    1.8630  -24.8250 H   0  0  0  0  0  0
    3.1055    1.4822  -22.9101 H   0  0  0  0  0  0
    4.3578    0.8798  -24.0614 H   0  0  0  0  0  0
    4.8763    0.2370  -21.6977 H   0  0  0  0  0  0
    7.6815    3.1436  -22.5962 H   0  0  0  0  0  0
    3.9932    2.7140  -20.8818 H   0  0  0  0  0  0
    5.2920    1.7580  -19.9686 H   0  0  0  0  0  0
   -1.5242    3.5120  -27.0666 H   0  0  0  0  0  0
    0.3005    2.2038  -20.9337 H   0  0  0  0  0  0
    7.1349    0.8975  -21.7944 H   0  0  0  0  0  0
   -2.9476    3.5856  -28.5169 H   0  0  0  0  0  0
    4.7500   10.5410  -22.1450 N   0  3  0  0  0  0
    5.6400   11.5650  -22.7280 C   0  0  0  0  0  0
    5.2270   10.2460  -23.5120 C   0  0  0  0  0  0
    4.2490    8.8440  -20.3550 C   0  0  0  0  0  0
    5.3150    9.7540  -20.9960 C   0  0  0  0  0  0
    3.4570    7.5070  -22.4240 C   0  0  0  0  0  0
    4.1240    7.4670  -21.0350 C   0  0  0  0  0  0
    3.7786   10.7981  -22.0650 H   0  0  0  0  0  0
    6.5894   11.2039  -22.3058 H   0  0  0  0  0  0
    4.8644   12.2336  -23.1298 H   0  0  0  0  0  0
    4.3705   10.6572  -24.0663 H   0  0  0  0  0  0
    6.0960    9.6280  -23.2420 H   0  0  0  0  0  0
    3.2737    9.3522  -20.3780 H   0  0  0  0  0  0
    4.4810    8.7050  -19.2888 H   0  0  0  0  0  0
    5.7090   10.4459  -20.2371 H   0  0  0  0  0  0
    6.1559    9.1401  -21.3510 H   0  0  0  0  0  0
    4.1689    7.9109  -23.1589 H   0  0  0  0  0  0
    2.6193    8.2197  -22.4060 H   0  0  0  0  0  0
    3.5602    6.7872  -20.3792 H   0  0  0  0  0  0
    5.1212    7.0109  -21.1220 H   0  0  0  0  0  0
  1  2  2  0  0  0
  1  3  1  0  0  0
  1 34  1  0  0  0
  2  6  1  0  0  0
  2 35  1  0  0  0
  3  5  2  0  0  0
  3 27  1  0  0  0
  4  5  1  0  0  0
  4  6  2  0  0  0
  4 18  1  0  0  0
  5 24  1  0  0  0
  6 10  1  0  0  0
  7 10  2  0  0  0
  7 23  1  0  0  0
  7 33  1  0  0  0
  8 21  1  0  0  0
  8 22  1  0  0  0
  8 36  1  0  0  0
  8 37  1  0  0  0
  9 21  1  0  0  0
  9 31  1  0  0  0
  9 38  1  0  0  0
  9 39  1  0  0  0
 10 40  1  0  0  0
 11 12  1  0  0  0
 11 14  2  0  0  0
 11 15  1  0  0  0
 12 17  1  0  0  0
 12 28  2  0  0  0
 13 28  1  0  0  0
 13 29  2  0  0  0
 13 57  1  0  0  0
 14 29  1  0  0  0
 14 31  1  0  0  0
 15 30  2  0  0  0
 15 41  1  0  0  0
 16 17  2  0  0  0
 16 18  1  0  0  0
 16 30  1  0  0  0
 17 26  1  0  0  0
 18 23  2  0  0  0
 19 20  1  0  0  0
 19 31  1  0  0  0
 19 42  1  0  0  0
 19 43  1  0  0  0
 20 22  1  0  0  0
 20 32  1  0  0  0
 20 44  1  0  0  0
 21 32  1  0  0  0
 21 45  1  0  0  0
 22 46  1  0  0  0
 22 47  1  0  0  0
 23 48  1  0  0  0
 24 25  3  0  0  0
 25 49  1  0  0  0
 32 50  1  0  0  0
 33 51  1  0  0  0
 52 53  1  0  0  0
 52 54  1  0  0  0
 52 56  1  0  0  0
 52 59  1  0  0  0
 53 54  1  0  0  0
 53 60  1  0  0  0
 53 61  1  0  0  0
 54 62  1  0  0  0
 54 63  1  0  0  0
 55 56  1  0  0  0
 55 58  1  0  0  0
 55 64  1  0  0  0
 55 65  1  0  0  0
 56 66  1  0  0  0
 56 67  1  0  0  0
 57 58  1  0  0  0
 57 68  1  0  0  0
 57 69  1  0  0  0
 58 70  1  0  0  0
 58 71  1  0  0  0
M  CHG  1  52   1
M  END
> <s_m_entry_id>
28

> <s_m_entry_name>
000000028.1

> <s_m_Source_Path>
/Users/zaksoul/Documents/2

> <s_m_Source_File>
000000028.mol2

> <i_m_Source_File_Index>
1

$$$$
No_0_29
                    3D
 Schrodinger Suite 2022-4.
 71 77  0  0  1  0            999 V2000
   -5.2920    3.3730  -22.0620 C   0  0  0  0  0  0
   -5.5500    3.5490  -23.4010 C   0  0  0  0  0  0
   -4.0520    3.1460  -21.7090 C   0  0  0  0  0  0
   -3.1450    3.2760  -23.8680 C   0  0  0  0  0  0
   -2.9920    3.0430  -22.4450 C   0  0  0  0  0  0
   -4.4930    3.5100  -24.4020 C   0  0  0  0  0  0
   -3.7200    3.5330  -26.5940 C   0  0  0  0  0  0
    5.9770    3.0140  -21.2430 C   0  0  0  0  0  0
    5.8570    3.1390  -23.7940 C   0  0  0  0  0  0
   -4.7350    3.6250  -25.7400 C   0  0  0  0  0  0
    2.0630    3.6150  -23.8470 C   0  0  0  0  0  0
    1.2190    4.7090  -23.5610 C   0  0  0  0  0  0
    2.9880    5.9430  -22.8740 C   0  0  0  0  0  0
    3.4570    3.8340  -23.5230 C   0  0  0  0  0  0
    1.5440    2.4840  -24.5050 C   0  0  0  0  0  0
   -0.6000    3.2570  -24.4180 C   0  0  0  0  0  0
   -0.1010    4.4910  -23.8220 C   0  0  0  0  0  0
   -2.0490    3.2340  -24.7840 C   0  0  0  0  0  0
    4.1070    1.3500  -23.2110 C   0  0  0  0  0  0
    5.0370    1.0190  -22.0540 C   0  0  2  0  0  0
    6.6060    2.5860  -22.5870 C   0  0  2  0  0  0
    4.9910    2.0260  -20.8930 C   0  0  0  0  0  0
   -2.3660    3.3780  -26.2160 C   0  0  0  0  0  0
   -1.6450    2.6590  -21.8330 C   0  0  0  0  0  0
   -0.6120    2.3340  -21.3160 C   0  0  0  0  0  0
   -0.9650    5.5220  -23.4910 F   0  0  0  0  0  0
   -3.8490    2.9160  -20.3240 F   0  0  0  0  0  0
    1.6690    5.8800  -23.0330 N   0  0  0  0  0  0
    3.9050    4.9960  -23.0800 N   0  0  0  0  0  0
    0.2420    2.3680  -24.8210 N   0  0  0  0  0  0
    4.3960    2.8030  -23.6860 N   0  0  0  0  0  0
    6.4470    1.1090  -22.5250 N   0  0  1  0  0  0
   -3.8810    3.5360  -27.9850 O   0  0  0  0  0  0
   -6.1009    3.4262  -21.3424 H   0  0  0  0  0  0
   -6.5655    3.7226  -23.7382 H   0  0  0  0  0  0
    5.4888    3.9924  -21.3630 H   0  0  0  0  0  0
    6.7560    3.0443  -20.4670 H   0  0  0  0  0  0
    6.2677    2.6960  -24.7133 H   0  0  0  0  0  0
    5.9802    4.2314  -23.8324 H   0  0  0  0  0  0
   -5.7456    3.7886  -26.0963 H   0  0  0  0  0  0
    2.2002    1.6652  -24.7769 H   0  0  0  0  0  0
    3.0629    1.2753  -22.8730 H   0  0  0  0  0  0
    4.2896    0.6497  -24.0394 H   0  0  0  0  0  0
    4.8292    0.0050  -21.6817 H   0  0  0  0  0  0
    7.6699    2.8626  -22.6264 H   0  0  0  0  0  0
    3.9981    2.4983  -20.8607 H   0  0  0  0  0  0
    5.2928    1.5233  -19.9623 H   0  0  0  0  0  0
   -1.5891    3.3690  -26.9719 H   0  0  0  0  0  0
    0.2970    2.0480  -20.8610 H   0  0  0  0  0  0
    7.0977    0.6274  -21.8101 H   0  0  0  0  0  0
   -3.0309    3.4618  -28.4026 H   0  0  0  0  0  0
    4.4490   10.4580  -22.1180 N   0  3  0  0  0  0
    4.8040   11.7120  -22.8120 C   0  0  0  0  0  0
    4.1880   10.4600  -23.5720 C   0  0  0  0  0  0
    5.1130    8.4610  -20.7390 C   0  0  0  0  0  0
    5.6010    9.6490  -21.5910 C   0  0  0  0  0  0
    3.5180    7.2950  -22.4090 C   0  0  0  0  0  0
    4.8020    7.1960  -21.5610 C   0  0  0  0  0  0
    3.6345   10.5000  -21.5256 H   0  0  0  0  0  0
    5.8672   11.4950  -22.9920 H   0  0  0  0  0  0
    3.8673   12.2598  -22.6320 H   0  0  0  0  0  0
    3.1313   10.7639  -23.5390 H   0  0  0  0  0  0
    5.1311    9.9979  -23.8991 H   0  0  0  0  0  0
    4.2169    8.7590  -20.1749 H   0  0  0  0  0  0
    5.8699    8.2230  -19.9771 H   0  0  0  0  0  0
    6.2535   10.2925  -20.9826 H   0  0  0  0  0  0
    6.1998    9.2731  -22.4337 H   0  0  0  0  0  0
    3.7080    7.9329  -23.2848 H   0  0  0  0  0  0
    2.7387    7.8142  -21.8318 H   0  0  0  0  0  0
    4.7260    6.3313  -20.8853 H   0  0  0  0  0  0
    5.6555    6.9679  -22.2164 H   0  0  0  0  0  0
  1  2  2  0  0  0
  1  3  1  0  0  0
  1 34  1  0  0  0
  2  6  1  0  0  0
  2 35  1  0  0  0
  3  5  2  0  0  0
  3 27  1  0  0  0
  4  5  1  0  0  0
  4  6  2  0  0  0
  4 18  1  0  0  0
  5 24  1  0  0  0
  6 10  1  0  0  0
  7 10  2  0  0  0
  7 23  1  0  0  0
  7 33  1  0  0  0
  8 21  1  0  0  0
  8 22  1  0  0  0
  8 36  1  0  0  0
  8 37  1  0  0  0
  9 21  1  0  0  0
  9 31  1  0  0  0
  9 38  1  0  0  0
  9 39  1  0  0  0
 10 40  1  0  0  0
 11 12  1  0  0  0
 11 14  2  0  0  0
 11 15  1  0  0  0
 12 17  1  0  0  0
 12 28  2  0  0  0
 13 28  1  0  0  0
 13 29  2  0  0  0
 13 57  1  0  0  0
 14 29  1  0  0  0
 14 31  1  0  0  0
 15 30  2  0  0  0
 15 41  1  0  0  0
 16 17  2  0  0  0
 16 18  1  0  0  0
 16 30  1  0  0  0
 17 26  1  0  0  0
 18 23  2  0  0  0
 19 20  1  0  0  0
 19 31  1  0  0  0
 19 42  1  0  0  0
 19 43  1  0  0  0
 20 22  1  0  0  0
 20 32  1  0  0  0
 20 44  1  0  0  0
 21 32  1  0  0  0
 21 45  1  0  0  0
 22 46  1  0  0  0
 22 47  1  0  0  0
 23 48  1  0  0  0
 24 25  3  0  0  0
 25 49  1  0  0  0
 32 50  1  0  0  0
 33 51  1  0  0  0
 52 53  1  0  0  0
 52 54  1  0  0  0
 52 56  1  0  0  0
 52 59  1  0  0  0
 53 54  1  0  0  0
 53 60  1  0  0  0
 53 61  1  0  0  0
 54 62  1  0  0  0
 54 63  1  0  0  0
 55 56  1  0  0  0
 55 58  1  0  0  0
 55 64  1  0  0  0
 55 65  1  0  0  0
 56 66  1  0  0  0
 56 67  1  0  0  0
 57 58  1  0  0  0
 57 68  1  0  0  0
 57 69  1  0  0  0
 58 70  1  0  0  0
 58 71  1  0  0  0
M  CHG  1  52   1
M  END
> <s_m_entry_id>
29

> <s_m_entry_name>
000000029.1

> <s_m_Source_Path>
/Users/zaksoul/Documents/2

> <s_m_Source_File>
000000029.mol2

> <i_m_Source_File_Index>
1

$$$$
No_0_30
                    3D
 Schrodinger Suite 2022-4.
 71 77  0  0  1  0            999 V2000
   -5.4460    3.3870  -22.1460 C   0  0  0  0  0  0
   -5.6670    3.5920  -23.4870 C   0  0  0  0  0  0
   -4.2210    3.1230  -21.7670 C   0  0  0  0  0  0
   -3.2580    3.2690  -23.9010 C   0  0  0  0  0  0
   -3.1460    3.0080  -22.4790 C   0  0  0  0  0  0
   -4.5860    3.5450  -24.4630 C   0  0  0  0  0  0
   -3.7590    3.5880  -26.6350 C   0  0  0  0  0  0
    5.7870    2.7410  -21.0610 C   0  0  0  0  0  0
    5.7330    2.9130  -23.6110 C   0  0  0  0  0  0
   -4.7930    3.6890  -25.8040 C   0  0  0  0  0  0
    1.9540    3.4820  -23.7470 C   0  0  0  0  0  0
    1.1290    4.5910  -23.4620 C   0  0  0  0  0  0
    2.9100    5.7690  -22.7090 C   0  0  0  0  0  0
    3.3440    3.6620  -23.3860 C   0  0  0  0  0  0
    1.4240    2.3750  -24.4390 C   0  0  0  0  0  0
   -0.7010    3.1990  -24.3890 C   0  0  0  0  0  0
   -0.1880    4.4090  -23.7590 C   0  0  0  0  0  0
   -2.1420    3.2170  -24.7910 C   0  0  0  0  0  0
    3.9280    1.1570  -23.1030 C   0  0  0  0  0  0
    4.8210    0.7830  -21.9300 C   0  0  2  0  0  0
    6.4390    2.3220  -22.3960 C   0  0  2  0  0  0
    4.7700    1.7710  -20.7530 C   0  0  0  0  0  0
   -2.4190    3.3940  -26.2270 C   0  0  0  0  0  0
   -1.8240    2.5800  -21.8410 C   0  0  0  0  0  0
   -0.8120    2.2210  -21.3060 C   0  0  0  0  0  0
   -1.0360    5.4550  -23.4300 F   0  0  0  0  0  0
   -4.0570    2.8640  -20.3820 F   0  0  0  0  0  0
    1.5940    5.7420  -22.9020 N   0  0  0  0  0  0
    3.8080    4.8050  -22.9110 N   0  0  0  0  0  0
    0.1280    2.2960  -24.7880 N   0  0  0  0  0  0
    4.2630    2.6110  -23.5450 N   0  0  0  0  0  0
    6.2430    0.8480  -22.3650 N   0  0  1  0  0  0
   -3.8860    3.6190  -28.0290 O   0  0  0  0  0  0
   -6.2711    3.4462  -21.4454 H   0  0  0  0  0  0
   -6.6691    3.7966  -23.8461 H   0  0  0  0  0  0
    5.3257    3.7332  -21.1740 H   0  0  0  0  0  0
    6.5475    2.7390  -20.2662 H   0  0  0  0  0  0
    6.1558    2.4771  -24.5282 H   0  0  0  0  0  0
    5.8833    4.0026  -23.6271 H   0  0  0  0  0  0
   -5.7904    3.8837  -26.1813 H   0  0  0  0  0  0
    2.0683    1.5461  -24.7090 H   0  0  0  0  0  0
    2.8742    1.1025  -22.7924 H   0  0  0  0  0  0
    4.1137    0.4676  -23.9398 H   0  0  0  0  0  0
    4.5796   -0.2320  -21.5816 H   0  0  0  0  0  0
    7.5099    2.5733  -22.4051 H   0  0  0  0  0  0
    3.7881    2.2665  -20.7358 H   0  0  0  0  0  0
    5.0365    1.2451  -19.8243 H   0  0  0  0  0  0
   -1.6245    3.3789  -26.9643 H   0  0  0  0  0  0
    0.0782    1.9049  -20.8339 H   0  0  0  0  0  0
    6.8655    0.3389  -21.6441 H   0  0  0  0  0  0
   -3.0281    3.5319  -28.4277 H   0  0  0  0  0  0
    4.2810   10.2740  -21.7460 N   0  3  0  0  0  0
    4.4250   11.6140  -22.3480 C   0  0  0  0  0  0
    3.7240   10.4070  -23.1080 C   0  0  0  0  0  0
    5.3100    8.1950  -20.7680 C   0  0  0  0  0  0
    5.5540    9.4960  -21.5580 C   0  0  0  0  0  0
    3.4610    7.1000  -22.2080 C   0  0  0  0  0  0
    4.8950    7.0040  -21.6510 C   0  0  0  0  0  0
    3.6062   10.1970  -21.0012 H   0  0  0  0  0  0
    5.4371   11.4910  -22.7610 H   0  0  0  0  0  0
    3.5214   12.0728  -21.9202 H   0  0  0  0  0  0
    2.6838   10.6310  -22.8290 H   0  0  0  0  0  0
    4.5999   10.0490  -23.6689 H   0  0  0  0  0  0
    4.5372    8.3710  -20.0052 H   0  0  0  0  0  0
    6.2189    7.9340  -20.2061 H   0  0  0  0  0  0
    6.2869   10.1179  -21.0231 H   0  0  0  0  0  0
    5.9822    9.2519  -22.5414 H   0  0  0  0  0  0
    3.4340    7.8371  -23.0241 H   0  0  0  0  0  0
    2.7943    7.5008  -21.4303 H   0  0  0  0  0  0
    5.0020    6.0707  -21.0788 H   0  0  0  0  0  0
    5.6036    6.9051  -22.4865 H   0  0  0  0  0  0
  1  2  2  0  0  0
  1  3  1  0  0  0
  1 34  1  0  0  0
  2  6  1  0  0  0
  2 35  1  0  0  0
  3  5  2  0  0  0
  3 27  1  0  0  0
  4  5  1  0  0  0
  4  6  2  0  0  0
  4 18  1  0  0  0
  5 24  1  0  0  0
  6 10  1  0  0  0
  7 10  2  0  0  0
  7 23  1  0  0  0
  7 33  1  0  0  0
  8 21  1  0  0  0
  8 22  1  0  0  0
  8 36  1  0  0  0
  8 37  1  0  0  0
  9 21  1  0  0  0
  9 31  1  0  0  0
  9 38  1  0  0  0
  9 39  1  0  0  0
 10 40  1  0  0  0
 11 12  1  0  0  0
 11 14  2  0  0  0
 11 15  1  0  0  0
 12 17  1  0  0  0
 12 28  2  0  0  0
 13 28  1  0  0  0
 13 29  2  0  0  0
 13 57  1  0  0  0
 14 29  1  0  0  0
 14 31  1  0  0  0
 15 30  2  0  0  0
 15 41  1  0  0  0
 16 17  2  0  0  0
 16 18  1  0  0  0
 16 30  1  0  0  0
 17 26  1  0  0  0
 18 23  2  0  0  0
 19 20  1  0  0  0
 19 31  1  0  0  0
 19 42  1  0  0  0
 19 43  1  0  0  0
 20 22  1  0  0  0
 20 32  1  0  0  0
 20 44  1  0  0  0
 21 32  1  0  0  0
 21 45  1  0  0  0
 22 46  1  0  0  0
 22 47  1  0  0  0
 23 48  1  0  0  0
 24 25  3  0  0  0
 25 49  1  0  0  0
 32 50  1  0  0  0
 33 51  1  0  0  0
 52 53  1  0  0  0
 52 54  1  0  0  0
 52 56  1  0  0  0
 52 59  1  0  0  0
 53 54  1  0  0  0
 53 60  1  0  0  0
 53 61  1  0  0  0
 54 62  1  0  0  0
 54 63  1  0  0  0
 55 56  1  0  0  0
 55 58  1  0  0  0
 55 64  1  0  0  0
 55 65  1  0  0  0
 56 66  1  0  0  0
 56 67  1  0  0  0
 57 58  1  0  0  0
 57 68  1  0  0  0
 57 69  1  0  0  0
 58 70  1  0  0  0
 58 71  1  0  0  0
M  CHG  1  52   1
M  END
> <s_m_entry_id>
30

> <s_m_entry_name>
000000030.1

> <s_m_Source_Path>
/Users/zaksoul/Documents/2

> <s_m_Source_File>
000000030.mol2

> <i_m_Source_File_Index>
1

$$$$
No_0_31
                    3D
 Schrodinger Suite 2022-4.
 71 77  0  0  1  0            999 V2000
   -5.2740    3.3400  -22.0990 C   0  0  0  0  0  0
   -5.5180    3.5220  -23.4390 C   0  0  0  0  0  0
   -4.0350    3.1270  -21.7320 C   0  0  0  0  0  0
   -3.1030    3.2880  -23.8780 C   0  0  0  0  0  0
   -2.9640    3.0460  -22.4550 C   0  0  0  0  0  0
   -4.4470    3.5060  -24.4270 C   0  0  0  0  0  0
   -3.6470    3.5580  -26.6090 C   0  0  0  0  0  0
    5.9880    3.1370  -21.1400 C   0  0  0  0  0  0
    5.8980    3.2800  -23.6910 C   0  0  0  0  0  0
   -4.6750    3.6280  -25.7670 C   0  0  0  0  0  0
    2.0990    3.7010  -23.7880 C   0  0  0  0  0  0
    1.2350    4.7810  -23.5050 C   0  0  0  0  0  0
    2.9780    6.0350  -22.7850 C   0  0  0  0  0  0
    3.4850    3.9380  -23.4450 C   0  0  0  0  0  0
    1.6040    2.5680  -24.4620 C   0  0  0  0  0  0
   -0.5510    3.3100  -24.3960 C   0  0  0  0  0  0
   -0.0780    4.5460  -23.7840 C   0  0  0  0  0  0
   -1.9960    3.2690  -24.7810 C   0  0  0  0  0  0
    4.1670    1.4610  -23.1440 C   0  0  0  0  0  0
    5.0880    1.1340  -21.9780 C   0  0  2  0  0  0
    6.6400    2.7280  -22.4790 C   0  0  2  0  0  0
    5.0120    2.1320  -20.8110 C   0  0  0  0  0  0
   -2.2960    3.4200  -26.2150 C   0  0  0  0  0  0
   -1.6200    2.6760  -21.8290 C   0  0  0  0  0  0
   -0.5890    2.3620  -21.3020 C   0  0  0  0  0  0
   -0.9610    5.5620  -23.4550 F   0  0  0  0  0  0
   -3.8460    2.8890  -20.3460 F   0  0  0  0  0  0
    1.6620    5.9550  -22.9610 N   0  0  0  0  0  0
    3.9100    5.1030  -22.9880 N   0  0  0  0  0  0
    0.3080    2.4360  -24.7950 N   0  0  0  0  0  0
    4.4410    2.9220  -23.6040 N   0  0  0  0  0  0
    6.5010    1.2490  -22.4310 N   0  0  1  0  0  0
   -3.7910    3.5700  -28.0020 O   0  0  0  0  0  0
   -6.0924    3.3741  -21.3890 H   0  0  0  0  0  0
   -6.5313    3.6837  -23.7885 H   0  0  0  0  0  0
    5.4864    4.1088  -21.2581 H   0  0  0  0  0  0
    6.7568    3.1713  -20.3540 H   0  0  0  0  0  0
    6.3267    2.8513  -24.6089 H   0  0  0  0  0  0
    6.0060    4.3743  -23.7203 H   0  0  0  0  0  0
   -5.6833    3.7806  -26.1346 H   0  0  0  0  0  0
    2.2766    1.7619  -24.7320 H   0  0  0  0  0  0
    3.1195    1.3692  -22.8211 H   0  0  0  0  0  0
    4.3699    0.7705  -23.9759 H   0  0  0  0  0  0
    4.8901    0.1141  -21.6165 H   0  0  0  0  0  0
    7.7000    3.0208  -22.5032 H   0  0  0  0  0  0
    4.0118    2.5892  -20.7868 H   0  0  0  0  0  0
    5.3095    1.6268  -19.8803 H   0  0  0  0  0  0
   -1.5102    3.4280  -26.9617 H   0  0  0  0  0  0
    0.3182    2.0849  -20.8379 H   0  0  0  0  0  0
    7.1497    0.7713  -21.7117 H   0  0  0  0  0  0
   -2.9350    3.5106  -28.4097 H   0  0  0  0  0  0
    4.0320   10.6080  -21.7500 N   0  3  0  0  0  0
    3.8740   11.9920  -22.2400 C   0  0  0  0  0  0
    3.1480   10.7550  -22.9250 C   0  0  0  0  0  0
    5.4930    8.6230  -21.2400 C   0  0  0  0  0  0
    5.3900    9.9930  -21.9400 C   0  0  0  0  0  0
    3.4820    7.3910  -22.3030 C   0  0  0  0  0  0
    5.0110    7.4470  -22.1100 C   0  0  0  0  0  0
    3.5719   10.3950  -20.8788 H   0  0  0  0  0  0
    4.7621   12.0290  -22.8881 H   0  0  0  0  0  0
    3.0565   12.3002  -21.5716 H   0  0  0  0  0  0
    2.1895   10.8230  -22.3897 H   0  0  0  0  0  0
    3.8946   10.5511  -23.7066 H   0  0  0  0  0  0
    4.9147    8.6460  -20.3046 H   0  0  0  0  0  0
    6.5348    8.4470  -20.9340 H   0  0  0  0  0  0
    6.1577   10.6688  -21.5351 H   0  0  0  0  0  0
    5.5901    9.8709  -23.0147 H   0  0  0  0  0  0
    3.1758    8.1694  -23.0174 H   0  0  0  0  0  0
    2.9848    7.6501  -21.3566 H   0  0  0  0  0  0
    5.3571    6.5007  -21.6688 H   0  0  0  0  0  0
    5.5008    7.4960  -23.0937 H   0  0  0  0  0  0
  1  2  2  0  0  0
  1  3  1  0  0  0
  1 34  1  0  0  0
  2  6  1  0  0  0
  2 35  1  0  0  0
  3  5  2  0  0  0
  3 27  1  0  0  0
  4  5  1  0  0  0
  4  6  2  0  0  0
  4 18  1  0  0  0
  5 24  1  0  0  0
  6 10  1  0  0  0
  7 10  2  0  0  0
  7 23  1  0  0  0
  7 33  1  0  0  0
  8 21  1  0  0  0
  8 22  1  0  0  0
  8 36  1  0  0  0
  8 37  1  0  0  0
  9 21  1  0  0  0
  9 31  1  0  0  0
  9 38  1  0  0  0
  9 39  1  0  0  0
 10 40  1  0  0  0
 11 12  1  0  0  0
 11 14  2  0  0  0
 11 15  1  0  0  0
 12 17  1  0  0  0
 12 28  2  0  0  0
 13 28  1  0  0  0
 13 29  2  0  0  0
 13 57  1  0  0  0
 14 29  1  0  0  0
 14 31  1  0  0  0
 15 30  2  0  0  0
 15 41  1  0  0  0
 16 17  2  0  0  0
 16 18  1  0  0  0
 16 30  1  0  0  0
 17 26  1  0  0  0
 18 23  2  0  0  0
 19 20  1  0  0  0
 19 31  1  0  0  0
 19 42  1  0  0  0
 19 43  1  0  0  0
 20 22  1  0  0  0
 20 32  1  0  0  0
 20 44  1  0  0  0
 21 32  1  0  0  0
 21 45  1  0  0  0
 22 46  1  0  0  0
 22 47  1  0  0  0
 23 48  1  0  0  0
 24 25  3  0  0  0
 25 49  1  0  0  0
 32 50  1  0  0  0
 33 51  1  0  0  0
 52 53  1  0  0  0
 52 54  1  0  0  0
 52 56  1  0  0  0
 52 59  1  0  0  0
 53 54  1  0  0  0
 53 60  1  0  0  0
 53 61  1  0  0  0
 54 62  1  0  0  0
 54 63  1  0  0  0
 55 56  1  0  0  0
 55 58  1  0  0  0
 55 64  1  0  0  0
 55 65  1  0  0  0
 56 66  1  0  0  0
 56 67  1  0  0  0
 57 58  1  0  0  0
 57 68  1  0  0  0
 57 69  1  0  0  0
 58 70  1  0  0  0
 58 71  1  0  0  0
M  CHG  1  52   1
M  END
> <s_m_entry_id>
31

> <s_m_entry_name>
000000031.1

> <s_m_Source_Path>
/Users/zaksoul/Documents/2

> <s_m_Source_File>
000000031.mol2

> <i_m_Source_File_Index>
1

$$$$
No_0_32
                    3D
 Schrodinger Suite 2022-4.
 69 74  0  0  1  0            999 V2000
   -5.5080    3.5830  -22.2380 C   0  0  0  0  0  0
   -5.7300    3.7280  -23.5870 C   0  0  0  0  0  0
   -4.2800    3.3550  -21.8480 C   0  0  0  0  0  0
   -3.3150    3.4250  -23.9850 C   0  0  0  0  0  0
   -3.2010    3.2260  -22.5530 C   0  0  0  0  0  0
   -4.6470    3.6560  -24.5590 C   0  0  0  0  0  0
   -3.8170    3.6200  -26.7300 C   0  0  0  0  0  0
    5.7320    3.1590  -21.1150 C   0  0  0  0  0  0
    5.6800    3.2220  -23.6710 C   0  0  0  0  0  0
   -4.8530    3.7400  -25.9060 C   0  0  0  0  0  0
    1.8930    3.7250  -23.8350 C   0  0  0  0  0  0
    1.0500    4.8330  -23.5980 C   0  0  0  0  0  0
    2.8110    6.0700  -22.8940 C   0  0  0  0  0  0
    3.2790    3.9420  -23.4800 C   0  0  0  0  0  0
    1.3810    2.5820  -24.4790 C   0  0  0  0  0  0
   -0.7570    3.3740  -24.4670 C   0  0  0  0  0  0
   -0.2640    4.6180  -23.8880 C   0  0  0  0  0  0
   -2.1970    3.3520  -24.8700 C   0  0  0  0  0  0
    3.9010    1.4610  -23.0900 C   0  0  0  0  0  0
    4.7980    1.1520  -21.9020 C   0  0  2  0  0  0
    6.3920    2.6940  -22.4310 C   0  0  2  0  0  0
    4.7290    2.1880  -20.7680 C   0  0  0  0  0  0
   -2.4740    3.4640  -26.3130 C   0  0  0  0  0  0
   -1.8740    2.8470  -21.8960 C   0  0  0  0  0  0
   -0.8580    2.5270  -21.3450 C   0  0  0  0  0  0
   -1.1280    5.6630  -23.6050 F   0  0  0  0  0  0
   -4.1140    3.1570  -20.4530 F   0  0  0  0  0  0
    1.4970    6.0130  -23.0870 N   0  0  0  0  0  0
    3.7250    5.1110  -23.0540 N   0  0  0  0  0  0
    0.0870    2.4680  -24.8260 N   0  0  0  0  0  0
    4.2140    2.9000  -23.5930 N   0  0  0  0  0  0
    6.2200    1.2200  -22.3380 N   0  0  1  0  0  0
   -3.9420    3.5900  -28.1250 O   0  0  0  0  0  0
   -6.3355    3.6593  -21.5420 H   0  0  0  0  0  0
   -6.7344    3.9006  -23.9563 H   0  0  0  0  0  0
    5.2556    4.1381  -21.2714 H   0  0  0  0  0  0
    6.4908    3.2024  -20.3198 H   0  0  0  0  0  0
    6.1109    2.7537  -24.5682 H   0  0  0  0  0  0
    5.8132    4.3122  -23.7326 H   0  0  0  0  0  0
   -5.8530    3.9026  -26.2915 H   0  0  0  0  0  0
    2.0387    1.7527  -24.7129 H   0  0  0  0  0  0
    2.8474    1.4035  -22.7792 H   0  0  0  0  0  0
    4.0989    0.7400  -23.8968 H   0  0  0  0  0  0
    4.5720    0.1492  -21.5105 H   0  0  0  0  0  0
    7.4588    2.9615  -22.4492 H   0  0  0  0  0  0
    3.7396    2.6686  -20.7730 H   0  0  0  0  0  0
    5.0034    1.7068  -19.8177 H   0  0  0  0  0  0
   -1.6783    3.4298  -27.0484 H   0  0  0  0  0  0
    0.0364    2.2452  -20.8594 H   0  0  0  0  0  0
    6.8479    0.7515  -21.5946 H   0  0  0  0  0  0
   -3.0819    3.4989  -28.5179 H   0  0  0  0  0  0
    6.2930    8.0090  -21.6740 O   0  0  0  0  0  0
    5.9230   11.3530  -21.5320 N   0  3  0  0  0  0
    3.3400    7.4290  -22.4490 C   0  0  0  0  0  0
    3.6470    7.4990  -20.9420 C   0  0  0  0  0  0
    4.3200    8.8370  -20.5970 C   0  0  0  0  0  0
    5.7490    8.9170  -21.0890 C   0  0  0  0  0  0
    6.5060   10.1870  -20.7860 C   0  0  0  0  0  0
    6.4444   12.1876  -21.3138 H   0  0  0  0  0  0
    5.9710   11.1761  -22.5232 H   0  0  0  0  0  0
    4.9602   11.4780  -21.2610 H   0  0  0  0  0  0
    4.2497    7.6719  -23.0178 H   0  0  0  0  0  0
    2.6088    8.2082  -22.7101 H   0  0  0  0  0  0
    4.3149    6.6701  -20.6650 H   0  0  0  0  0  0
    2.7106    7.4030  -20.3728 H   0  0  0  0  0  0
    4.3000    8.9861  -19.5073 H   0  0  0  0  0  0
    3.7377    9.6625  -21.0323 H   0  0  0  0  0  0
    6.4680   10.3880  -19.7052 H   0  0  0  0  0  0
    7.5609   10.0610  -21.0710 H   0  0  0  0  0  0
  1  2  2  0  0  0
  1  3  1  0  0  0
  1 34  1  0  0  0
  2  6  1  0  0  0
  2 35  1  0  0  0
  3  5  2  0  0  0
  3 27  1  0  0  0
  4  5  1  0  0  0
  4  6  2  0  0  0
  4 18  1  0  0  0
  5 24  1  0  0  0
  6 10  1  0  0  0
  7 10  2  0  0  0
  7 23  1  0  0  0
  7 33  1  0  0  0
  8 21  1  0  0  0
  8 22  1  0  0  0
  8 36  1  0  0  0
  8 37  1  0  0  0
  9 21  1  0  0  0
  9 31  1  0  0  0
  9 38  1  0  0  0
  9 39  1  0  0  0
 10 40  1  0  0  0
 11 12  1  0  0  0
 11 14  2  0  0  0
 11 15  1  0  0  0
 12 17  1  0  0  0
 12 28  2  0  0  0
 13 28  1  0  0  0
 13 29  2  0  0  0
 13 54  1  0  0  0
 14 29  1  0  0  0
 14 31  1  0  0  0
 15 30  2  0  0  0
 15 41  1  0  0  0
 16 17  2  0  0  0
 16 18  1  0  0  0
 16 30  1  0  0  0
 17 26  1  0  0  0
 18 23  2  0  0  0
 19 20  1  0  0  0
 19 31  1  0  0  0
 19 42  1  0  0  0
 19 43  1  0  0  0
 20 22  1  0  0  0
 20 32  1  0  0  0
 20 44  1  0  0  0
 21 32  1  0  0  0
 21 45  1  0  0  0
 22 46  1  0  0  0
 22 47  1  0  0  0
 23 48  1  0  0  0
 24 25  3  0  0  0
 25 49  1  0  0  0
 32 50  1  0  0  0
 33 51  1  0  0  0
 52 57  2  0  0  0
 53 58  1  0  0  0
 53 59  1  0  0  0
 53 60  1  0  0  0
 53 61  1  0  0  0
 54 55  1  0  0  0
 54 62  1  0  0  0
 54 63  1  0  0  0
 55 56  1  0  0  0
 55 64  1  0  0  0
 55 65  1  0  0  0
 56 57  1  0  0  0
 56 66  1  0  0  0
 56 67  1  0  0  0
 57 58  1  0  0  0
 58 68  1  0  0  0
 58 69  1  0  0  0
M  CHG  1  53   1
M  END
> <s_m_entry_id>
32

> <s_m_entry_name>
000000032.1

> <s_m_Source_Path>
/Users/zaksoul/Documents/2

> <s_m_Source_File>
000000032.mol2

> <i_m_Source_File_Index>
1

$$$$
No_0_33
                    3D
 Schrodinger Suite 2022-4.
 69 74  0  0  1  0            999 V2000
   -5.4620    3.6150  -22.1700 C   0  0  0  0  0  0
   -5.6860    3.7790  -23.5170 C   0  0  0  0  0  0
   -4.2350    3.3670  -21.7870 C   0  0  0  0  0  0
   -3.2770    3.4500  -23.9250 C   0  0  0  0  0  0
   -3.1610    3.2330  -22.4960 C   0  0  0  0  0  0
   -4.6070    3.7050  -24.4930 C   0  0  0  0  0  0
   -3.7840    3.6840  -26.6670 C   0  0  0  0  0  0
    5.7760    3.0350  -21.0890 C   0  0  0  0  0  0
    5.7160    3.1290  -23.6440 C   0  0  0  0  0  0
   -4.8160    3.8080  -25.8380 C   0  0  0  0  0  0
    1.9350    3.6820  -23.7890 C   0  0  0  0  0  0
    1.1080    4.7980  -23.5360 C   0  0  0  0  0  0
    2.8870    6.0030  -22.8240 C   0  0  0  0  0  0
    3.3260    3.8770  -23.4360 C   0  0  0  0  0  0
    1.4070    2.5540  -24.4450 C   0  0  0  0  0  0
   -0.7210    3.3720  -24.4160 C   0  0  0  0  0  0
   -0.2100    4.6030  -23.8240 C   0  0  0  0  0  0
   -2.1620    3.3740  -24.8160 C   0  0  0  0  0  0
    3.9170    1.3840  -23.0780 C   0  0  0  0  0  0
    4.8140    1.0490  -21.8970 C   0  0  2  0  0  0
    6.4260    2.5770  -22.4120 C   0  0  2  0  0  0
    4.7620    2.0720  -20.7500 C   0  0  0  0  0  0
   -2.4430    3.5070  -26.2560 C   0  0  0  0  0  0
   -1.8360    2.8290  -21.8490 C   0  0  0  0  0  0
   -0.8230    2.4890  -21.3050 C   0  0  0  0  0  0
   -1.0600    5.6560  -23.5260 F   0  0  0  0  0  0
   -4.0680    3.1500  -20.3940 F   0  0  0  0  0  0
    1.5710    5.9660  -23.0120 N   0  0  0  0  0  0
    3.7870    5.0350  -22.9980 N   0  0  0  0  0  0
    0.1110    2.4600  -24.7890 N   0  0  0  0  0  0
    4.2470    2.8240  -23.5650 N   0  0  0  0  0  0
    6.2350    1.1050  -22.3360 N   0  0  1  0  0  0
   -3.9140    3.6730  -28.0610 O   0  0  0  0  0  0
   -6.2858    3.6934  -21.4698 H   0  0  0  0  0  0
   -6.6895    3.9687  -23.8803 H   0  0  0  0  0  0
    5.3105    4.0214  -21.2314 H   0  0  0  0  0  0
    6.5378    3.0582  -20.2959 H   0  0  0  0  0  0
    6.1388    2.6668  -24.5482 H   0  0  0  0  0  0
    5.8624    4.2181  -23.6925 H   0  0  0  0  0  0
   -5.8151    3.9876  -26.2182 H   0  0  0  0  0  0
    2.0531    1.7193  -24.6918 H   0  0  0  0  0  0
    2.8638    1.3356  -22.7643 H   0  0  0  0  0  0
    4.1027    0.6705  -23.8944 H   0  0  0  0  0  0
    4.5760    0.0446  -21.5168 H   0  0  0  0  0  0
    7.4960    2.8314  -22.4312 H   0  0  0  0  0  0
    3.7787    2.5651  -20.7460 H   0  0  0  0  0  0
    5.0315    1.5754  -19.8062 H   0  0  0  0  0  0
   -1.6498    3.4709  -26.9940 H   0  0  0  0  0  0
    0.0695    2.1902  -20.8262 H   0  0  0  0  0  0
    6.8593    0.6196  -21.6005 H   0  0  0  0  0  0
   -3.0567    3.5751  -28.4585 H   0  0  0  0  0  0
    6.3050    8.3850  -22.9510 O   0  0  0  0  0  0
    5.7360   11.5140  -21.8450 N   0  3  0  0  0  0
    3.4340    7.3500  -22.3640 C   0  0  0  0  0  0
    4.4480    7.2340  -21.2110 C   0  0  0  0  0  0
    5.0710    8.6060  -20.9100 C   0  0  0  0  0  0
    6.0440    9.0550  -21.9780 C   0  0  0  0  0  0
    6.7250   10.3850  -21.7680 C   0  0  0  0  0  0
    6.2139   12.3899  -21.7020 H   0  0  0  0  0  0
    5.2969   11.5150  -22.7523 H   0  0  0  0  0  0
    5.0337   11.3950  -21.1317 H   0  0  0  0  0  0
    3.9060    7.8630  -23.2149 H   0  0  0  0  0  0
    2.6001    7.9959  -22.0520 H   0  0  0  0  0  0
    5.2410    6.5250  -21.4910 H   0  0  0  0  0  0
    3.9389    6.8569  -20.3118 H   0  0  0  0  0  0
    5.5869    8.5680  -19.9392 H   0  0  0  0  0  0
    4.2726    9.3554  -20.8049 H   0  0  0  0  0  0
    7.2161   10.3950  -20.7838 H   0  0  0  0  0  0
    7.5000   10.5250  -22.5360 H   0  0  0  0  0  0
  1  2  2  0  0  0
  1  3  1  0  0  0
  1 34  1  0  0  0
  2  6  1  0  0  0
  2 35  1  0  0  0
  3  5  2  0  0  0
  3 27  1  0  0  0
  4  5  1  0  0  0
  4  6  2  0  0  0
  4 18  1  0  0  0
  5 24  1  0  0  0
  6 10  1  0  0  0
  7 10  2  0  0  0
  7 23  1  0  0  0
  7 33  1  0  0  0
  8 21  1  0  0  0
  8 22  1  0  0  0
  8 36  1  0  0  0
  8 37  1  0  0  0
  9 21  1  0  0  0
  9 31  1  0  0  0
  9 38  1  0  0  0
  9 39  1  0  0  0
 10 40  1  0  0  0
 11 12  1  0  0  0
 11 14  2  0  0  0
 11 15  1  0  0  0
 12 17  1  0  0  0
 12 28  2  0  0  0
 13 28  1  0  0  0
 13 29  2  0  0  0
 13 54  1  0  0  0
 14 29  1  0  0  0
 14 31  1  0  0  0
 15 30  2  0  0  0
 15 41  1  0  0  0
 16 17  2  0  0  0
 16 18  1  0  0  0
 16 30  1  0  0  0
 17 26  1  0  0  0
 18 23  2  0  0  0
 19 20  1  0  0  0
 19 31  1  0  0  0
 19 42  1  0  0  0
 19 43  1  0  0  0
 20 22  1  0  0  0
 20 32  1  0  0  0
 20 44  1  0  0  0
 21 32  1  0  0  0
 21 45  1  0  0  0
 22 46  1  0  0  0
 22 47  1  0  0  0
 23 48  1  0  0  0
 24 25  3  0  0  0
 25 49  1  0  0  0
 32 50  1  0  0  0
 33 51  1  0  0  0
 52 57  2  0  0  0
 53 58  1  0  0  0
 53 59  1  0  0  0
 53 60  1  0  0  0
 53 61  1  0  0  0
 54 55  1  0  0  0
 54 62  1  0  0  0
 54 63  1  0  0  0
 55 56  1  0  0  0
 55 64  1  0  0  0
 55 65  1  0  0  0
 56 57  1  0  0  0
 56 66  1  0  0  0
 56 67  1  0  0  0
 57 58  1  0  0  0
 58 68  1  0  0  0
 58 69  1  0  0  0
M  CHG  1  53   1
M  END
> <s_m_entry_id>
33

> <s_m_entry_name>
000000033.1

> <s_m_Source_Path>
/Users/zaksoul/Documents/2

> <s_m_Source_File>
000000033.mol2

> <i_m_Source_File_Index>
1

$$$$
No_0_34
                    3D
 Schrodinger Suite 2022-4.
 69 74  0  0  1  0            999 V2000
   -5.3720    3.5270  -22.0890 C   0  0  0  0  0  0
   -5.5840    3.7180  -23.4340 C   0  0  0  0  0  0
   -4.1440    3.3030  -21.6960 C   0  0  0  0  0  0
   -3.1610    3.4690  -23.8190 C   0  0  0  0  0  0
   -3.0570    3.2180  -22.3940 C   0  0  0  0  0  0
   -4.4910    3.7000  -24.3970 C   0  0  0  0  0  0
   -3.6400    3.7570  -26.5600 C   0  0  0  0  0  0
    5.8630    3.2390  -20.8730 C   0  0  0  0  0  0
    5.8330    3.3960  -23.4250 C   0  0  0  0  0  0
   -4.6860    3.8300  -25.7420 C   0  0  0  0  0  0
    2.0400    3.8450  -23.6070 C   0  0  0  0  0  0
    1.1780    4.9300  -23.3380 C   0  0  0  0  0  0
    2.9120    6.1670  -22.5710 C   0  0  0  0  0  0
    3.4200    4.0700  -23.2310 C   0  0  0  0  0  0
    1.5530    2.7190  -24.2980 C   0  0  0  0  0  0
   -0.5980    3.4760  -24.2770 C   0  0  0  0  0  0
   -0.1300    4.7050  -23.6480 C   0  0  0  0  0  0
   -2.0330    3.4460  -24.6960 C   0  0  0  0  0  0
    4.0770    1.5870  -22.9280 C   0  0  0  0  0  0
    4.9690    1.2470  -21.7430 C   0  0  2  0  0  0
    6.5430    2.8330  -22.1990 C   0  0  2  0  0  0
    4.8730    2.2390  -20.5720 C   0  0  0  0  0  0
   -2.3000    3.6080  -26.1360 C   0  0  0  0  0  0
   -1.7300    2.8360  -21.7390 C   0  0  0  0  0  0
   -0.7140    2.5110  -21.1900 C   0  0  0  0  0  0
   -1.0140    5.7250  -23.3350 F   0  0  0  0  0  0
   -3.9880    3.0560  -20.3070 F   0  0  0  0  0  0
    1.6000    6.0970  -22.7780 N   0  0  0  0  0  0
    3.8420    5.2300  -22.7580 N   0  0  0  0  0  0
    0.2640    2.5980  -24.6620 N   0  0  0  0  0  0
    4.3720    3.0480  -23.3730 N   0  0  0  0  0  0
    6.3930    1.3550  -22.1620 N   0  0  1  0  0  0
   -3.7520    3.7770  -27.9560 O   0  0  0  0  0  0
   -6.2065    3.5632  -21.3981 H   0  0  0  0  0  0
   -6.5876    3.8886  -23.8064 H   0  0  0  0  0  0
    5.3714    4.2152  -20.9972 H   0  0  0  0  0  0
    6.6139    3.2642  -20.0696 H   0  0  0  0  0  0
    6.2799    2.9692  -24.3350 H   0  0  0  0  0  0
    5.9490    4.4897  -23.4452 H   0  0  0  0  0  0
   -5.6846    3.9916  -26.1314 H   0  0  0  0  0  0
    2.2254    1.9091  -24.5569 H   0  0  0  0  0  0
    3.0219    1.5012  -22.6291 H   0  0  0  0  0  0
    4.2950    0.8996  -23.7587 H   0  0  0  0  0  0
    4.7551    0.2271  -21.3909 H   0  0  0  0  0  0
    7.6052    3.1188  -22.1970 H   0  0  0  0  0  0
    3.8762    2.7041  -20.5690 H   0  0  0  0  0  0
    5.1454    1.7264  -19.6376 H   0  0  0  0  0  0
   -1.4968    3.6140  -26.8639 H   0  0  0  0  0  0
    0.1808    2.2261  -20.7071 H   0  0  0  0  0  0
    7.0216    0.8686  -21.4308 H   0  0  0  0  0  0
   -2.8871    3.7147  -28.3439 H   0  0  0  0  0  0
    5.9690    8.9480  -23.1120 O   0  0  0  0  0  0
    5.3590   11.8560  -21.5260 N   0  3  0  0  0  0
    3.4140    7.5170  -22.0710 C   0  0  0  0  0  0
    4.6660    7.4080  -21.1800 C   0  0  0  0  0  0
    5.2040    8.8090  -20.8460 C   0  0  0  0  0  0
    5.8670    9.4790  -22.0300 C   0  0  0  0  0  0
    6.4450   10.8550  -21.8010 C   0  0  0  0  0  0
    5.7693   12.7647  -21.3779 H   0  0  0  0  0  0
    4.7308   11.8960  -22.3133 H   0  0  0  0  0  0
    4.8476   11.5798  -20.7024 H   0  0  0  0  0  0
    3.6330    8.1670  -22.9310 H   0  0  0  0  0  0
    2.6115    8.0213  -21.5127 H   0  0  0  0  0  0
    5.4419    6.8341  -21.7079 H   0  0  0  0  0  0
    4.4079    6.8828  -20.2486 H   0  0  0  0  0  0
    5.9237    8.7350  -20.0174 H   0  0  0  0  0  0
    4.3796    9.4403  -20.4828 H   0  0  0  0  0  0
    7.1394   10.8230  -20.9485 H   0  0  0  0  0  0
    7.0128   11.1649  -22.6907 H   0  0  0  0  0  0
  1  2  2  0  0  0
  1  3  1  0  0  0
  1 34  1  0  0  0
  2  6  1  0  0  0
  2 35  1  0  0  0
  3  5  2  0  0  0
  3 27  1  0  0  0
  4  5  1  0  0  0
  4  6  2  0  0  0
  4 18  1  0  0  0
  5 24  1  0  0  0
  6 10  1  0  0  0
  7 10  2  0  0  0
  7 23  1  0  0  0
  7 33  1  0  0  0
  8 21  1  0  0  0
  8 22  1  0  0  0
  8 36  1  0  0  0
  8 37  1  0  0  0
  9 21  1  0  0  0
  9 31  1  0  0  0
  9 38  1  0  0  0
  9 39  1  0  0  0
 10 40  1  0  0  0
 11 12  1  0  0  0
 11 14  2  0  0  0
 11 15  1  0  0  0
 12 17  1  0  0  0
 12 28  2  0  0  0
 13 28  1  0  0  0
 13 29  2  0  0  0
 13 54  1  0  0  0
 14 29  1  0  0  0
 14 31  1  0  0  0
 15 30  2  0  0  0
 15 41  1  0  0  0
 16 17  2  0  0  0
 16 18  1  0  0  0
 16 30  1  0  0  0
 17 26  1  0  0  0
 18 23  2  0  0  0
 19 20  1  0  0  0
 19 31  1  0  0  0
 19 42  1  0  0  0
 19 43  1  0  0  0
 20 22  1  0  0  0
 20 32  1  0  0  0
 20 44  1  0  0  0
 21 32  1  0  0  0
 21 45  1  0  0  0
 22 46  1  0  0  0
 22 47  1  0  0  0
 23 48  1  0  0  0
 24 25  3  0  0  0
 25 49  1  0  0  0
 32 50  1  0  0  0
 33 51  1  0  0  0
 52 57  2  0  0  0
 53 58  1  0  0  0
 53 59  1  0  0  0
 53 60  1  0  0  0
 53 61  1  0  0  0
 54 55  1  0  0  0
 54 62  1  0  0  0
 54 63  1  0  0  0
 55 56  1  0  0  0
 55 64  1  0  0  0
 55 65  1  0  0  0
 56 57  1  0  0  0
 56 66  1  0  0  0
 56 67  1  0  0  0
 57 58  1  0  0  0
 58 68  1  0  0  0
 58 69  1  0  0  0
M  CHG  1  53   1
M  END
> <s_m_entry_id>
34

> <s_m_entry_name>
000000034.1

> <s_m_Source_Path>
/Users/zaksoul/Documents/2

> <s_m_Source_File>
000000034.mol2

> <i_m_Source_File_Index>
1

$$$$
No_0_35
                    3D
 Schrodinger Suite 2022-4.
 69 74  0  0  1  0            999 V2000
   -5.2920    3.5580  -21.8520 C   0  0  0  0  0  0
   -5.5360    3.7880  -23.1850 C   0  0  0  0  0  0
   -4.0570    3.3090  -21.4970 C   0  0  0  0  0  0
   -3.1280    3.5190  -23.6400 C   0  0  0  0  0  0
   -2.9900    3.2290  -22.2260 C   0  0  0  0  0  0
   -4.4700    3.7820  -24.1770 C   0  0  0  0  0  0
   -3.6750    3.8870  -26.3590 C   0  0  0  0  0  0
    5.9660    3.0960  -20.9410 C   0  0  0  0  0  0
    5.8710    3.3220  -23.4870 C   0  0  0  0  0  0
   -4.6980    3.9510  -25.5120 C   0  0  0  0  0  0
    2.0810    3.8240  -23.5560 C   0  0  0  0  0  0
    1.2410    4.9110  -23.2350 C   0  0  0  0  0  0
    3.0110    6.1060  -22.4830 C   0  0  0  0  0  0
    3.4730    4.0210  -23.2110 C   0  0  0  0  0  0
    1.5610    2.7230  -24.2640 C   0  0  0  0  0  0
   -0.5780    3.5060  -24.1660 C   0  0  0  0  0  0
   -0.0780    4.7120  -23.5170 C   0  0  0  0  0  0
   -2.0240    3.5060  -24.5470 C   0  0  0  0  0  0
    4.1050    1.5220  -22.9910 C   0  0  0  0  0  0
    5.0220    1.1400  -21.8400 C   0  0  2  0  0  0
    6.6050    2.7170  -22.2950 C   0  0  2  0  0  0
    4.9700    2.1010  -20.6410 C   0  0  0  0  0  0
   -2.3260    3.7090  -25.9750 C   0  0  0  0  0  0
   -1.6520    2.8120  -21.6170 C   0  0  0  0  0  0
   -0.6260    2.4600  -21.1040 C   0  0  0  0  0  0
   -0.9390    5.7340  -23.1540 F   0  0  0  0  0  0
   -3.8690    3.0230  -20.1200 F   0  0  0  0  0  0
    1.6930    6.0580  -22.6570 N   0  0  0  0  0  0
    3.9230    5.1620  -22.7180 N   0  0  0  0  0  0
    0.2620    2.6280  -24.5960 N   0  0  0  0  0  0
    4.4070    2.9910  -23.4060 N   0  0  0  0  0  0
    6.4370    1.2400  -22.2940 N   0  0  1  0  0  0
   -3.8230    3.9460  -27.7500 O   0  0  0  0  0  0
   -6.1077    3.5871  -21.1387 H   0  0  0  0  0  0
   -6.5469    3.9816  -23.5250 H   0  0  0  0  0  0
    5.4845    4.0813  -21.0268 H   0  0  0  0  0  0
    6.7382    3.0899  -20.1577 H   0  0  0  0  0  0
    6.2877    2.9133  -24.4194 H   0  0  0  0  0  0
    6.0012    4.4142  -23.4809 H   0  0  0  0  0  0
   -5.7043    4.1356  -25.8702 H   0  0  0  0  0  0
    2.2155    1.9119  -24.5621 H   0  0  0  0  0  0
    3.0569    1.4412  -22.6669 H   0  0  0  0  0  0
    4.2917    0.8551  -23.8456 H   0  0  0  0  0  0
    4.8050    0.1134  -21.5099 H   0  0  0  0  0  0
    7.6708    2.9885  -22.3132 H   0  0  0  0  0  0
    3.9799    2.5784  -20.5986 H   0  0  0  0  0  0
    5.2605    1.5603  -19.7281 H   0  0  0  0  0  0
   -1.5422    3.7251  -26.7237 H   0  0  0  0  0  0
    0.2770    2.1510  -20.6520 H   0  0  0  0  0  0
    7.0777    0.7266  -21.5923 H   0  0  0  0  0  0
   -2.9695    3.8827  -28.1624 H   0  0  0  0  0  0
    5.6550    9.1880  -23.4180 O   0  0  0  0  0  0
    5.3030   11.8490  -21.3840 N   0  3  0  0  0  0
    3.5440    7.4350  -21.9600 C   0  0  0  0  0  0
    4.9860    7.3460  -21.4290 C   0  0  0  0  0  0
    5.5090    8.7460  -21.0680 C   0  0  0  0  0  0
    5.8040    9.5920  -22.2870 C   0  0  0  0  0  0
    6.3390   10.9820  -22.0420 C   0  0  0  0  0  0
    5.6830   12.7700  -21.2310 H   0  0  0  0  0  0
    4.4920   11.9150  -21.9790 H   0  0  0  0  0  0
    5.0380   11.4439  -20.4998 H   0  0  0  0  0  0
    3.4960    8.1882  -22.7602 H   0  0  0  0  0  0
    2.8838    7.8051  -21.1618 H   0  0  0  0  0  0
    5.6329    6.9001  -22.1989 H   0  0  0  0  0  0
    5.0090    6.7052  -20.5352 H   0  0  0  0  0  0
    6.4205    8.6500  -20.4597 H   0  0  0  0  0  0
    4.7695    9.2603  -20.4366 H   0  0  0  0  0  0
    7.2294   10.9240  -21.3987 H   0  0  0  0  0  0
    6.6391   11.4331  -22.9993 H   0  0  0  0  0  0
  1  2  2  0  0  0
  1  3  1  0  0  0
  1 34  1  0  0  0
  2  6  1  0  0  0
  2 35  1  0  0  0
  3  5  2  0  0  0
  3 27  1  0  0  0
  4  5  1  0  0  0
  4  6  2  0  0  0
  4 18  1  0  0  0
  5 24  1  0  0  0
  6 10  1  0  0  0
  7 10  2  0  0  0
  7 23  1  0  0  0
  7 33  1  0  0  0
  8 21  1  0  0  0
  8 22  1  0  0  0
  8 36  1  0  0  0
  8 37  1  0  0  0
  9 21  1  0  0  0
  9 31  1  0  0  0
  9 38  1  0  0  0
  9 39  1  0  0  0
 10 40  1  0  0  0
 11 12  1  0  0  0
 11 14  2  0  0  0
 11 15  1  0  0  0
 12 17  1  0  0  0
 12 28  2  0  0  0
 13 28  1  0  0  0
 13 29  2  0  0  0
 13 54  1  0  0  0
 14 29  1  0  0  0
 14 31  1  0  0  0
 15 30  2  0  0  0
 15 41  1  0  0  0
 16 17  2  0  0  0
 16 18  1  0  0  0
 16 30  1  0  0  0
 17 26  1  0  0  0
 18 23  2  0  0  0
 19 20  1  0  0  0
 19 31  1  0  0  0
 19 42  1  0  0  0
 19 43  1  0  0  0
 20 22  1  0  0  0
 20 32  1  0  0  0
 20 44  1  0  0  0
 21 32  1  0  0  0
 21 45  1  0  0  0
 22 46  1  0  0  0
 22 47  1  0  0  0
 23 48  1  0  0  0
 24 25  3  0  0  0
 25 49  1  0  0  0
 32 50  1  0  0  0
 33 51  1  0  0  0
 52 57  2  0  0  0
 53 58  1  0  0  0
 53 59  1  0  0  0
 53 60  1  0  0  0
 53 61  1  0  0  0
 54 55  1  0  0  0
 54 62  1  0  0  0
 54 63  1  0  0  0
 55 56  1  0  0  0
 55 64  1  0  0  0
 55 65  1  0  0  0
 56 57  1  0  0  0
 56 66  1  0  0  0
 56 67  1  0  0  0
 57 58  1  0  0  0
 58 68  1  0  0  0
 58 69  1  0  0  0
M  CHG  1  53   1
M  END
> <s_m_entry_id>
35

> <s_m_entry_name>
000000035.1

> <s_m_Source_Path>
/Users/zaksoul/Documents/2

> <s_m_Source_File>
000000035.mol2

> <i_m_Source_File_Index>
1

$$$$
No_0_36
                    3D
 Schrodinger Suite 2022-4.
 69 74  0  0  1  0            999 V2000
   -5.2740    3.5900  -21.7790 C   0  0  0  0  0  0
   -5.5170    3.7820  -23.1180 C   0  0  0  0  0  0
   -4.0390    3.3570  -21.4150 C   0  0  0  0  0  0
   -3.1070    3.5120  -23.5620 C   0  0  0  0  0  0
   -2.9700    3.2620  -22.1400 C   0  0  0  0  0  0
   -4.4490    3.7540  -24.1080 C   0  0  0  0  0  0
   -3.6510    3.8030  -26.2910 C   0  0  0  0  0  0
    5.9840    3.2080  -20.8380 C   0  0  0  0  0  0
    5.8930    3.3640  -23.3890 C   0  0  0  0  0  0
   -4.6760    3.8860  -25.4470 C   0  0  0  0  0  0
    2.1010    3.8450  -23.4780 C   0  0  0  0  0  0
    1.2540    4.9370  -23.1880 C   0  0  0  0  0  0
    3.0170    6.1600  -22.4660 C   0  0  0  0  0  0
    3.4910    4.0580  -23.1360 C   0  0  0  0  0  0
    1.5870    2.7220  -24.1560 C   0  0  0  0  0  0
   -0.5560    3.4970  -24.0830 C   0  0  0  0  0  0
   -0.0630    4.7230  -23.4670 C   0  0  0  0  0  0
   -2.0010    3.4800  -24.4660 C   0  0  0  0  0  0
    4.1350    1.5700  -22.8470 C   0  0  0  0  0  0
    5.0520    1.2230  -21.6840 C   0  0  2  0  0  0
    6.6280    2.7950  -22.1800 C   0  0  2  0  0  0
    4.9930    2.2170  -20.5110 C   0  0  0  0  0  0
   -2.3010    3.6430  -25.8990 C   0  0  0  0  0  0
   -1.6310    2.8690  -21.5170 C   0  0  0  0  0  0
   -0.6040    2.5360  -20.9930 C   0  0  0  0  0  0
   -0.9300    5.7510  -23.1330 F   0  0  0  0  0  0
   -3.8510    3.1090  -20.0310 F   0  0  0  0  0  0
    1.7000    6.1010  -22.6410 N   0  0  0  0  0  0
    3.9350    5.2150  -22.6740 N   0  0  0  0  0  0
    0.2890    2.6120  -24.4880 N   0  0  0  0  0  0
    4.4310    3.0280  -23.3010 N   0  0  0  0  0  0
    6.4660    1.3180  -22.1380 N   0  0  1  0  0  0
   -3.7960    3.8240  -27.6830 O   0  0  0  0  0  0
   -6.0912    3.6342  -21.0682 H   0  0  0  0  0  0
   -6.5281    3.9616  -23.4651 H   0  0  0  0  0  0
    5.4983    4.1885  -20.9511 H   0  0  0  0  0  0
    6.7546    3.2272  -20.0533 H   0  0  0  0  0  0
    6.3140    2.9319  -24.3088 H   0  0  0  0  0  0
    6.0172    4.4567  -23.4122 H   0  0  0  0  0  0
   -5.6826    4.0546  -25.8123 H   0  0  0  0  0  0
    2.2467    1.9067  -24.4301 H   0  0  0  0  0  0
    3.0869    1.4923  -22.5222 H   0  0  0  0  0  0
    4.3258    0.8796  -23.6818 H   0  0  0  0  0  0
    4.8391    0.2050  -21.3258 H   0  0  0  0  0  0
    7.6924    3.0717  -22.2042 H   0  0  0  0  0  0
    4.0005    2.6905  -20.4847 H   0  0  0  0  0  0
    5.2846    1.7023  -19.5836 H   0  0  0  0  0  0
   -1.5166    3.6410  -26.6472 H   0  0  0  0  0  0
    0.2995    2.2428  -20.5317 H   0  0  0  0  0  0
    7.1084    0.8274  -21.4218 H   0  0  0  0  0  0
   -2.9419    3.7527  -28.0927 H   0  0  0  0  0  0
    5.1120    9.5310  -23.7370 O   0  0  0  0  0  0
    5.0130   12.0340  -21.4870 N   0  3  0  0  0  0
    3.5430    7.5060  -21.9790 C   0  0  0  0  0  0
    5.0710    7.5300  -21.7900 C   0  0  0  0  0  0
    5.5440    8.9530  -21.4530 C   0  0  0  0  0  0
    5.4810    9.8870  -22.6420 C   0  0  0  0  0  0
    5.9400   11.3080  -22.4200 C   0  0  0  0  0  0
    5.3401   12.9783  -21.3550 H   0  0  0  0  0  0
    4.0850   12.0520  -21.8800 H   0  0  0  0  0  0
    4.9910   11.5591  -20.5982 H   0  0  0  0  0  0
    3.2510    8.2920  -22.6910 H   0  0  0  0  0  0
    3.0539    7.7670  -21.0289 H   0  0  0  0  0  0
    5.5597    7.1912  -22.7154 H   0  0  0  0  0  0
    5.3499    6.8481  -20.9732 H   0  0  0  0  0  0
    6.5752    8.9150  -21.0719 H   0  0  0  0  0  0
    4.9280    9.3590  -20.6370 H   0  0  0  0  0  0
    6.9557   11.3040  -21.9977 H   0  0  0  0  0  0
    5.9750   11.8362  -23.3843 H   0  0  0  0  0  0
  1  2  2  0  0  0
  1  3  1  0  0  0
  1 34  1  0  0  0
  2  6  1  0  0  0
  2 35  1  0  0  0
  3  5  2  0  0  0
  3 27  1  0  0  0
  4  5  1  0  0  0
  4  6  2  0  0  0
  4 18  1  0  0  0
  5 24  1  0  0  0
  6 10  1  0  0  0
  7 10  2  0  0  0
  7 23  1  0  0  0
  7 33  1  0  0  0
  8 21  1  0  0  0
  8 22  1  0  0  0
  8 36  1  0  0  0
  8 37  1  0  0  0
  9 21  1  0  0  0
  9 31  1  0  0  0
  9 38  1  0  0  0
  9 39  1  0  0  0
 10 40  1  0  0  0
 11 12  1  0  0  0
 11 14  2  0  0  0
 11 15  1  0  0  0
 12 17  1  0  0  0
 12 28  2  0  0  0
 13 28  1  0  0  0
 13 29  2  0  0  0
 13 54  1  0  0  0
 14 29  1  0  0  0
 14 31  1  0  0  0
 15 30  2  0  0  0
 15 41  1  0  0  0
 16 17  2  0  0  0
 16 18  1  0  0  0
 16 30  1  0  0  0
 17 26  1  0  0  0
 18 23  2  0  0  0
 19 20  1  0  0  0
 19 31  1  0  0  0
 19 42  1  0  0  0
 19 43  1  0  0  0
 20 22  1  0  0  0
 20 32  1  0  0  0
 20 44  1  0  0  0
 21 32  1  0  0  0
 21 45  1  0  0  0
 22 46  1  0  0  0
 22 47  1  0  0  0
 23 48  1  0  0  0
 24 25  3  0  0  0
 25 49  1  0  0  0
 32 50  1  0  0  0
 33 51  1  0  0  0
 52 57  2  0  0  0
 53 58  1  0  0  0
 53 59  1  0  0  0
 53 60  1  0  0  0
 53 61  1  0  0  0
 54 55  1  0  0  0
 54 62  1  0  0  0
 54 63  1  0  0  0
 55 56  1  0  0  0
 55 64  1  0  0  0
 55 65  1  0  0  0
 56 57  1  0  0  0
 56 66  1  0  0  0
 56 67  1  0  0  0
 57 58  1  0  0  0
 58 68  1  0  0  0
 58 69  1  0  0  0
M  CHG  1  53   1
M  END
> <s_m_entry_id>
36

> <s_m_entry_name>
000000036.1

> <s_m_Source_Path>
/Users/zaksoul/Documents/2

> <s_m_Source_File>
000000036.mol2

> <i_m_Source_File_Index>
1

$$$$
No_0_37
                    3D
 Schrodinger Suite 2022-4.
 69 74  0  0  1  0            999 V2000
   -5.2510    3.5240  -21.8110 C   0  0  0  0  0  0
   -5.5100    3.7460  -23.1430 C   0  0  0  0  0  0
   -4.0120    3.2740  -21.4690 C   0  0  0  0  0  0
   -3.1080    3.4660  -23.6240 C   0  0  0  0  0  0
   -2.9540    3.1850  -22.2090 C   0  0  0  0  0  0
   -4.4540    3.7300  -24.1470 C   0  0  0  0  0  0
   -3.6850    3.8170  -26.3390 C   0  0  0  0  0  0
    6.0160    3.0340  -21.0280 C   0  0  0  0  0  0
    5.8920    3.2430  -23.5740 C   0  0  0  0  0  0
   -4.6980    3.8900  -25.4800 C   0  0  0  0  0  0
    2.1030    3.7560  -23.6030 C   0  0  0  0  0  0
    1.2690    4.8480  -23.2800 C   0  0  0  0  0  0
    3.0520    6.0420  -22.5560 C   0  0  0  0  0  0
    3.4990    3.9510  -23.2750 C   0  0  0  0  0  0
    1.5720    2.6510  -24.2970 C   0  0  0  0  0  0
   -0.5640    3.4410  -24.1790 C   0  0  0  0  0  0
   -0.0530    4.6500  -23.5450 C   0  0  0  0  0  0
   -2.0150    3.4430  -24.5430 C   0  0  0  0  0  0
    4.1270    1.4520  -23.0450 C   0  0  0  0  0  0
    5.0560    1.0750  -21.9020 C   0  0  2  0  0  0
    6.6380    2.6440  -22.3870 C   0  0  2  0  0  0
    5.0210    2.0440  -20.7090 C   0  0  0  0  0  0
   -2.3320    3.6380  -25.9690 C   0  0  0  0  0  0
   -1.6100    2.7690  -21.6130 C   0  0  0  0  0  0
   -0.5790    2.4170  -21.1100 C   0  0  0  0  0  0
   -0.9070    5.6780  -23.1780 F   0  0  0  0  0  0
   -3.8090    2.9960  -20.0920 F   0  0  0  0  0  0
    1.7320    5.9970  -22.7140 N   0  0  0  0  0  0
    3.9590    5.0940  -22.7960 N   0  0  0  0  0  0
    0.2680    2.5580  -24.6130 N   0  0  0  0  0  0
    4.4290    2.9170  -23.4740 N   0  0  0  0  0  0
    6.4650    1.1680  -22.3730 N   0  0  1  0  0  0
   -3.8490    3.8670  -27.7290 O   0  0  0  0  0  0
   -6.0581    3.5601  -21.0882 H   0  0  0  0  0  0
   -6.5241    3.9398  -23.4733 H   0  0  0  0  0  0
    5.5365    4.0202  -21.1148 H   0  0  0  0  0  0
    6.7973    3.0310  -20.2537 H   0  0  0  0  0  0
    6.2976    2.8273  -24.5082 H   0  0  0  0  0  0
    6.0252    4.3349  -23.5770 H   0  0  0  0  0  0
   -5.7078    4.0747  -25.8283 H   0  0  0  0  0  0
    2.2207    1.8357  -24.5962 H   0  0  0  0  0  0
    3.0823    1.3763  -22.7089 H   0  0  0  0  0  0
    4.3016    0.7780  -23.8966 H   0  0  0  0  0  0
    4.8391    0.0512  -21.5631 H   0  0  0  0  0  0
    7.7042    2.9126  -22.4193 H   0  0  0  0  0  0
    4.0327    2.5245  -20.6595 H   0  0  0  0  0  0
    5.3207    1.5091  -19.7957 H   0  0  0  0  0  0
   -1.5570    3.6450  -26.7269 H   0  0  0  0  0  0
    0.3279    2.1080  -20.6660 H   0  0  0  0  0  0
    7.1131    0.6579  -21.6757 H   0  0  0  0  0  0
   -3.0006    3.7977  -28.1507 H   0  0  0  0  0  0
    4.5560    9.7000  -23.8710 O   0  0  0  0  0  0
    4.8530   11.9420  -21.3760 N   0  3  0  0  0  0
    3.5950    7.3730  -22.0490 C   0  0  0  0  0  0
    5.1180    7.5160  -22.2240 C   0  0  0  0  0  0
    5.5680    8.9340  -21.8390 C   0  0  0  0  0  0
    5.1590    9.9750  -22.8590 C   0  0  0  0  0  0
    5.5670   11.4010  -22.5820 C   0  0  0  0  0  0
    5.1420   12.8938  -21.2130 H   0  0  0  0  0  0
    3.8580   11.9160  -21.5350 H   0  0  0  0  0  0
    5.0791   11.3797  -20.5706 H   0  0  0  0  0  0
    3.0890    8.1979  -22.5720 H   0  0  0  0  0  0
    3.3371    7.4920  -20.9863 H   0  0  0  0  0  0
    5.3861    7.3179  -23.2723 H   0  0  0  0  0  0
    5.6310    6.7830  -21.5840 H   0  0  0  0  0  0
    6.6613    8.9510  -21.7190 H   0  0  0  0  0  0
    5.1460    9.1980  -20.8581 H   0  0  0  0  0  0
    6.6533   11.4450  -22.4149 H   0  0  0  0  0  0
    5.3330   12.0251  -23.4571 H   0  0  0  0  0  0
  1  2  2  0  0  0
  1  3  1  0  0  0
  1 34  1  0  0  0
  2  6  1  0  0  0
  2 35  1  0  0  0
  3  5  2  0  0  0
  3 27  1  0  0  0
  4  5  1  0  0  0
  4  6  2  0  0  0
  4 18  1  0  0  0
  5 24  1  0  0  0
  6 10  1  0  0  0
  7 10  2  0  0  0
  7 23  1  0  0  0
  7 33  1  0  0  0
  8 21  1  0  0  0
  8 22  1  0  0  0
  8 36  1  0  0  0
  8 37  1  0  0  0
  9 21  1  0  0  0
  9 31  1  0  0  0
  9 38  1  0  0  0
  9 39  1  0  0  0
 10 40  1  0  0  0
 11 12  1  0  0  0
 11 14  2  0  0  0
 11 15  1  0  0  0
 12 17  1  0  0  0
 12 28  2  0  0  0
 13 28  1  0  0  0
 13 29  2  0  0  0
 13 54  1  0  0  0
 14 29  1  0  0  0
 14 31  1  0  0  0
 15 30  2  0  0  0
 15 41  1  0  0  0
 16 17  2  0  0  0
 16 18  1  0  0  0
 16 30  1  0  0  0
 17 26  1  0  0  0
 18 23  2  0  0  0
 19 20  1  0  0  0
 19 31  1  0  0  0
 19 42  1  0  0  0
 19 43  1  0  0  0
 20 22  1  0  0  0
 20 32  1  0  0  0
 20 44  1  0  0  0
 21 32  1  0  0  0
 21 45  1  0  0  0
 22 46  1  0  0  0
 22 47  1  0  0  0
 23 48  1  0  0  0
 24 25  3  0  0  0
 25 49  1  0  0  0
 32 50  1  0  0  0
 33 51  1  0  0  0
 52 57  2  0  0  0
 53 58  1  0  0  0
 53 59  1  0  0  0
 53 60  1  0  0  0
 53 61  1  0  0  0
 54 55  1  0  0  0
 54 62  1  0  0  0
 54 63  1  0  0  0
 55 56  1  0  0  0
 55 64  1  0  0  0
 55 65  1  0  0  0
 56 57  1  0  0  0
 56 66  1  0  0  0
 56 67  1  0  0  0
 57 58  1  0  0  0
 58 68  1  0  0  0
 58 69  1  0  0  0
M  CHG  1  53   1
M  END
> <s_m_entry_id>
37

> <s_m_entry_name>
000000037.1

> <s_m_Source_Path>
/Users/zaksoul/Documents/2

> <s_m_Source_File>
000000037.mol2

> <i_m_Source_File_Index>
1

$$$$
No_0_38
                    3D
 Schrodinger Suite 2022-4.
 69 74  0  0  1  0            999 V2000
   -5.4060    3.1050  -21.8500 C   0  0  0  0  0  0
   -5.6490    3.3370  -23.1830 C   0  0  0  0  0  0
   -4.1670    2.8850  -21.4900 C   0  0  0  0  0  0
   -3.2330    3.1310  -23.6270 C   0  0  0  0  0  0
   -3.0950    2.8360  -22.2140 C   0  0  0  0  0  0
   -4.5770    3.3630  -24.1690 C   0  0  0  0  0  0
   -3.7750    3.5000  -26.3460 C   0  0  0  0  0  0
    5.8550    2.9220  -20.8830 C   0  0  0  0  0  0
    5.7680    3.1600  -23.4280 C   0  0  0  0  0  0
   -4.8040    3.5340  -25.5040 C   0  0  0  0  0  0
    1.9670    3.5660  -23.5140 C   0  0  0  0  0  0
    1.0970    4.6310  -23.1920 C   0  0  0  0  0  0
    2.8330    5.8650  -22.4230 C   0  0  0  0  0  0
    3.3510    3.7970  -23.1610 C   0  0  0  0  0  0
    1.4780    2.4570  -24.2310 C   0  0  0  0  0  0
   -0.6800    3.1850  -24.1400 C   0  0  0  0  0  0
   -0.2140    4.3990  -23.4810 C   0  0  0  0  0  0
   -2.1240    3.1510  -24.5280 C   0  0  0  0  0  0
    4.0460    1.3140  -22.9510 C   0  0  0  0  0  0
    4.9660    0.9480  -21.7980 C   0  0  2  0  0  0
    6.5110    2.5670  -22.2360 C   0  0  2  0  0  0
    4.8840    1.9010  -20.5930 C   0  0  0  0  0  0
   -2.4240    3.3540  -25.9560 C   0  0  0  0  0  0
   -1.7490    2.4500  -21.6000 C   0  0  0  0  0  0
   -0.7170    2.1210  -21.0830 C   0  0  0  0  0  0
   -1.1030    5.3980  -23.1170 F   0  0  0  0  0  0
   -3.9780    2.5960  -20.1130 F   0  0  0  0  0  0
    1.5180    5.7850  -22.6040 N   0  0  0  0  0  0
    3.7700    4.9460  -22.6590 N   0  0  0  0  0  0
    0.1840    2.3310  -24.5700 N   0  0  0  0  0  0
    4.3130    2.7920  -23.3560 N   0  0  0  0  0  0
    6.3800    1.0870  -22.2430 N   0  0  1  0  0  0
   -3.9170    3.5640  -27.7380 O   0  0  0  0  0  0
   -6.2257    3.1100  -21.1407 H   0  0  0  0  0  0
   -6.6628    3.5066  -23.5273 H   0  0  0  0  0  0
    5.3492    3.8953  -20.9658 H   0  0  0  0  0  0
    6.6231    2.9311  -20.0957 H   0  0  0  0  0  0
    6.1999    2.7675  -24.3604 H   0  0  0  0  0  0
    5.8699    4.2552  -23.4149 H   0  0  0  0  0  0
   -5.8126    3.6946  -25.8673 H   0  0  0  0  0  0
    2.1544    1.6641  -24.5291 H   0  0  0  0  0  0
    2.9986    1.2050  -22.6331 H   0  0  0  0  0  0
    4.2527    0.6564  -23.8082 H   0  0  0  0  0  0
    4.7732   -0.0854  -21.4741 H   0  0  0  0  0  0
    7.5696    2.8657  -22.2471 H   0  0  0  0  0  0
    3.8816    2.3522  -20.5536 H   0  0  0  0  0  0
    5.1827    1.3621  -19.6817 H   0  0  0  0  0  0
   -1.6372    3.3941  -26.7006 H   0  0  0  0  0  0
    0.1914    1.8319  -20.6288 H   0  0  0  0  0  0
    7.0302    0.5855  -21.5415 H   0  0  0  0  0  0
   -3.0603    3.5244  -28.1466 H   0  0  0  0  0  0
    3.4990    9.8190  -23.5620 O   0  0  0  0  0  0
    4.1740   11.8180  -20.9380 N   0  3  0  0  0  0
    3.3300    7.2040  -21.8900 C   0  0  0  0  0  0
    4.7260    7.5880  -22.4150 C   0  0  0  0  0  0
    5.0910    9.0120  -21.9650 C   0  0  0  0  0  0
    4.3090   10.0770  -22.7020 C   0  0  0  0  0  0
    4.6050   11.5130  -22.3440 C   0  0  0  0  0  0
    4.3819   12.7806  -20.7231 H   0  0  0  0  0  0
    3.1824   11.6611  -20.8480 H   0  0  0  0  0  0
    4.6680   11.2170  -20.2970 H   0  0  0  0  0  0
    2.6111    7.9929  -22.1560 H   0  0  0  0  0  0
    3.3480    7.1760  -20.7905 H   0  0  0  0  0  0
    4.7310    7.5380  -23.5139 H   0  0  0  0  0  0
    5.4706    6.8784  -22.0252 H   0  0  0  0  0  0
    6.1679    9.1780  -22.1160 H   0  0  0  0  0  0
    4.9140    9.1100  -20.8838 H   0  0  0  0  0  0
    5.6841   11.7010  -22.4450 H   0  0  0  0  0  0
    4.0780   12.1800  -23.0421 H   0  0  0  0  0  0
  1  2  2  0  0  0
  1  3  1  0  0  0
  1 34  1  0  0  0
  2  6  1  0  0  0
  2 35  1  0  0  0
  3  5  2  0  0  0
  3 27  1  0  0  0
  4  5  1  0  0  0
  4  6  2  0  0  0
  4 18  1  0  0  0
  5 24  1  0  0  0
  6 10  1  0  0  0
  7 10  2  0  0  0
  7 23  1  0  0  0
  7 33  1  0  0  0
  8 21  1  0  0  0
  8 22  1  0  0  0
  8 36  1  0  0  0
  8 37  1  0  0  0
  9 21  1  0  0  0
  9 31  1  0  0  0
  9 38  1  0  0  0
  9 39  1  0  0  0
 10 40  1  0  0  0
 11 12  1  0  0  0
 11 14  2  0  0  0
 11 15  1  0  0  0
 12 17  1  0  0  0
 12 28  2  0  0  0
 13 28  1  0  0  0
 13 29  2  0  0  0
 13 54  1  0  0  0
 14 29  1  0  0  0
 14 31  1  0  0  0
 15 30  2  0  0  0
 15 41  1  0  0  0
 16 17  2  0  0  0
 16 18  1  0  0  0
 16 30  1  0  0  0
 17 26  1  0  0  0
 18 23  2  0  0  0
 19 20  1  0  0  0
 19 31  1  0  0  0
 19 42  1  0  0  0
 19 43  1  0  0  0
 20 22  1  0  0  0
 20 32  1  0  0  0
 20 44  1  0  0  0
 21 32  1  0  0  0
 21 45  1  0  0  0
 22 46  1  0  0  0
 22 47  1  0  0  0
 23 48  1  0  0  0
 24 25  3  0  0  0
 25 49  1  0  0  0
 32 50  1  0  0  0
 33 51  1  0  0  0
 52 57  2  0  0  0
 53 58  1  0  0  0
 53 59  1  0  0  0
 53 60  1  0  0  0
 53 61  1  0  0  0
 54 55  1  0  0  0
 54 62  1  0  0  0
 54 63  1  0  0  0
 55 56  1  0  0  0
 55 64  1  0  0  0
 55 65  1  0  0  0
 56 57  1  0  0  0
 56 66  1  0  0  0
 56 67  1  0  0  0
 57 58  1  0  0  0
 58 68  1  0  0  0
 58 69  1  0  0  0
M  CHG  1  53   1
M  END
> <s_m_entry_id>
38

> <s_m_entry_name>
000000038.1

> <s_m_Source_Path>
/Users/zaksoul/Documents/2

> <s_m_Source_File>
000000038.mol2

> <i_m_Source_File_Index>
1

$$$$
No_0_39
                    3D
 Schrodinger Suite 2022-4.
 72 78  0  0  1  0            999 V2000
   -5.2990    3.4420  -22.2160 C   0  0  0  0  0  0
   -5.5810    3.5940  -23.5530 C   0  0  0  0  0  0
   -4.0480    3.2550  -21.8790 C   0  0  0  0  0  0
   -3.1760    3.3850  -24.0520 C   0  0  0  0  0  0
   -2.9960    3.1740  -22.6280 C   0  0  0  0  0  0
   -4.5380    3.5730  -24.5690 C   0  0  0  0  0  0
   -3.7970    3.5910  -26.7720 C   0  0  0  0  0  0
    5.9860    3.4190  -21.5570 C   0  0  0  0  0  0
    5.8260    3.5090  -24.1080 C   0  0  0  0  0  0
   -4.8020    3.6640  -25.9040 C   0  0  0  0  0  0
    2.0200    3.8740  -24.1100 C   0  0  0  0  0  0
    1.1480    4.9470  -23.8250 C   0  0  0  0  0  0
    2.8900    6.2400  -23.1780 C   0  0  0  0  0  0
    3.4110    4.1370  -23.8100 C   0  0  0  0  0  0
    1.5240    2.7200  -24.7480 C   0  0  0  0  0  0
   -0.6390    3.4330  -24.6380 C   0  0  0  0  0  0
   -0.1690    4.6870  -24.0640 C   0  0  0  0  0  0
   -2.0930    3.3630  -24.9830 C   0  0  0  0  0  0
    4.1370    1.6770  -23.4780 C   0  0  0  0  0  0
    5.0930    1.3870  -22.3310 C   0  0  2  0  0  0
    6.6080    2.9920  -22.9050 C   0  0  2  0  0  0
    5.0340    2.4070  -21.1820 C   0  0  0  0  0  0
   -2.4340    3.4810  -26.4120 C   0  0  0  0  0  0
   -1.6300    2.8360  -22.0310 C   0  0  0  0  0  0
   -0.5810    2.5470  -21.5260 C   0  0  0  0  0  0
   -1.0580    5.6970  -23.7330 F   0  0  0  0  0  0
   -3.8190    3.0470  -20.4940 F   0  0  0  0  0  0
    1.5720    6.1370  -23.3170 N   0  0  0  0  0  0
    3.8310    5.3170  -23.3870 N   0  0  0  0  0  0
    0.2220    2.5630  -25.0430 N   0  0  0  0  0  0
    4.3770    3.1320  -23.9740 N   0  0  0  0  0  0
    6.4930    1.5130  -22.8240 N   0  0  1  0  0  0
   -3.9780    3.5730  -28.1600 O   0  0  0  0  0  0
   -6.0989    3.4791  -21.4854 H   0  0  0  0  0  0
   -6.6056    3.7335  -23.8782 H   0  0  0  0  0  0
    5.4672    4.3810  -21.6812 H   0  0  0  0  0  0
    6.7751    3.4806  -20.7931 H   0  0  0  0  0  0
    6.2365    3.0672  -25.0279 H   0  0  0  0  0  0
    5.9168    4.6040  -24.1605 H   0  0  0  0  0  0
   -5.8220    3.7944  -26.2470 H   0  0  0  0  0  0
    2.2006    1.9179  -25.0200 H   0  0  0  0  0  0
    3.1001    1.5770  -23.1246 H   0  0  0  0  0  0
    4.3278    0.9723  -24.3008 H   0  0  0  0  0  0
    4.9205    0.3720  -21.9436 H   0  0  0  0  0  0
    7.6624    3.2998  -22.9635 H   0  0  0  0  0  0
    4.0284    2.8508  -21.1406 H   0  0  0  0  0  0
    5.3638    1.9248  -20.2499 H   0  0  0  0  0  0
   -1.6680    3.4840  -27.1790 H   0  0  0  0  0  0
    0.3425    2.2931  -21.0812 H   0  0  0  0  0  0
    7.1677    1.0596  -22.1129 H   0  0  0  0  0  0
   -3.1323    3.5176  -28.5893 H   0  0  0  0  0  0
    7.0730    9.3870  -22.9730 O   0  0  0  0  0  0
    8.2220    7.2570  -20.4450 N   0  3  0  0  0  0
    6.4050    8.4710  -20.9860 N   0  0  0  0  0  0
    4.2120    7.5310  -21.4390 C   0  0  0  0  0  0
    8.6320    8.1940  -21.5460 C   0  0  0  0  0  0
    4.9890    8.8280  -21.1400 C   0  0  0  0  0  0
    3.3870    7.6120  -22.7370 C   0  0  0  0  0  0
    6.9430    7.7480  -19.8290 C   0  0  0  0  0  0
    7.2960    8.7690  -21.9420 C   0  0  0  0  0  0
    8.9444    7.2280  -19.7426 H   0  0  0  0  0  0
    8.0791    6.3343  -20.8249 H   0  0  0  0  0  0
    3.5444    7.3018  -20.5953 H   0  0  0  0  0  0
    4.9185    6.6906  -21.5070 H   0  0  0  0  0  0
    9.0348    7.6083  -22.3855 H   0  0  0  0  0  0
    9.2580    8.9940  -21.1240 H   0  0  0  0  0  0
    4.8760    9.5247  -21.9837 H   0  0  0  0  0  0
    4.6180    9.2690  -20.2030 H   0  0  0  0  0  0
    4.0033    8.0515  -23.5351 H   0  0  0  0  0  0
    2.5277    8.2812  -22.5829 H   0  0  0  0  0  0
    7.1840    8.4721  -19.0368 H   0  0  0  0  0  0
    6.2958    6.8847  -19.6149 H   0  0  0  0  0  0
  1  2  2  0  0  0
  1  3  1  0  0  0
  1 34  1  0  0  0
  2  6  1  0  0  0
  2 35  1  0  0  0
  3  5  2  0  0  0
  3 27  1  0  0  0
  4  5  1  0  0  0
  4  6  2  0  0  0
  4 18  1  0  0  0
  5 24  1  0  0  0
  6 10  1  0  0  0
  7 10  2  0  0  0
  7 23  1  0  0  0
  7 33  1  0  0  0
  8 21  1  0  0  0
  8 22  1  0  0  0
  8 36  1  0  0  0
  8 37  1  0  0  0
  9 21  1  0  0  0
  9 31  1  0  0  0
  9 38  1  0  0  0
  9 39  1  0  0  0
 10 40  1  0  0  0
 11 12  1  0  0  0
 11 14  2  0  0  0
 11 15  1  0  0  0
 12 17  1  0  0  0
 12 28  2  0  0  0
 13 28  1  0  0  0
 13 29  2  0  0  0
 13 58  1  0  0  0
 14 29  1  0  0  0
 14 31  1  0  0  0
 15 30  2  0  0  0
 15 41  1  0  0  0
 16 17  2  0  0  0
 16 18  1  0  0  0
 16 30  1  0  0  0
 17 26  1  0  0  0
 18 23  2  0  0  0
 19 20  1  0  0  0
 19 31  1  0  0  0
 19 42  1  0  0  0
 19 43  1  0  0  0
 20 22  1  0  0  0
 20 32  1  0  0  0
 20 44  1  0  0  0
 21 32  1  0  0  0
 21 45  1  0  0  0
 22 46  1  0  0  0
 22 47  1  0  0  0
 23 48  1  0  0  0
 24 25  3  0  0  0
 25 49  1  0  0  0
 32 50  1  0  0  0
 33 51  1  0  0  0
 52 60  2  0  0  0
 53 56  1  0  0  0
 53 59  1  0  0  0
 53 61  1  0  0  0
 53 62  1  0  0  0
 54 57  1  0  0  0
 54 59  1  0  0  0
 54 60  1  0  0  0
 55 57  1  0  0  0
 55 58  1  0  0  0
 55 63  1  0  0  0
 55 64  1  0  0  0
 56 60  1  0  0  0
 56 65  1  0  0  0
 56 66  1  0  0  0
 57 67  1  0  0  0
 57 68  1  0  0  0
 58 69  1  0  0  0
 58 70  1  0  0  0
 59 71  1  0  0  0
 59 72  1  0  0  0
M  CHG  1  53   1
M  END
> <s_m_entry_id>
39

> <s_m_entry_name>
000000039.1

> <s_m_Source_Path>
/Users/zaksoul/Documents/2

> <s_m_Source_File>
000000039.mol2

> <i_m_Source_File_Index>
1

$$$$
No_0_40
                    3D
 Schrodinger Suite 2022-4.
 72 78  0  0  1  0            999 V2000
   -5.1820    3.3680  -22.2740 C   0  0  0  0  0  0
   -5.4160    3.5370  -23.6180 C   0  0  0  0  0  0
   -3.9450    3.1720  -21.8940 C   0  0  0  0  0  0
   -2.9950    3.3230  -24.0330 C   0  0  0  0  0  0
   -2.8670    3.0960  -22.6060 C   0  0  0  0  0  0
   -4.3360    3.5230  -24.5960 C   0  0  0  0  0  0
   -3.5170    3.5640  -26.7710 C   0  0  0  0  0  0
    6.0710    3.2920  -21.2110 C   0  0  0  0  0  0
    6.0040    3.4120  -23.7640 C   0  0  0  0  0  0
   -4.5530    3.6310  -25.9390 C   0  0  0  0  0  0
    2.2010    3.7920  -23.8990 C   0  0  0  0  0  0
    1.3240    4.8660  -23.6340 C   0  0  0  0  0  0
    3.0460    6.1440  -22.9100 C   0  0  0  0  0  0
    3.5820    4.0470  -23.5460 C   0  0  0  0  0  0
    1.7240    2.6480  -24.5680 C   0  0  0  0  0  0
   -0.4390    3.3680  -24.5270 C   0  0  0  0  0  0
    0.0160    4.6140  -23.9220 C   0  0  0  0  0  0
   -1.8790    3.3080  -24.9250 C   0  0  0  0  0  0
    4.2870    1.5800  -23.2160 C   0  0  0  0  0  0
    5.2000    1.2730  -22.0400 C   0  0  2  0  0  0
    6.7390    2.8790  -22.5400 C   0  0  2  0  0  0
    5.1030    2.2800  -20.8810 C   0  0  0  0  0  0
   -2.1680    3.4440  -26.3630 C   0  0  0  0  0  0
   -1.5250    2.7460  -21.9650 C   0  0  0  0  0  0
   -0.4950    2.4470  -21.4260 C   0  0  0  0  0  0
   -0.8810    5.6230  -23.6110 F   0  0  0  0  0  0
   -3.7660    2.9480  -20.5040 F   0  0  0  0  0  0
    1.7330    6.0480  -23.0970 N   0  0  0  0  0  0
    3.9900    5.2200  -23.0950 N   0  0  0  0  0  0
    0.4330    2.4990  -24.9110 N   0  0  0  0  0  0
    4.5500    3.0390  -23.6870 N   0  0  0  0  0  0
    6.6160    1.3990  -22.4800 N   0  0  1  0  0  0
   -3.6480    3.5620  -28.1650 O   0  0  0  0  0  0
   -6.0078    3.4011  -21.5726 H   0  0  0  0  0  0
   -6.4277    3.6845  -23.9783 H   0  0  0  0  0  0
    5.5613    4.2579  -21.3422 H   0  0  0  0  0  0
    6.8327    3.3424  -20.4190 H   0  0  0  0  0  0
    6.4449    2.9792  -24.6741 H   0  0  0  0  0  0
    6.0999    4.5072  -23.8013 H   0  0  0  0  0  0
   -5.5595    3.7685  -26.3173 H   0  0  0  0  0  0
    2.4073    1.8463  -24.8239 H   0  0  0  0  0  0
    3.2375    1.4801  -22.9022 H   0  0  0  0  0  0
    4.5039    0.8848  -24.0404 H   0  0  0  0  0  0
    5.0092    0.2546  -21.6706 H   0  0  0  0  0  0
    7.7964    3.1817  -22.5572 H   0  0  0  0  0  0
    4.0980    2.7270  -20.8709 H   0  0  0  0  0  0
    5.3976    1.7856  -19.9436 H   0  0  0  0  0  0
   -1.3759    3.4530  -27.1029 H   0  0  0  0  0  0
    0.4108    2.1841  -20.9511 H   0  0  0  0  0  0
    7.2628    0.9339  -21.7508 H   0  0  0  0  0  0
   -2.7879    3.5086  -28.5649 H   0  0  0  0  0  0
    7.0400    9.5310  -23.0690 O   0  0  0  0  0  0
    8.6730    7.2980  -20.9270 N   0  3  0  0  0  0
    6.7330    8.4300  -21.0880 N   0  0  0  0  0  0
    4.5500    7.3850  -21.2860 C   0  0  0  0  0  0
    8.8590    8.3390  -21.9950 C   0  0  0  0  0  0
    5.2940    8.7050  -20.9990 C   0  0  0  0  0  0
    3.5320    7.5090  -22.4350 C   0  0  0  0  0  0
    7.4800    7.6590  -20.0880 C   0  0  0  0  0  0
    7.4500    8.8540  -22.1380 C   0  0  0  0  0  0
    9.4947    7.2640  -20.3442 H   0  0  0  0  0  0
    8.5219    6.3985  -21.3562 H   0  0  0  0  0  0
    4.0330    7.0520  -20.3740 H   0  0  0  0  0  0
    5.2808    6.5992  -21.5279 H   0  0  0  0  0  0
    9.1589    7.8442  -22.9306 H   0  0  0  0  0  0
    9.4999    9.1439  -21.6060 H   0  0  0  0  0  0
    5.0169    9.4532  -21.7562 H   0  0  0  0  0  0
    5.0489    9.0501  -19.9837 H   0  0  0  0  0  0
    3.9939    8.0458  -23.2767 H   0  0  0  0  0  0
    2.6722    8.1078  -22.1001 H   0  0  0  0  0  0
    7.8020    8.3360  -19.2830 H   0  0  0  0  0  0
    6.9199    6.7419  -19.8530 H   0  0  0  0  0  0
  1  2  2  0  0  0
  1  3  1  0  0  0
  1 34  1  0  0  0
  2  6  1  0  0  0
  2 35  1  0  0  0
  3  5  2  0  0  0
  3 27  1  0  0  0
  4  5  1  0  0  0
  4  6  2  0  0  0
  4 18  1  0  0  0
  5 24  1  0  0  0
  6 10  1  0  0  0
  7 10  2  0  0  0
  7 23  1  0  0  0
  7 33  1  0  0  0
  8 21  1  0  0  0
  8 22  1  0  0  0
  8 36  1  0  0  0
  8 37  1  0  0  0
  9 21  1  0  0  0
  9 31  1  0  0  0
  9 38  1  0  0  0
  9 39  1  0  0  0
 10 40  1  0  0  0
 11 12  1  0  0  0
 11 14  2  0  0  0
 11 15  1  0  0  0
 12 17  1  0  0  0
 12 28  2  0  0  0
 13 28  1  0  0  0
 13 29  2  0  0  0
 13 58  1  0  0  0
 14 29  1  0  0  0
 14 31  1  0  0  0
 15 30  2  0  0  0
 15 41  1  0  0  0
 16 17  2  0  0  0
 16 18  1  0  0  0
 16 30  1  0  0  0
 17 26  1  0  0  0
 18 23  2  0  0  0
 19 20  1  0  0  0
 19 31  1  0  0  0
 19 42  1  0  0  0
 19 43  1  0  0  0
 20 22  1  0  0  0
 20 32  1  0  0  0
 20 44  1  0  0  0
 21 32  1  0  0  0
 21 45  1  0  0  0
 22 46  1  0  0  0
 22 47  1  0  0  0
 23 48  1  0  0  0
 24 25  3  0  0  0
 25 49  1  0  0  0
 32 50  1  0  0  0
 33 51  1  0  0  0
 52 60  2  0  0  0
 53 56  1  0  0  0
 53 59  1  0  0  0
 53 61  1  0  0  0
 53 62  1  0  0  0
 54 57  1  0  0  0
 54 59  1  0  0  0
 54 60  1  0  0  0
 55 57  1  0  0  0
 55 58  1  0  0  0
 55 63  1  0  0  0
 55 64  1  0  0  0
 56 60  1  0  0  0
 56 65  1  0  0  0
 56 66  1  0  0  0
 57 67  1  0  0  0
 57 68  1  0  0  0
 58 69  1  0  0  0
 58 70  1  0  0  0
 59 71  1  0  0  0
 59 72  1  0  0  0
M  CHG  1  53   1
M  END
> <s_m_entry_id>
40

> <s_m_entry_name>
000000040.1

> <s_m_Source_Path>
/Users/zaksoul/Documents/2

> <s_m_Source_File>
000000040.mol2

> <i_m_Source_File_Index>
1

$$$$
No_0_41
                    3D
 Schrodinger Suite 2022-4.
 72 78  0  0  1  0            999 V2000
   -5.3480    3.3250  -22.0800 C   0  0  0  0  0  0
   -5.5920    3.5040  -23.4210 C   0  0  0  0  0  0
   -4.1100    3.1090  -21.7140 C   0  0  0  0  0  0
   -3.1790    3.2610  -23.8620 C   0  0  0  0  0  0
   -3.0390    3.0220  -22.4380 C   0  0  0  0  0  0
   -4.5230    3.4820  -24.4100 C   0  0  0  0  0  0
   -3.7240    3.5260  -26.5930 C   0  0  0  0  0  0
    5.9140    3.0880  -21.1300 C   0  0  0  0  0  0
    5.8230    3.2250  -23.6820 C   0  0  0  0  0  0
   -4.7510    3.6010  -25.7500 C   0  0  0  0  0  0
    2.0240    3.6580  -23.7770 C   0  0  0  0  0  0
    1.1650    4.7420  -23.4960 C   0  0  0  0  0  0
    2.9120    5.9920  -22.7810 C   0  0  0  0  0  0
    3.4120    3.8910  -23.4360 C   0  0  0  0  0  0
    1.5260    2.5250  -24.4480 C   0  0  0  0  0  0
   -0.6270    3.2740  -24.3810 C   0  0  0  0  0  0
   -0.1500    4.5100  -23.7730 C   0  0  0  0  0  0
   -2.0720    3.2360  -24.7650 C   0  0  0  0  0  0
    4.0860    1.4130  -23.1280 C   0  0  0  0  0  0
    5.0070    1.0860  -21.9630 C   0  0  2  0  0  0
    6.5630    2.6740  -22.4690 C   0  0  2  0  0  0
    4.9350    2.0870  -20.7970 C   0  0  0  0  0  0
   -2.3730    3.3840  -26.1990 C   0  0  0  0  0  0
   -1.6960    2.6500  -21.8120 C   0  0  0  0  0  0
   -0.6660    2.3340  -21.2850 C   0  0  0  0  0  0
   -1.0290    5.5290  -23.4470 F   0  0  0  0  0  0
   -3.9200    2.8740  -20.3280 F   0  0  0  0  0  0
    1.5960    5.9150  -22.9560 N   0  0  0  0  0  0
    3.8410    5.0560  -22.9820 N   0  0  0  0  0  0
    0.2290    2.3960  -24.7790 N   0  0  0  0  0  0
    4.3640    2.8710  -23.5930 N   0  0  0  0  0  0
    6.4200    1.1950  -22.4170 N   0  0  1  0  0  0
   -3.8690    3.5340  -27.9860 O   0  0  0  0  0  0
   -6.1663    3.3642  -21.3701 H   0  0  0  0  0  0
   -6.6050    3.6685  -23.7700 H   0  0  0  0  0  0
    5.4158    4.0612  -21.2510 H   0  0  0  0  0  0
    6.6843    3.1223  -20.3455 H   0  0  0  0  0  0
    6.2488    2.7921  -24.5992 H   0  0  0  0  0  0
    5.9340    4.3189  -23.7133 H   0  0  0  0  0  0
   -5.7590    3.7556  -26.1175 H   0  0  0  0  0  0
    2.1946    1.7149  -24.7160 H   0  0  0  0  0  0
    3.0385    1.3252  -22.8040 H   0  0  0  0  0  0
    4.2858    0.7198  -23.9584 H   0  0  0  0  0  0
    4.8062    0.0680  -21.5978 H   0  0  0  0  0  0
    7.6239    2.9634  -22.4942 H   0  0  0  0  0  0
    3.9367    2.5483  -20.7748 H   0  0  0  0  0  0
    5.2318    1.5833  -19.8652 H   0  0  0  0  0  0
   -1.5882    3.3870  -26.9467 H   0  0  0  0  0  0
    0.2410    2.0560  -20.8210 H   0  0  0  0  0  0
    7.0679    0.7182  -21.6964 H   0  0  0  0  0  0
   -3.0134    3.4716  -28.3940 H   0  0  0  0  0  0
    6.5490    9.6830  -23.5490 O   0  0  0  0  0  0
    8.7780    7.4170  -22.0870 N   0  3  0  0  0  0
    6.7970    8.4020  -21.6700 N   0  0  0  0  0  0
    4.6930    7.2090  -21.4470 C   0  0  0  0  0  0
    8.6400    8.5530  -23.0610 C   0  0  0  0  0  0
    5.4090    8.5550  -21.2160 C   0  0  0  0  0  0
    3.4210    7.3470  -22.3030 C   0  0  0  0  0  0
    7.8070    7.6120  -20.9580 C   0  0  0  0  0  0
    7.2110    8.9660  -22.8130 C   0  0  0  0  0  0
    9.7179    7.4000  -21.7231 H   0  0  0  0  0  0
    8.5780    6.5469  -22.5550 H   0  0  0  0  0  0
    4.4340    6.7620  -20.4759 H   0  0  0  0  0  0
    5.3864    6.5056  -21.9313 H   0  0  0  0  0  0
    8.7290    8.1619  -24.0853 H   0  0  0  0  0  0
    9.3092    9.3713  -22.7569 H   0  0  0  0  0  0
    4.9138    9.3393  -21.8073 H   0  0  0  0  0  0
    5.4000    8.7949  -20.1425 H   0  0  0  0  0  0
    3.6328    7.9855  -23.1733 H   0  0  0  0  0  0
    2.6367    7.8472  -21.7158 H   0  0  0  0  0  0
    8.2767    8.2436  -20.1895 H   0  0  0  0  0  0
    7.3730    6.6380  -20.6880 H   0  0  0  0  0  0
  1  2  2  0  0  0
  1  3  1  0  0  0
  1 34  1  0  0  0
  2  6  1  0  0  0
  2 35  1  0  0  0
  3  5  2  0  0  0
  3 27  1  0  0  0
  4  5  1  0  0  0
  4  6  2  0  0  0
  4 18  1  0  0  0
  5 24  1  0  0  0
  6 10  1  0  0  0
  7 10  2  0  0  0
  7 23  1  0  0  0
  7 33  1  0  0  0
  8 21  1  0  0  0
  8 22  1  0  0  0
  8 36  1  0  0  0
  8 37  1  0  0  0
  9 21  1  0  0  0
  9 31  1  0  0  0
  9 38  1  0  0  0
  9 39  1  0  0  0
 10 40  1  0  0  0
 11 12  1  0  0  0
 11 14  2  0  0  0
 11 15  1  0  0  0
 12 17  1  0  0  0
 12 28  2  0  0  0
 13 28  1  0  0  0
 13 29  2  0  0  0
 13 58  1  0  0  0
 14 29  1  0  0  0
 14 31  1  0  0  0
 15 30  2  0  0  0
 15 41  1  0  0  0
 16 17  2  0  0  0
 16 18  1  0  0  0
 16 30  1  0  0  0
 17 26  1  0  0  0
 18 23  2  0  0  0
 19 20  1  0  0  0
 19 31  1  0  0  0
 19 42  1  0  0  0
 19 43  1  0  0  0
 20 22  1  0  0  0
 20 32  1  0  0  0
 20 44  1  0  0  0
 21 32  1  0  0  0
 21 45  1  0  0  0
 22 46  1  0  0  0
 22 47  1  0  0  0
 23 48  1  0  0  0
 24 25  3  0  0  0
 25 49  1  0  0  0
 32 50  1  0  0  0
 33 51  1  0  0  0
 52 60  2  0  0  0
 53 56  1  0  0  0
 53 59  1  0  0  0
 53 61  1  0  0  0
 53 62  1  0  0  0
 54 57  1  0  0  0
 54 59  1  0  0  0
 54 60  1  0  0  0
 55 57  1  0  0  0
 55 58  1  0  0  0
 55 63  1  0  0  0
 55 64  1  0  0  0
 56 60  1  0  0  0
 56 65  1  0  0  0
 56 66  1  0  0  0
 57 67  1  0  0  0
 57 68  1  0  0  0
 58 69  1  0  0  0
 58 70  1  0  0  0
 59 71  1  0  0  0
 59 72  1  0  0  0
M  CHG  1  53   1
M  END
> <s_m_entry_id>
41

> <s_m_entry_name>
000000041.1

> <s_m_Source_Path>
/Users/zaksoul/Documents/2

> <s_m_Source_File>
000000041.mol2

> <i_m_Source_File_Index>
1

$$$$
No_0_42
                    3D
 Schrodinger Suite 2022-4.
 72 78  0  0  1  0            999 V2000
   -5.2470    3.2710  -22.1840 C   0  0  0  0  0  0
   -5.4810    3.5190  -23.5160 C   0  0  0  0  0  0
   -4.0120    3.0370  -21.8190 C   0  0  0  0  0  0
   -3.0640    3.2990  -23.9480 C   0  0  0  0  0  0
   -2.9360    2.9880  -22.5380 C   0  0  0  0  0  0
   -4.4040    3.5480  -24.4960 C   0  0  0  0  0  0
   -3.5880    3.7030  -26.6660 C   0  0  0  0  0  0
    6.0060    2.9880  -21.1560 C   0  0  0  0  0  0
    5.9360    3.2550  -23.6980 C   0  0  0  0  0  0
   -4.6210    3.7350  -25.8300 C   0  0  0  0  0  0
    2.1380    3.6920  -23.8010 C   0  0  0  0  0  0
    1.2750    4.7600  -23.4720 C   0  0  0  0  0  0
    3.0160    5.9720  -22.6800 C   0  0  0  0  0  0
    3.5230    3.9080  -23.4370 C   0  0  0  0  0  0
    1.6450    2.5940  -24.5330 C   0  0  0  0  0  0
   -0.5080    3.3390  -24.4460 C   0  0  0  0  0  0
   -0.0360    4.5420  -23.7710 C   0  0  0  0  0  0
   -1.9500    3.3200  -24.8430 C   0  0  0  0  0  0
    4.1960    1.4170  -23.2520 C   0  0  0  0  0  0
    5.1070    1.0310  -22.0970 C   0  0  2  0  0  0
    6.6670    2.6430  -22.5090 C   0  0  2  0  0  0
    5.0260    1.9710  -20.8830 C   0  0  0  0  0  0
   -2.2400    3.5420  -26.2700 C   0  0  0  0  0  0
   -1.5970    2.5840  -21.9200 C   0  0  0  0  0  0
   -0.5710    2.2410  -21.4020 C   0  0  0  0  0  0
   -0.9190    5.5430  -23.4010 F   0  0  0  0  0  0
   -3.8330    2.7310  -20.4450 F   0  0  0  0  0  0
    1.7010    5.9040  -22.8690 N   0  0  0  0  0  0
    3.9470    5.0480  -22.9210 N   0  0  0  0  0  0
    0.3510    2.4820  -24.8810 N   0  0  0  0  0  0
    4.4770    2.8970  -23.6390 N   0  0  0  0  0  0
    6.5240    1.1640  -22.5340 N   0  0  1  0  0  0
   -3.7210    3.7830  -28.0580 O   0  0  0  0  0  0
   -6.0709    3.2740  -21.4795 H   0  0  0  0  0  0
   -6.4914    3.7006  -23.8642 H   0  0  0  0  0  0
    5.5083    3.9661  -21.2307 H   0  0  0  0  0  0
    6.7701    2.9819  -20.3647 H   0  0  0  0  0  0
    6.3699    2.8695  -24.6324 H   0  0  0  0  0  0
    6.0460    4.3492  -23.6728 H   0  0  0  0  0  0
   -5.6262    3.9087  -26.1965 H   0  0  0  0  0  0
    2.3175    1.8001  -24.8371 H   0  0  0  0  0  0
    3.1460    1.3130  -22.9410 H   0  0  0  0  0  0
    4.4029    0.7670  -24.1150 H   0  0  0  0  0  0
    4.9041   -0.0048  -21.7871 H   0  0  0  0  0  0
    7.7279    2.9337  -22.5110 H   0  0  0  0  0  0
    4.0271    2.4301  -20.8447 H   0  0  0  0  0  0
    5.3156    1.4201  -19.9760 H   0  0  0  0  0  0
   -1.4484    3.5831  -27.0094 H   0  0  0  0  0  0
    0.3325    1.9398  -20.9458 H   0  0  0  0  0  0
    7.1662    0.6500  -21.8341 H   0  0  0  0  0  0
   -2.8626    3.7414  -28.4629 H   0  0  0  0  0  0
    6.1090   10.0850  -23.6600 O   0  0  0  0  0  0
    8.7690    7.8930  -23.0550 N   0  3  0  0  0  0
    6.8670    8.6090  -22.0860 N   0  0  0  0  0  0
    4.9600    7.1880  -21.5940 C   0  0  0  0  0  0
    8.3320    9.1230  -23.8000 C   0  0  0  0  0  0
    5.6100    8.5590  -21.3270 C   0  0  0  0  0  0
    3.5210    7.3010  -22.1290 C   0  0  0  0  0  0
    8.0660    7.8440  -21.7280 C   0  0  0  0  0  0
    6.9700    9.3520  -23.1950 C   0  0  0  0  0  0
    9.7655    7.9270  -22.9069 H   0  0  0  0  0  0
    8.5312    7.0735  -23.5916 H   0  0  0  0  0  0
    4.9600    6.5971  -20.6662 H   0  0  0  0  0  0
    5.5741    6.6260  -22.3131 H   0  0  0  0  0  0
    8.2160    8.8761  -24.8656 H   0  0  0  0  0  0
    8.9918    9.9607  -23.5301 H   0  0  0  0  0  0
    4.9391    9.3569  -21.6780 H   0  0  0  0  0  0
    5.8269    8.6590  -20.2533 H   0  0  0  0  0  0
    3.4840    8.0627  -22.9217 H   0  0  0  0  0  0
    2.8552    7.6389  -21.3212 H   0  0  0  0  0  0
    8.6502    8.4182  -20.9938 H   0  0  0  0  0  0
    7.7760    6.8041  -21.5170 H   0  0  0  0  0  0
  1  2  2  0  0  0
  1  3  1  0  0  0
  1 34  1  0  0  0
  2  6  1  0  0  0
  2 35  1  0  0  0
  3  5  2  0  0  0
  3 27  1  0  0  0
  4  5  1  0  0  0
  4  6  2  0  0  0
  4 18  1  0  0  0
  5 24  1  0  0  0
  6 10  1  0  0  0
  7 10  2  0  0  0
  7 23  1  0  0  0
  7 33  1  0  0  0
  8 21  1  0  0  0
  8 22  1  0  0  0
  8 36  1  0  0  0
  8 37  1  0  0  0
  9 21  1  0  0  0
  9 31  1  0  0  0
  9 38  1  0  0  0
  9 39  1  0  0  0
 10 40  1  0  0  0
 11 12  1  0  0  0
 11 14  2  0  0  0
 11 15  1  0  0  0
 12 17  1  0  0  0
 12 28  2  0  0  0
 13 28  1  0  0  0
 13 29  2  0  0  0
 13 58  1  0  0  0
 14 29  1  0  0  0
 14 31  1  0  0  0
 15 30  2  0  0  0
 15 41  1  0  0  0
 16 17  2  0  0  0
 16 18  1  0  0  0
 16 30  1  0  0  0
 17 26  1  0  0  0
 18 23  2  0  0  0
 19 20  1  0  0  0
 19 31  1  0  0  0
 19 42  1  0  0  0
 19 43  1  0  0  0
 20 22  1  0  0  0
 20 32  1  0  0  0
 20 44  1  0  0  0
 21 32  1  0  0  0
 21 45  1  0  0  0
 22 46  1  0  0  0
 22 47  1  0  0  0
 23 48  1  0  0  0
 24 25  3  0  0  0
 25 49  1  0  0  0
 32 50  1  0  0  0
 33 51  1  0  0  0
 52 60  2  0  0  0
 53 56  1  0  0  0
 53 59  1  0  0  0
 53 61  1  0  0  0
 53 62  1  0  0  0
 54 57  1  0  0  0
 54 59  1  0  0  0
 54 60  1  0  0  0
 55 57  1  0  0  0
 55 58  1  0  0  0
 55 63  1  0  0  0
 55 64  1  0  0  0
 56 60  1  0  0  0
 56 65  1  0  0  0
 56 66  1  0  0  0
 57 67  1  0  0  0
 57 68  1  0  0  0
 58 69  1  0  0  0
 58 70  1  0  0  0
 59 71  1  0  0  0
 59 72  1  0  0  0
M  CHG  1  53   1
M  END
> <s_m_entry_id>
42

> <s_m_entry_name>
000000042.1

> <s_m_Source_Path>
/Users/zaksoul/Documents/2

> <s_m_Source_File>
000000042.mol2

> <i_m_Source_File_Index>
1

$$$$
No_0_43
                    3D
 Schrodinger Suite 2022-4.
 75 80  0  0  1  0            999 V2000
   -5.2650    3.5950  -22.3700 C   0  0  0  0  0  0
   -5.5040    3.7860  -23.7100 C   0  0  0  0  0  0
   -4.0330    3.3520  -22.0030 C   0  0  0  0  0  0
   -3.0950    3.4950  -24.1480 C   0  0  0  0  0  0
   -2.9630    3.2470  -22.7250 C   0  0  0  0  0  0
   -4.4340    3.7460  -24.6970 C   0  0  0  0  0  0
   -3.6310    3.7830  -26.8780 C   0  0  0  0  0  0
    5.9870    3.1230  -21.4030 C   0  0  0  0  0  0
    5.9030    3.2730  -23.9540 C   0  0  0  0  0  0
   -4.6570    3.8760  -26.0380 C   0  0  0  0  0  0
    2.1150    3.7850  -24.0530 C   0  0  0  0  0  0
    1.2770    4.8850  -23.7680 C   0  0  0  0  0  0
    3.0480    6.0950  -23.0450 C   0  0  0  0  0  0
    3.5060    3.9880  -23.7090 C   0  0  0  0  0  0
    1.5940    2.6650  -24.7300 C   0  0  0  0  0  0
   -0.5430    3.4580  -24.6630 C   0  0  0  0  0  0
   -0.0410    4.6810  -24.0490 C   0  0  0  0  0  0
   -1.9880    3.4510  -25.0490 C   0  0  0  0  0  0
    4.1290    1.4950  -23.4120 C   0  0  0  0  0  0
    5.0410    1.1440  -22.2460 C   0  0  2  0  0  0
    6.6300    2.7020  -22.7420 C   0  0  2  0  0  0
    4.9880    2.1410  -21.0760 C   0  0  0  0  0  0
   -2.2840    3.6120  -26.4840 C   0  0  0  0  0  0
   -1.6290    2.8440  -22.0980 C   0  0  0  0  0  0
   -0.6060    2.5050  -21.5710 C   0  0  0  0  0  0
   -0.9010    5.7160  -23.7190 F   0  0  0  0  0  0
   -3.8500    3.1070  -20.6170 F   0  0  0  0  0  0
    1.7310    6.0460  -23.2220 N   0  0  0  0  0  0
    3.9580    5.1420  -23.2490 N   0  0  0  0  0  0
    0.2950    2.5640  -25.0640 N   0  0  0  0  0  0
    4.4380    2.9500  -23.8690 N   0  0  0  0  0  0
    6.4570    1.2260  -22.6970 N   0  0  1  0  0  0
   -3.7730    3.8010  -28.2710 O   0  0  0  0  0  0
   -6.0833    3.6471  -21.6610 H   0  0  0  0  0  0
   -6.5129    3.9717  -24.0603 H   0  0  0  0  0  0
    5.5096    4.1071  -21.5201 H   0  0  0  0  0  0
    6.7561    3.1381  -20.6167 H   0  0  0  0  0  0
    6.3219    2.8360  -24.8725 H   0  0  0  0  0  0
    6.0362    4.3646  -23.9802 H   0  0  0  0  0  0
   -5.6613    4.0528  -26.4056 H   0  0  0  0  0  0
    2.2473    1.8432  -24.9999 H   0  0  0  0  0  0
    3.0796    1.4274  -23.0891 H   0  0  0  0  0  0
    4.3168    0.8014  -24.2449 H   0  0  0  0  0  0
    4.8180    0.1289  -21.8858 H   0  0  0  0  0  0
    7.6967    2.9694  -22.7652 H   0  0  0  0  0  0
    3.9992    2.6223  -21.0528 H   0  0  0  0  0  0
    5.2727    1.6271  -20.1461 H   0  0  0  0  0  0
   -1.4972    3.6030  -27.2296 H   0  0  0  0  0  0
    0.2942    2.2059  -21.1069 H   0  0  0  0  0  0
    7.0943    0.7320  -21.9785 H   0  0  0  0  0  0
   -2.9184    3.7229  -28.6785 H   0  0  0  0  0  0
    8.1220    8.6690  -21.3750 N   0  3  0  0  0  0
    5.8030    9.0380  -21.1740 N   0  0  0  0  0  0
    6.9130    7.6040  -19.6560 N   0  0  0  0  0  0
    3.9080    7.4480  -21.0530 C   0  0  0  0  0  0
    3.5840    7.4380  -22.5600 C   0  0  0  0  0  0
    4.4830    8.8010  -20.6000 C   0  0  0  0  0  0
    6.9420    8.4340  -20.7310 C   0  0  0  0  0  0
    9.4010    8.1850  -20.8560 C   0  0  0  0  0  0
    8.1860    9.4190  -22.6300 C   0  0  0  0  0  0
    5.8450    9.7043  -21.9583 H   0  0  0  0  0  0
    6.0244    7.4241  -19.1672 H   0  0  0  0  0  0
    7.7793    7.1529  -19.3289 H   0  0  0  0  0  0
    4.6305    6.6496  -20.8282 H   0  0  0  0  0  0
    2.9944    7.2281  -20.4812 H   0  0  0  0  0  0
    4.4886    7.6969  -23.1298 H   0  0  0  0  0  0
    2.8490    8.2260  -22.7810 H   0  0  0  0  0  0
    3.8011    9.6089  -20.9039 H   0  0  0  0  0  0
    4.5530    8.8200  -19.5024 H   0  0  0  0  0  0
   10.2121    8.4890  -21.5340 H   0  0  0  0  0  0
    9.5782    8.6124  -19.8580 H   0  0  0  0  0  0
    9.3760    7.0876  -20.7850 H   0  0  0  0  0  0
    9.2313    9.4850  -22.9661 H   0  0  0  0  0  0
    7.5869    8.9049  -23.3961 H   0  0  0  0  0  0
    7.7870   10.4320  -22.4730 H   0  0  0  0  0  0
  1  2  2  0  0  0
  1  3  1  0  0  0
  1 34  1  0  0  0
  2  6  1  0  0  0
  2 35  1  0  0  0
  3  5  2  0  0  0
  3 27  1  0  0  0
  4  5  1  0  0  0
  4  6  2  0  0  0
  4 18  1  0  0  0
  5 24  1  0  0  0
  6 10  1  0  0  0
  7 10  2  0  0  0
  7 23  1  0  0  0
  7 33  1  0  0  0
  8 21  1  0  0  0
  8 22  1  0  0  0
  8 36  1  0  0  0
  8 37  1  0  0  0
  9 21  1  0  0  0
  9 31  1  0  0  0
  9 38  1  0  0  0
  9 39  1  0  0  0
 10 40  1  0  0  0
 11 12  1  0  0  0
 11 14  2  0  0  0
 11 15  1  0  0  0
 12 17  1  0  0  0
 12 28  2  0  0  0
 13 28  1  0  0  0
 13 29  2  0  0  0
 13 56  1  0  0  0
 14 29  1  0  0  0
 14 31  1  0  0  0
 15 30  2  0  0  0
 15 41  1  0  0  0
 16 17  2  0  0  0
 16 18  1  0  0  0
 16 30  1  0  0  0
 17 26  1  0  0  0
 18 23  2  0  0  0
 19 20  1  0  0  0
 19 31  1  0  0  0
 19 42  1  0  0  0
 19 43  1  0  0  0
 20 22  1  0  0  0
 20 32  1  0  0  0
 20 44  1  0  0  0
 21 32  1  0  0  0
 21 45  1  0  0  0
 22 46  1  0  0  0
 22 47  1  0  0  0
 23 48  1  0  0  0
 24 25  3  0  0  0
 25 49  1  0  0  0
 32 50  1  0  0  0
 33 51  1  0  0  0
 52 58  2  0  0  0
 52 59  1  0  0  0
 52 60  1  0  0  0
 53 57  1  0  0  0
 53 58  1  0  0  0
 53 61  1  0  0  0
 54 58  1  0  0  0
 54 62  1  0  0  0
 54 63  1  0  0  0
 55 56  1  0  0  0
 55 57  1  0  0  0
 55 64  1  0  0  0
 55 65  1  0  0  0
 56 66  1  0  0  0
 56 67  1  0  0  0
 57 68  1  0  0  0
 57 69  1  0  0  0
 59 70  1  0  0  0
 59 71  1  0  0  0
 59 72  1  0  0  0
 60 73  1  0  0  0
 60 74  1  0  0  0
 60 75  1  0  0  0
M  CHG  1  52   1
M  END
> <s_m_entry_id>
43

> <s_m_entry_name>
000000043.1

> <s_m_Source_Path>
/Users/zaksoul/Documents/2

> <s_m_Source_File>
000000043.mol2

> <i_m_Source_File_Index>
1

$$$$
No_0_44
                    3D
 Schrodinger Suite 2022-4.
 75 80  0  0  1  0            999 V2000
   -5.2190    3.6250  -22.2670 C   0  0  0  0  0  0
   -5.4500    3.8010  -23.6100 C   0  0  0  0  0  0
   -3.9860    3.4040  -21.8880 C   0  0  0  0  0  0
   -3.0340    3.5430  -24.0260 C   0  0  0  0  0  0
   -2.9090    3.3090  -22.6010 C   0  0  0  0  0  0
   -4.3710    3.7700  -24.5890 C   0  0  0  0  0  0
   -3.5510    3.8010  -26.7630 C   0  0  0  0  0  0
    6.0310    3.3300  -21.2070 C   0  0  0  0  0  0
    5.9650    3.4580  -23.7600 C   0  0  0  0  0  0
   -4.5850    3.8850  -25.9320 C   0  0  0  0  0  0
    2.1710    3.9120  -23.8930 C   0  0  0  0  0  0
    1.3140    5.0010  -23.6240 C   0  0  0  0  0  0
    3.0610    6.2440  -22.8970 C   0  0  0  0  0  0
    3.5560    4.1390  -23.5390 C   0  0  0  0  0  0
    1.6720    2.7790  -24.5640 C   0  0  0  0  0  0
   -0.4770    3.5400  -24.5210 C   0  0  0  0  0  0
    0.0010    4.7760  -23.9130 C   0  0  0  0  0  0
   -1.9190    3.5090  -24.9190 C   0  0  0  0  0  0
    4.2140    1.6580  -23.2170 C   0  0  0  0  0  0
    5.1210    1.3310  -22.0410 C   0  0  2  0  0  0
    6.6910    2.9080  -22.5380 C   0  0  2  0  0  0
    5.0440    2.3360  -20.8800 C   0  0  0  0  0  0
   -2.2050    3.6540  -26.3570 C   0  0  0  0  0  0
   -1.5740    2.9320  -21.9600 C   0  0  0  0  0  0
   -0.5510    2.6120  -21.4220 C   0  0  0  0  0  0
   -0.8760    5.8010  -23.5990 F   0  0  0  0  0  0
   -3.8110    3.1730  -20.4990 F   0  0  0  0  0  0
    1.7460    6.1740  -23.0840 N   0  0  0  0  0  0
    3.9870    5.3030  -23.0850 N   0  0  0  0  0  0
    0.3780    2.6560  -24.9080 N   0  0  0  0  0  0
    4.5040    3.1130  -23.6840 N   0  0  0  0  0  0
    6.5400    1.4300  -22.4820 N   0  0  1  0  0  0
   -3.6830    3.8050  -28.1580 O   0  0  0  0  0  0
   -6.0435    3.6711  -21.5648 H   0  0  0  0  0  0
   -6.4587    3.9696  -23.9693 H   0  0  0  0  0  0
    5.5396    4.3058  -21.3351 H   0  0  0  0  0  0
    6.7937    3.3633  -20.4150 H   0  0  0  0  0  0
    6.3980    3.0200  -24.6714 H   0  0  0  0  0  0
    6.0820    4.5512  -23.7943 H   0  0  0  0  0  0
   -5.5892    4.0435  -26.3082 H   0  0  0  0  0  0
    2.3394    1.9650  -24.8229 H   0  0  0  0  0  0
    3.1631    1.5773  -22.9023 H   0  0  0  0  0  0
    4.4179    0.9605  -24.0427 H   0  0  0  0  0  0
    4.9112    0.3152  -21.6748 H   0  0  0  0  0  0
    7.7537    3.1916  -22.5541 H   0  0  0  0  0  0
    4.0478    2.8023  -20.8679 H   0  0  0  0  0  0
    5.3286    1.8344  -19.9433 H   0  0  0  0  0  0
   -1.4128    3.6500  -27.0970 H   0  0  0  0  0  0
    0.3497    2.3301  -20.9482 H   0  0  0  0  0  0
    7.1777    0.9517  -21.7533 H   0  0  0  0  0  0
   -2.8239    3.7367  -28.5578 H   0  0  0  0  0  0
    8.1450    9.1480  -21.9560 N   0  3  0  0  0  0
    5.8770    9.3040  -21.3300 N   0  0  0  0  0  0
    7.3450    7.8870  -20.1310 N   0  0  0  0  0  0
    4.1590    7.5520  -20.9940 C   0  0  0  0  0  0
    3.5730    7.5990  -22.4190 C   0  0  0  0  0  0
    4.7030    8.9220  -20.5530 C   0  0  0  0  0  0
    7.1190    8.7770  -21.1340 C   0  0  0  0  0  0
    9.5280    8.7470  -21.7020 C   0  0  0  0  0  0
    7.9270    9.9700  -23.1460 C   0  0  0  0  0  0
    5.7289   10.0147  -22.0607 H   0  0  0  0  0  0
    6.5731    7.6050  -19.5101 H   0  0  0  0  0  0
    8.2877    7.4957  -19.9929 H   0  0  0  0  0  0
    4.9677    6.8073  -20.9550 H   0  0  0  0  0  0
    3.3812    7.2231  -20.2892 H   0  0  0  0  0  0
    4.3392    7.9671  -23.1172 H   0  0  0  0  0  0
    2.7537    8.3322  -22.4530 H   0  0  0  0  0  0
    3.9191    9.6839  -20.6760 H   0  0  0  0  0  0
    4.9659    8.8860  -19.4855 H   0  0  0  0  0  0
   10.1799    9.1580  -22.4869 H   0  0  0  0  0  0
    9.8479    9.1318  -20.7224 H   0  0  0  0  0  0
    9.5980    7.6492  -21.7050 H   0  0  0  0  0  0
    8.8879   10.1450  -23.6520 H   0  0  0  0  0  0
    7.2411    9.4500  -23.8309 H   0  0  0  0  0  0
    7.4878   10.9344  -22.8509 H   0  0  0  0  0  0
  1  2  2  0  0  0
  1  3  1  0  0  0
  1 34  1  0  0  0
  2  6  1  0  0  0
  2 35  1  0  0  0
  3  5  2  0  0  0
  3 27  1  0  0  0
  4  5  1  0  0  0
  4  6  2  0  0  0
  4 18  1  0  0  0
  5 24  1  0  0  0
  6 10  1  0  0  0
  7 10  2  0  0  0
  7 23  1  0  0  0
  7 33  1  0  0  0
  8 21  1  0  0  0
  8 22  1  0  0  0
  8 36  1  0  0  0
  8 37  1  0  0  0
  9 21  1  0  0  0
  9 31  1  0  0  0
  9 38  1  0  0  0
  9 39  1  0  0  0
 10 40  1  0  0  0
 11 12  1  0  0  0
 11 14  2  0  0  0
 11 15  1  0  0  0
 12 17  1  0  0  0
 12 28  2  0  0  0
 13 28  1  0  0  0
 13 29  2  0  0  0
 13 56  1  0  0  0
 14 29  1  0  0  0
 14 31  1  0  0  0
 15 30  2  0  0  0
 15 41  1  0  0  0
 16 17  2  0  0  0
 16 18  1  0  0  0
 16 30  1  0  0  0
 17 26  1  0  0  0
 18 23  2  0  0  0
 19 20  1  0  0  0
 19 31  1  0  0  0
 19 42  1  0  0  0
 19 43  1  0  0  0
 20 22  1  0  0  0
 20 32  1  0  0  0
 20 44  1  0  0  0
 21 32  1  0  0  0
 21 45  1  0  0  0
 22 46  1  0  0  0
 22 47  1  0  0  0
 23 48  1  0  0  0
 24 25  3  0  0  0
 25 49  1  0  0  0
 32 50  1  0  0  0
 33 51  1  0  0  0
 52 58  2  0  0  0
 52 59  1  0  0  0
 52 60  1  0  0  0
 53 57  1  0  0  0
 53 58  1  0  0  0
 53 61  1  0  0  0
 54 58  1  0  0  0
 54 62  1  0  0  0
 54 63  1  0  0  0
 55 56  1  0  0  0
 55 57  1  0  0  0
 55 64  1  0  0  0
 55 65  1  0  0  0
 56 66  1  0  0  0
 56 67  1  0  0  0
 57 68  1  0  0  0
 57 69  1  0  0  0
 59 70  1  0  0  0
 59 71  1  0  0  0
 59 72  1  0  0  0
 60 73  1  0  0  0
 60 74  1  0  0  0
 60 75  1  0  0  0
M  CHG  1  52   1
M  END
> <s_m_entry_id>
44

> <s_m_entry_name>
000000044.1

> <s_m_Source_Path>
/Users/zaksoul/Documents/2

> <s_m_Source_File>
000000044.mol2

> <i_m_Source_File_Index>
1

$$$$
No_0_45
                    3D
 Schrodinger Suite 2022-4.
 75 80  0  0  1  0            999 V2000
   -5.1670    3.4810  -22.3110 C   0  0  0  0  0  0
   -5.3970    3.6270  -23.6580 C   0  0  0  0  0  0
   -3.9330    3.2720  -21.9270 C   0  0  0  0  0  0
   -2.9800    3.3680  -24.0680 C   0  0  0  0  0  0
   -2.8560    3.1650  -22.6370 C   0  0  0  0  0  0
   -4.3180    3.5780  -24.6350 C   0  0  0  0  0  0
   -3.4970    3.5640  -26.8100 C   0  0  0  0  0  0
    6.0840    3.2480  -21.2410 C   0  0  0  0  0  0
    6.0190    3.3190  -23.7960 C   0  0  0  0  0  0
   -4.5320    3.6630  -25.9810 C   0  0  0  0  0  0
    2.2230    3.7580  -23.9400 C   0  0  0  0  0  0
    1.3620    4.8490  -23.6950 C   0  0  0  0  0  0
    3.1050    6.1140  -22.9950 C   0  0  0  0  0  0
    3.6070    3.9970  -23.5910 C   0  0  0  0  0  0
    1.7280    2.6080  -24.5870 C   0  0  0  0  0  0
   -0.4230    3.3630  -24.5610 C   0  0  0  0  0  0
    0.0510    4.6130  -23.9800 C   0  0  0  0  0  0
   -1.8640    3.3180  -24.9590 C   0  0  0  0  0  0
    4.2730    1.5260  -23.2140 C   0  0  0  0  0  0
    5.1810    1.2270  -22.0310 C   0  0  2  0  0  0
    6.7460    2.7980  -22.5610 C   0  0  2  0  0  0
    5.1000    2.2570  -20.8920 C   0  0  0  0  0  0
   -2.1510    3.4300  -26.3990 C   0  0  0  0  0  0
   -1.5190    2.8070  -21.9880 C   0  0  0  0  0  0
   -0.4950    2.5020  -21.4430 C   0  0  0  0  0  0
   -0.8300    5.6420  -23.6890 F   0  0  0  0  0  0
   -3.7580    3.0720  -20.5330 F   0  0  0  0  0  0
    1.7910    6.0350  -23.1810 N   0  0  0  0  0  0
    4.0340    5.1720  -23.1620 N   0  0  0  0  0  0
    0.4350    2.4730  -24.9280 N   0  0  0  0  0  0
    4.5590    2.9710  -23.7120 N   0  0  0  0  0  0
    6.6000    1.3220  -22.4730 N   0  0  1  0  0  0
   -3.6280    3.5370  -28.2040 O   0  0  0  0  0  0
   -5.9921    3.5402  -21.6104 H   0  0  0  0  0  0
   -6.4063    3.7835  -24.0212 H   0  0  0  0  0  0
    5.5894    4.2191  -21.3904 H   0  0  0  0  0  0
    6.8457    3.3005  -20.4491 H   0  0  0  0  0  0
    6.4541    2.8627  -24.6974 H   0  0  0  0  0  0
    6.1320    4.4117  -23.8535 H   0  0  0  0  0  0
   -5.5363    3.8096  -26.3616 H   0  0  0  0  0  0
    2.3985    1.7910  -24.8279 H   0  0  0  0  0  0
    3.2222    1.4483  -22.8981 H   0  0  0  0  0  0
    4.4799    0.8115  -24.0244 H   0  0  0  0  0  0
    4.9741    0.2189  -21.6425 H   0  0  0  0  0  0
    7.8078    3.0846  -22.5832 H   0  0  0  0  0  0
    4.1022    2.7201  -20.8910 H   0  0  0  0  0  0
    5.3867    1.7764  -19.9450 H   0  0  0  0  0  0
   -1.3585    3.4129  -27.1384 H   0  0  0  0  0  0
    0.4063    2.2342  -20.9624 H   0  0  0  0  0  0
    7.2396    0.8610  -21.7349 H   0  0  0  0  0  0
   -2.7686    3.4627  -28.6020 H   0  0  0  0  0  0
    8.1230    9.2570  -22.6680 N   0  3  0  0  0  0
    5.9600    9.2750  -21.7290 N   0  0  0  0  0  0
    7.6480    7.9060  -20.7940 N   0  0  0  0  0  0
    4.3940    7.4260  -21.2180 C   0  0  0  0  0  0
    3.6120    7.4800  -22.5470 C   0  0  0  0  0  0
    4.9260    8.8110  -20.8110 C   0  0  0  0  0  0
    7.2410    8.8090  -21.7260 C   0  0  0  0  0  0
    9.5460    8.9230  -22.6210 C   0  0  0  0  0  0
    7.7010   10.0980  -23.7880 C   0  0  0  0  0  0
    5.6759    9.9962  -22.4072 H   0  0  0  0  0  0
    6.9858    7.5669  -20.0817 H   0  0  0  0  0  0
    8.6189    7.5621  -20.8010 H   0  0  0  0  0  0
    5.2355    6.7246  -21.3171 H   0  0  0  0  0  0
    3.7392    7.0371  -20.4243 H   0  0  0  0  0  0
    4.2542    7.9072  -23.3313 H   0  0  0  0  0  0
    2.7615    8.1696  -22.4421 H   0  0  0  0  0  0
    4.0966    9.5334  -20.7980 H   0  0  0  0  0  0
    5.3379    8.7600  -19.7923 H   0  0  0  0  0  0
   10.0601    9.3881  -23.4751 H   0  0  0  0  0  0
    9.9812    9.2972  -21.6826 H   0  0  0  0  0  0
    9.6690    7.8310  -22.6710 H   0  0  0  0  0  0
    8.5716   10.3372  -24.4164 H   0  0  0  0  0  0
    6.9521    9.5601  -24.3879 H   0  0  0  0  0  0
    7.2609   11.0292  -23.4019 H   0  0  0  0  0  0
  1  2  2  0  0  0
  1  3  1  0  0  0
  1 34  1  0  0  0
  2  6  1  0  0  0
  2 35  1  0  0  0
  3  5  2  0  0  0
  3 27  1  0  0  0
  4  5  1  0  0  0
  4  6  2  0  0  0
  4 18  1  0  0  0
  5 24  1  0  0  0
  6 10  1  0  0  0
  7 10  2  0  0  0
  7 23  1  0  0  0
  7 33  1  0  0  0
  8 21  1  0  0  0
  8 22  1  0  0  0
  8 36  1  0  0  0
  8 37  1  0  0  0
  9 21  1  0  0  0
  9 31  1  0  0  0
  9 38  1  0  0  0
  9 39  1  0  0  0
 10 40  1  0  0  0
 11 12  1  0  0  0
 11 14  2  0  0  0
 11 15  1  0  0  0
 12 17  1  0  0  0
 12 28  2  0  0  0
 13 28  1  0  0  0
 13 29  2  0  0  0
 13 56  1  0  0  0
 14 29  1  0  0  0
 14 31  1  0  0  0
 15 30  2  0  0  0
 15 41  1  0  0  0
 16 17  2  0  0  0
 16 18  1  0  0  0
 16 30  1  0  0  0
 17 26  1  0  0  0
 18 23  2  0  0  0
 19 20  1  0  0  0
 19 31  1  0  0  0
 19 42  1  0  0  0
 19 43  1  0  0  0
 20 22  1  0  0  0
 20 32  1  0  0  0
 20 44  1  0  0  0
 21 32  1  0  0  0
 21 45  1  0  0  0
 22 46  1  0  0  0
 22 47  1  0  0  0
 23 48  1  0  0  0
 24 25  3  0  0  0
 25 49  1  0  0  0
 32 50  1  0  0  0
 33 51  1  0  0  0
 52 58  2  0  0  0
 52 59  1  0  0  0
 52 60  1  0  0  0
 53 57  1  0  0  0
 53 58  1  0  0  0
 53 61  1  0  0  0
 54 58  1  0  0  0
 54 62  1  0  0  0
 54 63  1  0  0  0
 55 56  1  0  0  0
 55 57  1  0  0  0
 55 64  1  0  0  0
 55 65  1  0  0  0
 56 66  1  0  0  0
 56 67  1  0  0  0
 57 68  1  0  0  0
 57 69  1  0  0  0
 59 70  1  0  0  0
 59 71  1  0  0  0
 59 72  1  0  0  0
 60 73  1  0  0  0
 60 74  1  0  0  0
 60 75  1  0  0  0
M  CHG  1  52   1
M  END
> <s_m_entry_id>
45

> <s_m_entry_name>
000000045.1

> <s_m_Source_Path>
/Users/zaksoul/Documents/2

> <s_m_Source_File>
000000045.mol2

> <i_m_Source_File_Index>
1

$$$$
No_0_46
                    3D
 Schrodinger Suite 2022-4.
 72 77  0  0  1  0            999 V2000
   -5.2950    3.3940  -22.2630 C   0  0  0  0  0  0
   -5.5310    3.5610  -23.6070 C   0  0  0  0  0  0
   -4.0610    3.1720  -21.8870 C   0  0  0  0  0  0
   -3.1170    3.2930  -24.0310 C   0  0  0  0  0  0
   -2.9880    3.0690  -22.6040 C   0  0  0  0  0  0
   -4.4560    3.5190  -24.5890 C   0  0  0  0  0  0
   -3.6450    3.5320  -26.7670 C   0  0  0  0  0  0
    5.9590    3.0760  -21.2460 C   0  0  0  0  0  0
    5.8830    3.1860  -23.8000 C   0  0  0  0  0  0
   -4.6750    3.6260  -25.9320 C   0  0  0  0  0  0
    2.0890    3.6490  -23.9210 C   0  0  0  0  0  0
    1.2360    4.7430  -23.6560 C   0  0  0  0  0  0
    2.9900    5.9860  -22.9450 C   0  0  0  0  0  0
    3.4760    3.8750  -23.5740 C   0  0  0  0  0  0
    1.5840    2.5130  -24.5820 C   0  0  0  0  0  0
   -0.5620    3.2790  -24.5360 C   0  0  0  0  0  0
   -0.0780    4.5180  -23.9390 C   0  0  0  0  0  0
   -2.0050    3.2490  -24.9270 C   0  0  0  0  0  0
    4.1290    1.3950  -23.2360 C   0  0  0  0  0  0
    5.0400    1.0730  -22.0620 C   0  0  2  0  0  0
    6.6120    2.6430  -22.5760 C   0  0  2  0  0  0
    4.9700    2.0870  -20.9080 C   0  0  0  0  0  0
   -2.2970    3.3850  -26.3650 C   0  0  0  0  0  0
   -1.6500    2.6920  -21.9660 C   0  0  0  0  0  0
   -0.6260    2.3740  -21.4300 C   0  0  0  0  0  0
   -0.9510    5.5480  -23.6280 F   0  0  0  0  0  0
   -3.8810    2.9500  -20.4970 F   0  0  0  0  0  0
    1.6740    5.9180  -23.1270 N   0  0  0  0  0  0
    3.9120    5.0410  -23.1310 N   0  0  0  0  0  0
    0.2890    2.3900  -24.9190 N   0  0  0  0  0  0
    4.4210    2.8460  -23.7150 N   0  0  0  0  0  0
    6.4570    1.1660  -22.5090 N   0  0  1  0  0  0
   -3.7820    3.5270  -28.1610 O   0  0  0  0  0  0
   -6.1165    3.4472  -21.5578 H   0  0  0  0  0  0
   -6.5408    3.7296  -23.9633 H   0  0  0  0  0  0
    5.4699    4.0521  -21.3801 H   0  0  0  0  0  0
    6.7242    3.1133  -20.4566 H   0  0  0  0  0  0
    6.3111    2.7397  -24.7097 H   0  0  0  0  0  0
    6.0031    4.2786  -23.8424 H   0  0  0  0  0  0
   -5.6801    3.7835  -26.3062 H   0  0  0  0  0  0
    2.2483    1.6952  -24.8369 H   0  0  0  0  0  0
    3.0789    1.3193  -22.9172 H   0  0  0  0  0  0
    4.3276    0.6912  -24.0577 H   0  0  0  0  0  0
    4.8290    0.0605  -21.6875 H   0  0  0  0  0  0
    7.6756    2.9225  -22.5992 H   0  0  0  0  0  0
    3.9751    2.5562  -20.8959 H   0  0  0  0  0  0
    5.2577    1.5913  -19.9691 H   0  0  0  0  0  0
   -1.5078    3.3730  -27.1080 H   0  0  0  0  0  0
    0.2759    2.0930  -20.9580 H   0  0  0  0  0  0
    7.0965    0.6912  -21.7796 H   0  0  0  0  0  0
   -2.9248    3.4528  -28.5638 H   0  0  0  0  0  0
    6.1190    8.6930  -21.2480 N   0  3  0  0  0  0
    8.3630    8.1590  -21.4790 N   0  0  0  0  0  0
    7.0920    7.0730  -19.8080 N   0  0  0  0  0  0
    4.0920    7.2760  -21.0560 C   0  0  0  0  0  0
    3.5070    7.3430  -22.4790 C   0  0  0  0  0  0
    4.7900    8.5870  -20.6540 C   0  0  0  0  0  0
    7.1860    7.9620  -20.8300 C   0  0  0  0  0  0
    9.5860    7.4500  -21.1270 C   0  0  0  0  0  0
    6.2260    9.3640  -22.0220 H   0  0  0  0  0  0
    8.4160    8.8330  -22.2560 H   0  0  0  0  0  0
    7.9206    6.5353  -19.5161 H   0  0  0  0  0  0
    6.1930    6.9370  -19.3240 H   0  0  0  0  0  0
    4.8106    6.4455  -20.9940 H   0  0  0  0  0  0
    3.2872    7.0560  -20.3392 H   0  0  0  0  0  0
    4.2802    7.6981  -23.1762 H   0  0  0  0  0  0
    2.6866    8.0753  -22.5040 H   0  0  0  0  0  0
    4.1763    9.4416  -20.9749 H   0  0  0  0  0  0
    4.8740    8.6360  -19.5583 H   0  0  0  0  0  0
   10.4023    7.7741  -21.7893 H   0  0  0  0  0  0
    9.8521    7.6710  -20.0828 H   0  0  0  0  0  0
    9.4291    6.3674  -21.2430 H   0  0  0  0  0  0
  1  2  2  0  0  0
  1  3  1  0  0  0
  1 34  1  0  0  0
  2  6  1  0  0  0
  2 35  1  0  0  0
  3  5  2  0  0  0
  3 27  1  0  0  0
  4  5  1  0  0  0
  4  6  2  0  0  0
  4 18  1  0  0  0
  5 24  1  0  0  0
  6 10  1  0  0  0
  7 10  2  0  0  0
  7 23  1  0  0  0
  7 33  1  0  0  0
  8 21  1  0  0  0
  8 22  1  0  0  0
  8 36  1  0  0  0
  8 37  1  0  0  0
  9 21  1  0  0  0
  9 31  1  0  0  0
  9 38  1  0  0  0
  9 39  1  0  0  0
 10 40  1  0  0  0
 11 12  1  0  0  0
 11 14  2  0  0  0
 11 15  1  0  0  0
 12 17  1  0  0  0
 12 28  2  0  0  0
 13 28  1  0  0  0
 13 29  2  0  0  0
 13 56  1  0  0  0
 14 29  1  0  0  0
 14 31  1  0  0  0
 15 30  2  0  0  0
 15 41  1  0  0  0
 16 17  2  0  0  0
 16 18  1  0  0  0
 16 30  1  0  0  0
 17 26  1  0  0  0
 18 23  2  0  0  0
 19 20  1  0  0  0
 19 31  1  0  0  0
 19 42  1  0  0  0
 19 43  1  0  0  0
 20 22  1  0  0  0
 20 32  1  0  0  0
 20 44  1  0  0  0
 21 32  1  0  0  0
 21 45  1  0  0  0
 22 46  1  0  0  0
 22 47  1  0  0  0
 23 48  1  0  0  0
 24 25  3  0  0  0
 25 49  1  0  0  0
 32 50  1  0  0  0
 33 51  1  0  0  0
 52 57  1  0  0  0
 52 58  2  0  0  0
 52 60  1  0  0  0
 53 58  1  0  0  0
 53 59  1  0  0  0
 53 61  1  0  0  0
 54 58  1  0  0  0
 54 62  1  0  0  0
 54 63  1  0  0  0
 55 56  1  0  0  0
 55 57  1  0  0  0
 55 64  1  0  0  0
 55 65  1  0  0  0
 56 66  1  0  0  0
 56 67  1  0  0  0
 57 68  1  0  0  0
 57 69  1  0  0  0
 59 70  1  0  0  0
 59 71  1  0  0  0
 59 72  1  0  0  0
M  CHG  1  52   1
M  END
> <s_m_entry_id>
46

> <s_m_entry_name>
000000046.1

> <s_m_Source_Path>
/Users/zaksoul/Documents/2

> <s_m_Source_File>
000000046.mol2

> <i_m_Source_File_Index>
1

$$$$
No_0_47
                    3D
 Schrodinger Suite 2022-4.
 72 77  0  0  1  0            999 V2000
   -5.0700    3.5850  -22.0160 C   0  0  0  0  0  0
   -5.3420    3.7490  -23.3540 C   0  0  0  0  0  0
   -3.8260    3.3640  -21.6740 C   0  0  0  0  0  0
   -2.9400    3.4800  -23.8420 C   0  0  0  0  0  0
   -2.7720    3.2590  -22.4190 C   0  0  0  0  0  0
   -4.2940    3.7050  -24.3650 C   0  0  0  0  0  0
   -3.5420    3.7130  -26.5640 C   0  0  0  0  0  0
    6.2080    3.2690  -21.3050 C   0  0  0  0  0  0
    6.0630    3.3720  -23.8550 C   0  0  0  0  0  0
   -4.5500    3.8080  -25.7020 C   0  0  0  0  0  0
    2.2670    3.8360  -23.8750 C   0  0  0  0  0  0
    1.4220    4.9300  -23.5900 C   0  0  0  0  0  0
    3.1940    6.1740  -22.9290 C   0  0  0  0  0  0
    3.6630    4.0620  -23.5660 C   0  0  0  0  0  0
    1.7440    2.6970  -24.5190 C   0  0  0  0  0  0
   -0.4000    3.4650  -24.4170 C   0  0  0  0  0  0
    0.1000    4.7050  -23.8360 C   0  0  0  0  0  0
   -1.8530    3.4340  -24.7690 C   0  0  0  0  0  0
    4.3240    1.5820  -23.2400 C   0  0  0  0  0  0
    5.2670    1.2630  -22.0900 C   0  0  2  0  0  0
    6.8250    2.8320  -22.6510 C   0  0  2  0  0  0
    5.2280    2.2800  -20.9370 C   0  0  0  0  0  0
   -2.1840    3.5660  -26.1980 C   0  0  0  0  0  0
   -1.4180    2.8840  -21.8170 C   0  0  0  0  0  0
   -0.3790    2.5660  -21.3080 C   0  0  0  0  0  0
   -0.7640    5.7360  -23.5040 F   0  0  0  0  0  0
   -3.6080    3.1460  -20.2890 F   0  0  0  0  0  0
    1.8730    6.1060  -23.0750 N   0  0  0  0  0  0
    4.1110    5.2290  -23.1370 N   0  0  0  0  0  0
    0.4400    2.5750  -24.8210 N   0  0  0  0  0  0
    4.6040    3.0320  -23.7300 N   0  0  0  0  0  0
    6.6710    1.3550  -22.5760 N   0  0  1  0  0  0
   -3.7170    3.7040  -27.9540 O   0  0  0  0  0  0
   -5.8722    3.6402  -21.2891 H   0  0  0  0  0  0
   -6.3611    3.9167  -23.6833 H   0  0  0  0  0  0
    5.7143    4.2443  -21.4272 H   0  0  0  0  0  0
    6.9944    3.3074  -20.5368 H   0  0  0  0  0  0
    6.4657    2.9239  -24.7754 H   0  0  0  0  0  0
    6.1810    4.4646  -23.9034 H   0  0  0  0  0  0
   -5.5646    3.9657  -26.0496 H   0  0  0  0  0  0
    2.4013    1.8791  -24.7910 H   0  0  0  0  0  0
    3.2830    1.5073  -22.8927 H   0  0  0  0  0  0
    4.5006    0.8767  -24.0654 H   0  0  0  0  0  0
    5.0661    0.2514  -21.7074 H   0  0  0  0  0  0
    7.8876    3.1118  -22.7025 H   0  0  0  0  0  0
    4.2339    2.7493  -20.8986 H   0  0  0  0  0  0
    5.5410    1.7863  -20.0052 H   0  0  0  0  0  0
   -1.4155    3.5530  -26.9624 H   0  0  0  0  0  0
    0.5355    2.2869  -20.8598 H   0  0  0  0  0  0
    7.3306    0.8814  -21.8640 H   0  0  0  0  0  0
   -2.8710    3.6288  -28.3795 H   0  0  0  0  0  0
    6.4450    8.9550  -21.6240 N   0  3  0  0  0  0
    8.6390    8.5470  -22.2510 N   0  0  0  0  0  0
    7.7130    7.3200  -20.4550 N   0  0  0  0  0  0
    4.5410    7.4280  -21.1790 C   0  0  0  0  0  0
    3.7240    7.5320  -22.4810 C   0  0  0  0  0  0
    5.2400    8.7520  -20.8260 C   0  0  0  0  0  0
    7.5970    8.2600  -21.4290 C   0  0  0  0  0  0
    9.9330    7.8850  -22.1450 C   0  0  0  0  0  0
    6.3920    9.6662  -22.3672 H   0  0  0  0  0  0
    8.5330    9.2588  -22.9878 H   0  0  0  0  0  0
    8.6004    6.8113  -20.3341 H   0  0  0  0  0  0
    6.9136    7.1149  -19.8387 H   0  0  0  0  0  0
    5.2941    6.6329  -21.2820 H   0  0  0  0  0  0
    3.8771    7.1330  -20.3531 H   0  0  0  0  0  0
    4.3532    7.9601  -23.2752 H   0  0  0  0  0  0
    2.8809    8.2220  -22.3290 H   0  0  0  0  0  0
    4.5455    9.5884  -20.9939 H   0  0  0  0  0  0
    5.5030    8.7540  -19.7579 H   0  0  0  0  0  0
   10.6120    8.2820  -22.9140 H   0  0  0  0  0  0
   10.3599    8.0700  -21.1482 H   0  0  0  0  0  0
    9.8049    6.8026  -22.2931 H   0  0  0  0  0  0
  1  2  2  0  0  0
  1  3  1  0  0  0
  1 34  1  0  0  0
  2  6  1  0  0  0
  2 35  1  0  0  0
  3  5  2  0  0  0
  3 27  1  0  0  0
  4  5  1  0  0  0
  4  6  2  0  0  0
  4 18  1  0  0  0
  5 24  1  0  0  0
  6 10  1  0  0  0
  7 10  2  0  0  0
  7 23  1  0  0  0
  7 33  1  0  0  0
  8 21  1  0  0  0
  8 22  1  0  0  0
  8 36  1  0  0  0
  8 37  1  0  0  0
  9 21  1  0  0  0
  9 31  1  0  0  0
  9 38  1  0  0  0
  9 39  1  0  0  0
 10 40  1  0  0  0
 11 12  1  0  0  0
 11 14  2  0  0  0
 11 15  1  0  0  0
 12 17  1  0  0  0
 12 28  2  0  0  0
 13 28  1  0  0  0
 13 29  2  0  0  0
 13 56  1  0  0  0
 14 29  1  0  0  0
 14 31  1  0  0  0
 15 30  2  0  0  0
 15 41  1  0  0  0
 16 17  2  0  0  0
 16 18  1  0  0  0
 16 30  1  0  0  0
 17 26  1  0  0  0
 18 23  2  0  0  0
 19 20  1  0  0  0
 19 31  1  0  0  0
 19 42  1  0  0  0
 19 43  1  0  0  0
 20 22  1  0  0  0
 20 32  1  0  0  0
 20 44  1  0  0  0
 21 32  1  0  0  0
 21 45  1  0  0  0
 22 46  1  0  0  0
 22 47  1  0  0  0
 23 48  1  0  0  0
 24 25  3  0  0  0
 25 49  1  0  0  0
 32 50  1  0  0  0
 33 51  1  0  0  0
 52 57  1  0  0  0
 52 58  2  0  0  0
 52 60  1  0  0  0
 53 58  1  0  0  0
 53 59  1  0  0  0
 53 61  1  0  0  0
 54 58  1  0  0  0
 54 62  1  0  0  0
 54 63  1  0  0  0
 55 56  1  0  0  0
 55 57  1  0  0  0
 55 64  1  0  0  0
 55 65  1  0  0  0
 56 66  1  0  0  0
 56 67  1  0  0  0
 57 68  1  0  0  0
 57 69  1  0  0  0
 59 70  1  0  0  0
 59 71  1  0  0  0
 59 72  1  0  0  0
M  CHG  1  52   1
M  END
> <s_m_entry_id>
47

> <s_m_entry_name>
000000047.1

> <s_m_Source_Path>
/Users/zaksoul/Documents/2

> <s_m_Source_File>
000000047.mol2

> <i_m_Source_File_Index>
1

$$$$
No_0_48
                    3D
 Schrodinger Suite 2022-4.
 72 77  0  0  1  0            999 V2000
   -5.3140    3.3380  -21.7040 C   0  0  0  0  0  0
   -5.6270    3.5160  -23.0310 C   0  0  0  0  0  0
   -4.0580    3.1260  -21.4020 C   0  0  0  0  0  0
   -3.2380    3.2780  -23.5940 C   0  0  0  0  0  0
   -3.0260    3.0410  -22.1790 C   0  0  0  0  0  0
   -4.6090    3.4960  -24.0730 C   0  0  0  0  0  0
   -3.9240    3.5390  -26.2930 C   0  0  0  0  0  0
    5.9820    3.1300  -21.3310 C   0  0  0  0  0  0
    5.7610    3.2640  -23.8750 C   0  0  0  0  0  0
   -4.9060    3.6130  -25.4000 C   0  0  0  0  0  0
    1.9610    3.6880  -23.7760 C   0  0  0  0  0  0
    1.1140    4.7700  -23.4520 C   0  0  0  0  0  0
    2.8920    6.0250  -22.8280 C   0  0  0  0  0  0
    3.3640    3.9250  -23.5060 C   0  0  0  0  0  0
    1.4320    2.5530  -24.4190 C   0  0  0  0  0  0
   -0.7170    3.2970  -24.2430 C   0  0  0  0  0  0
   -0.2120    4.5350  -23.6610 C   0  0  0  0  0  0
   -2.1790    3.2550  -24.5530 C   0  0  0  0  0  0
    4.0590    1.4490  -23.2320 C   0  0  0  0  0  0
    5.0390    1.1250  -22.1150 C   0  0  2  0  0  0
    6.5630    2.7160  -22.7010 C   0  0  2  0  0  0
    5.0240    2.1270  -20.9480 C   0  0  0  0  0  0
   -2.5540    3.4020  -25.9700 C   0  0  0  0  0  0
   -1.6510    2.6730  -21.6220 C   0  0  0  0  0  0
   -0.5940    2.3590  -21.1480 C   0  0  0  0  0  0
   -1.0760    5.5520  -23.2910 F   0  0  0  0  0  0
   -3.7970    2.8920  -20.0270 F   0  0  0  0  0  0
    1.5690    5.9450  -22.9350 N   0  0  0  0  0  0
    3.8130    5.0920  -23.0760 N   0  0  0  0  0  0
    0.1200    2.4210  -24.6840 N   0  0  0  0  0  0
    4.3100    2.9080  -23.7110 N   0  0  0  0  0  0
    6.4270    1.2380  -22.6410 N   0  0  1  0  0  0
   -4.1400    3.5470  -27.6770 O   0  0  0  0  0  0
   -6.0945    3.3762  -20.9527 H   0  0  0  0  0  0
   -6.6571    3.6777  -23.3272 H   0  0  0  0  0  0
    5.4763    4.1021  -21.4269 H   0  0  0  0  0  0
    6.7910    3.1673  -20.5866 H   0  0  0  0  0  0
    6.1405    2.8320  -24.8127 H   0  0  0  0  0  0
    5.8669    4.3582  -23.9133 H   0  0  0  0  0  0
   -5.9320    3.7646  -25.7152 H   0  0  0  0  0  0
    2.0884    1.7450  -24.7211 H   0  0  0  0  0  0
    3.0297    1.3592  -22.8546 H   0  0  0  0  0  0
    4.2184    0.7560  -24.0713 H   0  0  0  0  0  0
    4.8594    0.1068  -21.7396 H   0  0  0  0  0  0
    7.6204    3.0086  -22.7807 H   0  0  0  0  0  0
    4.0267    2.5853  -20.8743 H   0  0  0  0  0  0
    5.3701    1.6245  -20.0328 H   0  0  0  0  0  0
   -1.8078    3.4060  -26.7563 H   0  0  0  0  0  0
    0.3363    2.0839  -20.7309 H   0  0  0  0  0  0
    7.1121    0.7624  -21.9548 H   0  0  0  0  0  0
   -3.3062    3.4857  -28.1280 H   0  0  0  0  0  0
    6.1710    8.9480  -21.9870 N   0  3  0  0  0  0
    8.1970    8.7680  -23.0970 N   0  0  0  0  0  0
    7.7620    7.3360  -21.2680 N   0  0  0  0  0  0
    4.5070    7.2440  -21.2930 C   0  0  0  0  0  0
    3.4220    7.3820  -22.3780 C   0  0  0  0  0  0
    5.1820    8.5890  -20.9740 C   0  0  0  0  0  0
    7.3790    8.3360  -22.1040 C   0  0  0  0  0  0
    9.5220    8.2070  -23.3280 C   0  0  0  0  0  0
    5.9140    9.7089  -22.6319 H   0  0  0  0  0  0
    7.8901    9.5238  -23.7258 H   0  0  0  0  0  0
    8.6840    6.8920  -21.3850 H   0  0  0  0  0  0
    7.1298    7.0199  -20.5188 H   0  0  0  0  0  0
    5.2680    6.5230  -21.6260 H   0  0  0  0  0  0
    4.0581    6.8341  -20.3762 H   0  0  0  0  0  0
    3.8369    7.9189  -23.2438 H   0  0  0  0  0  0
    2.5907    7.9882  -21.9889 H   0  0  0  0  0  0
    4.4174    9.3776  -20.9140 H   0  0  0  0  0  0
    5.6712    8.5300  -19.9905 H   0  0  0  0  0  0
    9.9920    8.7150  -24.1830 H   0  0  0  0  0  0
   10.1430    8.3480  -22.4310 H   0  0  0  0  0  0
    9.4320    7.1326  -23.5459 H   0  0  0  0  0  0
  1  2  2  0  0  0
  1  3  1  0  0  0
  1 34  1  0  0  0
  2  6  1  0  0  0
  2 35  1  0  0  0
  3  5  2  0  0  0
  3 27  1  0  0  0
  4  5  1  0  0  0
  4  6  2  0  0  0
  4 18  1  0  0  0
  5 24  1  0  0  0
  6 10  1  0  0  0
  7 10  2  0  0  0
  7 23  1  0  0  0
  7 33  1  0  0  0
  8 21  1  0  0  0
  8 22  1  0  0  0
  8 36  1  0  0  0
  8 37  1  0  0  0
  9 21  1  0  0  0
  9 31  1  0  0  0
  9 38  1  0  0  0
  9 39  1  0  0  0
 10 40  1  0  0  0
 11 12  1  0  0  0
 11 14  2  0  0  0
 11 15  1  0  0  0
 12 17  1  0  0  0
 12 28  2  0  0  0
 13 28  1  0  0  0
 13 29  2  0  0  0
 13 56  1  0  0  0
 14 29  1  0  0  0
 14 31  1  0  0  0
 15 30  2  0  0  0
 15 41  1  0  0  0
 16 17  2  0  0  0
 16 18  1  0  0  0
 16 30  1  0  0  0
 17 26  1  0  0  0
 18 23  2  0  0  0
 19 20  1  0  0  0
 19 31  1  0  0  0
 19 42  1  0  0  0
 19 43  1  0  0  0
 20 22  1  0  0  0
 20 32  1  0  0  0
 20 44  1  0  0  0
 21 32  1  0  0  0
 21 45  1  0  0  0
 22 46  1  0  0  0
 22 47  1  0  0  0
 23 48  1  0  0  0
 24 25  3  0  0  0
 25 49  1  0  0  0
 32 50  1  0  0  0
 33 51  1  0  0  0
 52 57  1  0  0  0
 52 58  2  0  0  0
 52 60  1  0  0  0
 53 58  1  0  0  0
 53 59  1  0  0  0
 53 61  1  0  0  0
 54 58  1  0  0  0
 54 62  1  0  0  0
 54 63  1  0  0  0
 55 56  1  0  0  0
 55 57  1  0  0  0
 55 64  1  0  0  0
 55 65  1  0  0  0
 56 66  1  0  0  0
 56 67  1  0  0  0
 57 68  1  0  0  0
 57 69  1  0  0  0
 59 70  1  0  0  0
 59 71  1  0  0  0
 59 72  1  0  0  0
M  CHG  1  52   1
M  END
> <s_m_entry_id>
48

> <s_m_entry_name>
000000048.1

> <s_m_Source_Path>
/Users/zaksoul/Documents/2

> <s_m_Source_File>
000000048.mol2

> <i_m_Source_File_Index>
1

$$$$
No_0_51
                    3D
 Schrodinger Suite 2022-4.
 70 75  0  0  1  0            999 V2000
   -5.4130    3.2540  -22.2350 C   0  0  0  0  0  0
   -5.6850    3.4140  -23.5730 C   0  0  0  0  0  0
   -4.1680    3.0440  -21.8910 C   0  0  0  0  0  0
   -3.2810    3.1620  -24.0590 C   0  0  0  0  0  0
   -3.1130    2.9450  -22.6340 C   0  0  0  0  0  0
   -4.6360    3.3760  -24.5830 C   0  0  0  0  0  0
   -3.8820    3.3850  -26.7820 C   0  0  0  0  0  0
    5.8660    3.0260  -21.5110 C   0  0  0  0  0  0
    5.7220    3.1240  -24.0620 C   0  0  0  0  0  0
   -4.8910    3.4750  -25.9200 C   0  0  0  0  0  0
    1.9230    3.5580  -24.0860 C   0  0  0  0  0  0
    1.0690    4.6460  -23.8040 C   0  0  0  0  0  0
    2.8310    5.9060  -23.1440 C   0  0  0  0  0  0
    3.3170    3.7950  -23.7770 C   0  0  0  0  0  0
    1.4100    2.4140  -24.7290 C   0  0  0  0  0  0
   -0.7400    3.1660  -24.6300 C   0  0  0  0  0  0
   -0.2500    4.4100  -24.0510 C   0  0  0  0  0  0
   -2.1930    3.1230  -24.9840 C   0  0  0  0  0  0
    3.9970    1.3220  -23.4460 C   0  0  0  0  0  0
    4.9410    1.0120  -22.2940 C   0  0  2  0  0  0
    6.4870    2.5910  -22.8560 C   0  0  2  0  0  0
    4.8930    2.0310  -21.1430 C   0  0  0  0  0  0
   -2.5230    3.2500  -26.4140 C   0  0  0  0  0  0
   -1.7570    2.5820  -22.0300 C   0  0  0  0  0  0
   -0.7160    2.2730  -21.5200 C   0  0  0  0  0  0
   -1.1230    5.4350  -23.7230 F   0  0  0  0  0  0
   -3.9500    2.8300  -20.5050 F   0  0  0  0  0  0
    1.5120    5.8270  -23.2910 N   0  0  0  0  0  0
    3.7560    4.9670  -23.3500 N   0  0  0  0  0  0
    0.1070    2.2810  -25.0320 N   0  0  0  0  0  0
    4.2660    2.7730  -23.9380 N   0  0  0  0  0  0
    6.3450    1.1140  -22.7780 N   0  0  1  0  0  0
   -4.0550    3.3730  -28.1710 O   0  0  0  0  0  0
   -6.2158    3.3052  -21.5084 H   0  0  0  0  0  0
   -6.7052    3.5726  -23.9034 H   0  0  0  0  0  0
    5.3656    3.9976  -21.6361 H   0  0  0  0  0  0
    6.6517    3.0725  -20.7425 H   0  0  0  0  0  0
    6.1293    2.6763  -24.9805 H   0  0  0  0  0  0
    5.8330    4.2172  -24.1125 H   0  0  0  0  0  0
   -5.9067    3.6235  -26.2683 H   0  0  0  0  0  0
    2.0739    1.6005  -24.9982 H   0  0  0  0  0  0
    2.9565    1.2392  -23.0988 H   0  0  0  0  0  0
    4.1796    0.6157  -24.2693 H   0  0  0  0  0  0
    4.7472   -0.0002  -21.9095 H   0  0  0  0  0  0
    7.5472    2.8795  -22.9074 H   0  0  0  0  0  0
    3.8952    2.4925  -21.1066 H   0  0  0  0  0  0
    5.2089    1.5405  -20.2105 H   0  0  0  0  0  0
   -1.7530    3.2410  -27.1770 H   0  0  0  0  0  0
    0.1998    2.0010  -21.0701 H   0  0  0  0  0  0
    7.0079    0.6467  -22.0648 H   0  0  0  0  0  0
   -3.2080    3.3037  -28.5955 H   0  0  0  0  0  0
    7.7110   10.1460  -21.3130 F   0  0  0  0  0  0
    5.8420    8.4720  -19.9780 N   0  3  0  0  0  0
    4.8080    8.5620  -21.0740 C   0  0  0  0  0  0
    7.2200    7.9860  -20.3610 C   0  0  0  0  0  0
    3.3500    7.2680  -22.6980 C   0  0  0  0  0  0
    4.4010    7.1690  -21.5800 C   0  0  0  0  0  0
    7.8560    8.7770  -21.5220 C   0  0  0  0  0  0
    5.4841    7.8972  -19.2313 H   0  0  0  0  0  0
    5.9210    9.3686  -19.5242 H   0  0  0  0  0  0
    5.2120    9.1519  -21.9099 H   0  0  0  0  0  0
    3.9190    9.0880  -20.6960 H   0  0  0  0  0  0
    7.1690    6.9206  -20.6301 H   0  0  0  0  0  0
    7.8810    8.0330  -19.4830 H   0  0  0  0  0  0
    3.7830    7.7950  -23.5610 H   0  0  0  0  0  0
    2.5075    7.8853  -22.3528 H   0  0  0  0  0  0
    3.9929    6.5809  -20.7448 H   0  0  0  0  0  0
    5.2898    6.6431  -21.9589 H   0  0  0  0  0  0
    8.9251    8.5280  -21.5920 H   0  0  0  0  0  0
    7.3671    8.4971  -22.4668 H   0  0  0  0  0  0
  1  2  2  0  0  0
  1  3  1  0  0  0
  1 34  1  0  0  0
  2  6  1  0  0  0
  2 35  1  0  0  0
  3  5  2  0  0  0
  3 27  1  0  0  0
  4  5  1  0  0  0
  4  6  2  0  0  0
  4 18  1  0  0  0
  5 24  1  0  0  0
  6 10  1  0  0  0
  7 10  2  0  0  0
  7 23  1  0  0  0
  7 33  1  0  0  0
  8 21  1  0  0  0
  8 22  1  0  0  0
  8 36  1  0  0  0
  8 37  1  0  0  0
  9 21  1  0  0  0
  9 31  1  0  0  0
  9 38  1  0  0  0
  9 39  1  0  0  0
 10 40  1  0  0  0
 11 12  1  0  0  0
 11 14  2  0  0  0
 11 15  1  0  0  0
 12 17  1  0  0  0
 12 28  2  0  0  0
 13 28  1  0  0  0
 13 29  2  0  0  0
 13 56  1  0  0  0
 14 29  1  0  0  0
 14 31  1  0  0  0
 15 30  2  0  0  0
 15 41  1  0  0  0
 16 17  2  0  0  0
 16 18  1  0  0  0
 16 30  1  0  0  0
 17 26  1  0  0  0
 18 23  2  0  0  0
 19 20  1  0  0  0
 19 31  1  0  0  0
 19 42  1  0  0  0
 19 43  1  0  0  0
 20 22  1  0  0  0
 20 32  1  0  0  0
 20 44  1  0  0  0
 21 32  1  0  0  0
 21 45  1  0  0  0
 22 46  1  0  0  0
 22 47  1  0  0  0
 23 48  1  0  0  0
 24 25  3  0  0  0
 25 49  1  0  0  0
 32 50  1  0  0  0
 33 51  1  0  0  0
 52 58  1  0  0  0
 53 54  1  0  0  0
 53 55  1  0  0  0
 53 59  1  0  0  0
 53 60  1  0  0  0
 54 57  1  0  0  0
 54 61  1  0  0  0
 54 62  1  0  0  0
 55 58  1  0  0  0
 55 63  1  0  0  0
 55 64  1  0  0  0
 56 57  1  0  0  0
 56 65  1  0  0  0
 56 66  1  0  0  0
 57 67  1  0  0  0
 57 68  1  0  0  0
 58 69  1  0  0  0
 58 70  1  0  0  0
M  CHG  1  53   1
M  END
> <s_m_entry_id>
49

> <s_m_entry_name>
000000049.1

> <s_m_Source_Path>
/Users/zaksoul/Documents/2

> <s_m_Source_File>
000000049.mol2

> <i_m_Source_File_Index>
1

$$$$
No_0_52
                    3D
 Schrodinger Suite 2022-4.
 70 75  0  0  1  0            999 V2000
   -5.3030    3.2900  -21.8220 C   0  0  0  0  0  0
   -5.6000    3.4800  -23.1500 C   0  0  0  0  0  0
   -4.0510    3.0730  -21.5060 C   0  0  0  0  0  0
   -3.2050    3.2450  -23.6870 C   0  0  0  0  0  0
   -3.0100    2.9940  -22.2710 C   0  0  0  0  0  0
   -4.5700    3.4690  -24.1800 C   0  0  0  0  0  0
   -3.8570    3.5320  -26.3920 C   0  0  0  0  0  0
    5.9880    3.0650  -21.3140 C   0  0  0  0  0  0
    5.7970    3.2230  -23.8590 C   0  0  0  0  0  0
   -4.8500    3.5980  -25.5100 C   0  0  0  0  0  0
    1.9970    3.6510  -23.8020 C   0  0  0  0  0  0
    1.1470    4.7300  -23.4780 C   0  0  0  0  0  0
    2.9190    5.9770  -22.8210 C   0  0  0  0  0  0
    3.3960    3.8830  -23.5130 C   0  0  0  0  0  0
    1.4740    2.5220  -24.4620 C   0  0  0  0  0  0
   -0.6760    3.2660  -24.3050 C   0  0  0  0  0  0
   -0.1760    4.4980  -23.7060 C   0  0  0  0  0  0
   -2.1340    3.2290  -24.6330 C   0  0  0  0  0  0
    4.0860    1.4040  -23.2530 C   0  0  0  0  0  0
    5.0520    1.0690  -22.1270 C   0  0  2  0  0  0
    6.5850    2.6630  -22.6800 C   0  0  2  0  0  0
    5.0240    2.0600  -20.9520 C   0  0  0  0  0  0
   -2.4910    3.3900  -26.0530 C   0  0  0  0  0  0
   -1.6420    2.6190  -21.7010 C   0  0  0  0  0  0
   -0.5920    2.3000  -21.2180 C   0  0  0  0  0  0
   -1.0440    5.5130  -23.3370 F   0  0  0  0  0  0
   -3.8070    2.8270  -20.1300 F   0  0  0  0  0  0
    1.5970    5.8990  -22.9450 N   0  0  0  0  0  0
    3.8410    5.0450  -23.0660 N   0  0  0  0  0  0
    0.1660    2.3930  -24.7440 N   0  0  0  0  0  0
    4.3440    2.8660  -23.7160 N   0  0  0  0  0  0
    6.4460    1.1840  -22.6350 N   0  0  1  0  0  0
   -4.0560    3.5520  -27.7780 O   0  0  0  0  0  0
   -6.0929    3.3211  -21.0803 H   0  0  0  0  0  0
   -6.6260    3.6456  -23.4582 H   0  0  0  0  0  0
    5.4841    4.0384  -21.4069 H   0  0  0  0  0  0
    6.7874    3.0943  -20.5590 H   0  0  0  0  0  0
    6.1875    2.7982  -24.7955 H   0  0  0  0  0  0
    5.9050    4.3174  -23.8852 H   0  0  0  0  0  0
   -5.8721    3.7546  -25.8353 H   0  0  0  0  0  0
    2.1334    1.7160  -24.7631 H   0  0  0  0  0  0
    3.0522    1.3112  -22.8889 H   0  0  0  0  0  0
    4.2545    0.7181  -24.0963 H   0  0  0  0  0  0
    4.8664    0.0474  -21.7639 H   0  0  0  0  0  0
    7.6437    2.9547  -22.7446 H   0  0  0  0  0  0
    4.0263    2.5185  -20.8854 H   0  0  0  0  0  0
    5.3579    1.5486  -20.0371 H   0  0  0  0  0  0
   -1.7357    3.4000  -26.8304 H   0  0  0  0  0  0
    0.3328    2.0200  -20.7921 H   0  0  0  0  0  0
    7.1229    0.7017  -21.9453 H   0  0  0  0  0  0
   -3.2172    3.4936  -28.2202 H   0  0  0  0  0  0
    7.8170   10.4450  -21.7320 F   0  0  0  0  0  0
    6.4590    8.4780  -20.1960 N   0  3  0  0  0  0
    5.1780    8.5820  -20.9870 C   0  0  0  0  0  0
    7.7240    8.1640  -20.9600 C   0  0  0  0  0  0
    3.4450    7.3290  -22.3520 C   0  0  0  0  0  0
    4.7480    7.2150  -21.5450 C   0  0  0  0  0  0
    7.9930    9.1250  -22.1350 C   0  0  0  0  0  0
    6.3400    7.7993  -19.4603 H   0  0  0  0  0  0
    6.5920    9.3269  -19.6690 H   0  0  0  0  0  0
    5.3180    9.2890  -21.8180 H   0  0  0  0  0  0
    4.3810    8.9820  -20.3430 H   0  0  0  0  0  0
    7.6770    7.1310  -21.3350 H   0  0  0  0  0  0
    8.5807    8.1830  -20.2703 H   0  0  0  0  0  0
    3.6099    7.9796  -23.2235 H   0  0  0  0  0  0
    2.6783    7.8268  -21.7402 H   0  0  0  0  0  0
    4.6039    6.5095  -20.7134 H   0  0  0  0  0  0
    5.5449    6.8161  -22.1899 H   0  0  0  0  0  0
    9.0234    8.9851  -22.4938 H   0  0  0  0  0  0
    7.3008    8.8979  -22.9592 H   0  0  0  0  0  0
  1  2  2  0  0  0
  1  3  1  0  0  0
  1 34  1  0  0  0
  2  6  1  0  0  0
  2 35  1  0  0  0
  3  5  2  0  0  0
  3 27  1  0  0  0
  4  5  1  0  0  0
  4  6  2  0  0  0
  4 18  1  0  0  0
  5 24  1  0  0  0
  6 10  1  0  0  0
  7 10  2  0  0  0
  7 23  1  0  0  0
  7 33  1  0  0  0
  8 21  1  0  0  0
  8 22  1  0  0  0
  8 36  1  0  0  0
  8 37  1  0  0  0
  9 21  1  0  0  0
  9 31  1  0  0  0
  9 38  1  0  0  0
  9 39  1  0  0  0
 10 40  1  0  0  0
 11 12  1  0  0  0
 11 14  2  0  0  0
 11 15  1  0  0  0
 12 17  1  0  0  0
 12 28  2  0  0  0
 13 28  1  0  0  0
 13 29  2  0  0  0
 13 56  1  0  0  0
 14 29  1  0  0  0
 14 31  1  0  0  0
 15 30  2  0  0  0
 15 41  1  0  0  0
 16 17  2  0  0  0
 16 18  1  0  0  0
 16 30  1  0  0  0
 17 26  1  0  0  0
 18 23  2  0  0  0
 19 20  1  0  0  0
 19 31  1  0  0  0
 19 42  1  0  0  0
 19 43  1  0  0  0
 20 22  1  0  0  0
 20 32  1  0  0  0
 20 44  1  0  0  0
 21 32  1  0  0  0
 21 45  1  0  0  0
 22 46  1  0  0  0
 22 47  1  0  0  0
 23 48  1  0  0  0
 24 25  3  0  0  0
 25 49  1  0  0  0
 32 50  1  0  0  0
 33 51  1  0  0  0
 52 58  1  0  0  0
 53 54  1  0  0  0
 53 55  1  0  0  0
 53 59  1  0  0  0
 53 60  1  0  0  0
 54 57  1  0  0  0
 54 61  1  0  0  0
 54 62  1  0  0  0
 55 58  1  0  0  0
 55 63  1  0  0  0
 55 64  1  0  0  0
 56 57  1  0  0  0
 56 65  1  0  0  0
 56 66  1  0  0  0
 57 67  1  0  0  0
 57 68  1  0  0  0
 58 69  1  0  0  0
 58 70  1  0  0  0
M  CHG  1  53   1
M  END
> <s_m_entry_id>
50

> <s_m_entry_name>
000000050.1

> <s_m_Source_Path>
/Users/zaksoul/Documents/2

> <s_m_Source_File>
000000050.mol2

> <i_m_Source_File_Index>
1

$$$$
No_0_53
                    3D
 Schrodinger Suite 2022-4.
 70 75  0  0  1  0            999 V2000
   -5.5070    3.4910  -22.1890 C   0  0  0  0  0  0
   -5.7320    3.6820  -23.5320 C   0  0  0  0  0  0
   -4.2800    3.2370  -21.8110 C   0  0  0  0  0  0
   -3.3230    3.3660  -23.9480 C   0  0  0  0  0  0
   -3.2050    3.1190  -22.5240 C   0  0  0  0  0  0
   -4.6540    3.6300  -24.5100 C   0  0  0  0  0  0
   -3.8320    3.6550  -26.6840 C   0  0  0  0  0  0
    5.7320    2.9080  -21.1260 C   0  0  0  0  0  0
    5.6710    3.0540  -23.6780 C   0  0  0  0  0  0
   -4.8640    3.7590  -25.8520 C   0  0  0  0  0  0
    1.8890    3.6040  -23.8100 C   0  0  0  0  0  0
    1.0600    4.7130  -23.5340 C   0  0  0  0  0  0
    2.8370    5.9060  -22.7980 C   0  0  0  0  0  0
    3.2790    3.7940  -23.4540 C   0  0  0  0  0  0
    1.3630    2.4880  -24.4890 C   0  0  0  0  0  0
   -0.7670    3.3020  -24.4420 C   0  0  0  0  0  0
   -0.2580    4.5210  -23.8250 C   0  0  0  0  0  0
   -2.2080    3.3090  -24.8400 C   0  0  0  0  0  0
    3.8750    1.2950  -23.1470 C   0  0  0  0  0  0
    4.7730    0.9370  -21.9730 C   0  0  2  0  0  0
    6.3820    2.4780  -22.4590 C   0  0  2  0  0  0
    4.7200    1.9370  -20.8060 C   0  0  0  0  0  0
   -2.4900    3.4710  -26.2770 C   0  0  0  0  0  0
   -1.8800    2.7050  -21.8850 C   0  0  0  0  0  0
   -0.8650    2.3560  -21.3490 C   0  0  0  0  0  0
   -1.1090    5.5660  -23.5050 F   0  0  0  0  0  0
   -4.1110    2.9920  -20.4230 F   0  0  0  0  0  0
    1.5210    5.8710  -22.9860 N   0  0  0  0  0  0
    3.7390    4.9440  -22.9920 N   0  0  0  0  0  0
    0.0660    2.4000  -24.8340 N   0  0  0  0  0  0
    4.2020    2.7460  -23.6040 N   0  0  0  0  0  0
    6.1940    1.0050  -22.4120 N   0  0  1  0  0  0
   -3.9620    3.6710  -28.0780 O   0  0  0  0  0  0
   -6.3306    3.5533  -21.4869 H   0  0  0  0  0  0
   -6.7361    3.8778  -23.8905 H   0  0  0  0  0  0
    5.2658    3.8968  -21.2481 H   0  0  0  0  0  0
    6.4945    2.9171  -20.3332 H   0  0  0  0  0  0
    6.0940    2.6108  -24.5916 H   0  0  0  0  0  0
    5.8152    4.1442  -23.7052 H   0  0  0  0  0  0
   -5.8633    3.9456  -26.2283 H   0  0  0  0  0  0
    2.0096    1.6587  -24.7521 H   0  0  0  0  0  0
    2.8222    1.2385  -22.8334 H   0  0  0  0  0  0
    4.0617    0.5985  -23.9777 H   0  0  0  0  0  0
    4.5368   -0.0755  -21.6136 H   0  0  0  0  0  0
    7.4514    2.7353  -22.4721 H   0  0  0  0  0  0
    3.7360    2.4285  -20.7909 H   0  0  0  0  0  0
    4.9914    1.4215  -19.8729 H   0  0  0  0  0  0
   -1.6975    3.4519  -27.0163 H   0  0  0  0  0  0
    0.0279    2.0490  -20.8761 H   0  0  0  0  0  0
    6.8196    0.5056  -21.6870 H   0  0  0  0  0  0
   -3.1047    3.5839  -28.4779 H   0  0  0  0  0  0
    7.6600   10.5460  -22.2040 F   0  0  0  0  0  0
    6.6890    8.3870  -20.6330 N   0  3  0  0  0  0
    5.2820    8.4800  -21.1710 C   0  0  0  0  0  0
    7.8060    8.2080  -21.6350 C   0  0  0  0  0  0
    3.3820    7.2450  -22.3110 C   0  0  0  0  0  0
    4.8150    7.1410  -21.7630 C   0  0  0  0  0  0
    7.8150    9.2740  -22.7490 C   0  0  0  0  0  0
    6.7350    7.6451  -19.9521 H   0  0  0  0  0  0
    6.8809    9.1967  -20.0642 H   0  0  0  0  0  0
    5.2380    9.2587  -21.9467 H   0  0  0  0  0  0
    4.6001    8.7810  -20.3621 H   0  0  0  0  0  0
    7.7340    7.2082  -22.0879 H   0  0  0  0  0  0
    8.7728    8.2200  -21.1105 H   0  0  0  0  0  0
    3.3590    7.9715  -23.1366 H   0  0  0  0  0  0
    2.7199    7.6470  -21.5299 H   0  0  0  0  0  0
    4.8540    6.3642  -20.9852 H   0  0  0  0  0  0
    5.4960    6.8410  -22.5730 H   0  0  0  0  0  0
    8.7673    9.2230  -23.2972 H   0  0  0  0  0  0
    6.9933    9.0751  -23.4527 H   0  0  0  0  0  0
  1  2  2  0  0  0
  1  3  1  0  0  0
  1 34  1  0  0  0
  2  6  1  0  0  0
  2 35  1  0  0  0
  3  5  2  0  0  0
  3 27  1  0  0  0
  4  5  1  0  0  0
  4  6  2  0  0  0
  4 18  1  0  0  0
  5 24  1  0  0  0
  6 10  1  0  0  0
  7 10  2  0  0  0
  7 23  1  0  0  0
  7 33  1  0  0  0
  8 21  1  0  0  0
  8 22  1  0  0  0
  8 36  1  0  0  0
  8 37  1  0  0  0
  9 21  1  0  0  0
  9 31  1  0  0  0
  9 38  1  0  0  0
  9 39  1  0  0  0
 10 40  1  0  0  0
 11 12  1  0  0  0
 11 14  2  0  0  0
 11 15  1  0  0  0
 12 17  1  0  0  0
 12 28  2  0  0  0
 13 28  1  0  0  0
 13 29  2  0  0  0
 13 56  1  0  0  0
 14 29  1  0  0  0
 14 31  1  0  0  0
 15 30  2  0  0  0
 15 41  1  0  0  0
 16 17  2  0  0  0
 16 18  1  0  0  0
 16 30  1  0  0  0
 17 26  1  0  0  0
 18 23  2  0  0  0
 19 20  1  0  0  0
 19 31  1  0  0  0
 19 42  1  0  0  0
 19 43  1  0  0  0
 20 22  1  0  0  0
 20 32  1  0  0  0
 20 44  1  0  0  0
 21 32  1  0  0  0
 21 45  1  0  0  0
 22 46  1  0  0  0
 22 47  1  0  0  0
 23 48  1  0  0  0
 24 25  3  0  0  0
 25 49  1  0  0  0
 32 50  1  0  0  0
 33 51  1  0  0  0
 52 58  1  0  0  0
 53 54  1  0  0  0
 53 55  1  0  0  0
 53 59  1  0  0  0
 53 60  1  0  0  0
 54 57  1  0  0  0
 54 61  1  0  0  0
 54 62  1  0  0  0
 55 58  1  0  0  0
 55 63  1  0  0  0
 55 64  1  0  0  0
 56 57  1  0  0  0
 56 65  1  0  0  0
 56 66  1  0  0  0
 57 67  1  0  0  0
 57 68  1  0  0  0
 58 69  1  0  0  0
 58 70  1  0  0  0
M  CHG  1  53   1
M  END
> <s_m_entry_id>
51

> <s_m_entry_name>
000000051.1

> <s_m_Source_Path>
/Users/zaksoul/Documents/2

> <s_m_Source_File>
000000051.mol2

> <i_m_Source_File_Index>
1

$$$$
No_0_54
                    3D
 Schrodinger Suite 2022-4.
 70 75  0  0  1  0            999 V2000
   -5.3860    3.1460  -22.1200 C   0  0  0  0  0  0
   -5.6310    3.3290  -23.4610 C   0  0  0  0  0  0
   -4.1470    2.9340  -21.7550 C   0  0  0  0  0  0
   -3.2170    3.0960  -23.9010 C   0  0  0  0  0  0
   -3.0770    2.8530  -22.4780 C   0  0  0  0  0  0
   -4.5610    3.3140  -24.4490 C   0  0  0  0  0  0
   -3.7630    3.3670  -26.6310 C   0  0  0  0  0  0
    5.8760    2.9470  -21.1680 C   0  0  0  0  0  0
    5.7850    3.0920  -23.7200 C   0  0  0  0  0  0
   -4.7890    3.4370  -25.7890 C   0  0  0  0  0  0
    1.9850    3.5120  -23.8140 C   0  0  0  0  0  0
    1.1210    4.5910  -23.5290 C   0  0  0  0  0  0
    2.8630    5.8450  -22.8100 C   0  0  0  0  0  0
    3.3710    3.7490  -23.4720 C   0  0  0  0  0  0
    1.4900    2.3790  -24.4880 C   0  0  0  0  0  0
   -0.6650    3.1200  -24.4200 C   0  0  0  0  0  0
   -0.1920    4.3550  -23.8080 C   0  0  0  0  0  0
   -2.1100    3.0780  -24.8040 C   0  0  0  0  0  0
    4.0550    1.2720  -23.1720 C   0  0  0  0  0  0
    4.9760    0.9450  -22.0070 C   0  0  2  0  0  0
    6.5270    2.5400  -22.5080 C   0  0  2  0  0  0
    4.9010    1.9420  -20.8390 C   0  0  0  0  0  0
   -2.4110    3.2300  -26.2380 C   0  0  0  0  0  0
   -1.7320    2.4840  -21.8530 C   0  0  0  0  0  0
   -0.7010    2.1700  -21.3270 C   0  0  0  0  0  0
   -1.0760    5.3710  -23.4780 F   0  0  0  0  0  0
   -3.9570    2.6940  -20.3690 F   0  0  0  0  0  0
    1.5480    5.7640  -22.9860 N   0  0  0  0  0  0
    3.7960    4.9140  -23.0140 N   0  0  0  0  0  0
    0.1940    2.2460  -24.8210 N   0  0  0  0  0  0
    4.3280    2.7330  -23.6320 N   0  0  0  0  0  0
    6.3900    1.0610  -22.4610 N   0  0  1  0  0  0
   -3.9070    3.3800  -28.0240 O   0  0  0  0  0  0
   -6.2044    3.1801  -21.4100 H   0  0  0  0  0  0
   -6.6447    3.4906  -23.8093 H   0  0  0  0  0  0
    5.3744    3.9188  -21.2861 H   0  0  0  0  0  0
    6.6453    2.9823  -20.3825 H   0  0  0  0  0  0
    6.2130    2.6640  -24.6385 H   0  0  0  0  0  0
    5.8919    4.1865  -23.7472 H   0  0  0  0  0  0
   -5.7979    3.5886  -26.1554 H   0  0  0  0  0  0
    2.1624    1.5731  -24.7590 H   0  0  0  0  0  0
    3.0078    1.1802  -22.8481 H   0  0  0  0  0  0
    4.2579    0.5826  -24.0048 H   0  0  0  0  0  0
    4.7792   -0.0752  -21.6457 H   0  0  0  0  0  0
    7.5868    2.8337  -22.5322 H   0  0  0  0  0  0
    3.9008    2.3992  -20.8148 H   0  0  0  0  0  0
    5.1996    1.4365  -19.9088 H   0  0  0  0  0  0
   -1.6262    3.2380  -26.9857 H   0  0  0  0  0  0
    0.2065    1.8932  -20.8633 H   0  0  0  0  0  0
    7.0392    0.5830  -21.7423 H   0  0  0  0  0  0
   -3.0513    3.3216  -28.4325 H   0  0  0  0  0  0
    7.1730   11.0000  -22.8790 F   0  0  0  0  0  0
    6.8450    8.6230  -21.3570 N   0  3  0  0  0  0
    5.3480    8.5780  -21.5400 C   0  0  0  0  0  0
    7.6960    8.6630  -22.6040 C   0  0  0  0  0  0
    3.3680    7.2010  -22.3280 C   0  0  0  0  0  0
    4.8930    7.2390  -22.1420 C   0  0  0  0  0  0
    7.3220    9.8030  -23.5730 C   0  0  0  0  0  0
    7.1320    7.8441  -20.7851 H   0  0  0  0  0  0
    7.0829    9.4058  -20.7682 H   0  0  0  0  0  0
    5.0349    9.4011  -22.1991 H   0  0  0  0  0  0
    4.8551    8.7280  -20.5681 H   0  0  0  0  0  0
    7.6210    7.6992  -23.1289 H   0  0  0  0  0  0
    8.7547    8.7580  -22.3211 H   0  0  0  0  0  0
    3.0679    7.9792  -23.0452 H   0  0  0  0  0  0
    2.8771    7.4559  -21.3772 H   0  0  0  0  0  0
    5.2019    6.4164  -21.4803 H   0  0  0  0  0  0
    5.3847    7.0891  -23.1145 H   0  0  0  0  0  0
    8.1127    9.9140  -24.3297 H   0  0  0  0  0  0
    6.3800    9.5550  -24.0840 H   0  0  0  0  0  0
  1  2  2  0  0  0
  1  3  1  0  0  0
  1 34  1  0  0  0
  2  6  1  0  0  0
  2 35  1  0  0  0
  3  5  2  0  0  0
  3 27  1  0  0  0
  4  5  1  0  0  0
  4  6  2  0  0  0
  4 18  1  0  0  0
  5 24  1  0  0  0
  6 10  1  0  0  0
  7 10  2  0  0  0
  7 23  1  0  0  0
  7 33  1  0  0  0
  8 21  1  0  0  0
  8 22  1  0  0  0
  8 36  1  0  0  0
  8 37  1  0  0  0
  9 21  1  0  0  0
  9 31  1  0  0  0
  9 38  1  0  0  0
  9 39  1  0  0  0
 10 40  1  0  0  0
 11 12  1  0  0  0
 11 14  2  0  0  0
 11 15  1  0  0  0
 12 17  1  0  0  0
 12 28  2  0  0  0
 13 28  1  0  0  0
 13 29  2  0  0  0
 13 56  1  0  0  0
 14 29  1  0  0  0
 14 31  1  0  0  0
 15 30  2  0  0  0
 15 41  1  0  0  0
 16 17  2  0  0  0
 16 18  1  0  0  0
 16 30  1  0  0  0
 17 26  1  0  0  0
 18 23  2  0  0  0
 19 20  1  0  0  0
 19 31  1  0  0  0
 19 42  1  0  0  0
 19 43  1  0  0  0
 20 22  1  0  0  0
 20 32  1  0  0  0
 20 44  1  0  0  0
 21 32  1  0  0  0
 21 45  1  0  0  0
 22 46  1  0  0  0
 22 47  1  0  0  0
 23 48  1  0  0  0
 24 25  3  0  0  0
 25 49  1  0  0  0
 32 50  1  0  0  0
 33 51  1  0  0  0
 52 58  1  0  0  0
 53 54  1  0  0  0
 53 55  1  0  0  0
 53 59  1  0  0  0
 53 60  1  0  0  0
 54 57  1  0  0  0
 54 61  1  0  0  0
 54 62  1  0  0  0
 55 58  1  0  0  0
 55 63  1  0  0  0
 55 64  1  0  0  0
 56 57  1  0  0  0
 56 65  1  0  0  0
 56 66  1  0  0  0
 57 67  1  0  0  0
 57 68  1  0  0  0
 58 69  1  0  0  0
 58 70  1  0  0  0
M  CHG  1  53   1
M  END
> <s_m_entry_id>
52

> <s_m_entry_name>
000000052.1

> <s_m_Source_Path>
/Users/zaksoul/Documents/2

> <s_m_Source_File>
000000052.mol2

> <i_m_Source_File_Index>
1

$$$$
No_0_55
                    3D
 Schrodinger Suite 2022-4.
 70 75  0  0  1  0            999 V2000
   -5.3490    3.4360  -22.2980 C   0  0  0  0  0  0
   -5.5480    3.6420  -23.6420 C   0  0  0  0  0  0
   -4.1290    3.1800  -21.8980 C   0  0  0  0  0  0
   -3.1300    3.3350  -24.0140 C   0  0  0  0  0  0
   -3.0400    3.0730  -22.5910 C   0  0  0  0  0  0
   -4.4500    3.6030  -24.5990 C   0  0  0  0  0  0
   -3.5850    3.6530  -26.7560 C   0  0  0  0  0  0
    5.8680    2.8620  -21.0170 C   0  0  0  0  0  0
    5.8580    3.0370  -23.5680 C   0  0  0  0  0  0
   -4.6340    3.7470  -25.9440 C   0  0  0  0  0  0
    2.0780    3.5810  -23.7690 C   0  0  0  0  0  0
    1.2410    4.6850  -23.4980 C   0  0  0  0  0  0
    3.0000    5.8740  -22.7130 C   0  0  0  0  0  0
    3.4600    3.7700  -23.3840 C   0  0  0  0  0  0
    1.5670    2.4720  -24.4710 C   0  0  0  0  0  0
   -0.5640    3.2820  -24.4580 C   0  0  0  0  0  0
   -0.0710    4.4950  -23.8170 C   0  0  0  0  0  0
   -1.9980    3.2910  -24.8850 C   0  0  0  0  0  0
    4.0550    1.2690  -23.0930 C   0  0  0  0  0  0
    4.9300    0.8990  -21.9060 C   0  0  2  0  0  0
    6.5450    2.4480  -22.3420 C   0  0  2  0  0  0
    4.8520    1.8860  -20.7280 C   0  0  0  0  0  0
   -2.2510    3.4680  -26.3250 C   0  0  0  0  0  0
   -1.7270    2.6530  -21.9300 C   0  0  0  0  0  0
   -0.7230    2.3000  -21.3780 C   0  0  0  0  0  0
   -0.9300    5.5350  -23.5020 F   0  0  0  0  0  0
   -3.9880    2.9200  -20.5100 F   0  0  0  0  0  0
    1.6880    5.8380  -22.9280 N   0  0  0  0  0  0
    3.9080    4.9150  -22.9000 N   0  0  0  0  0  0
    0.2780    2.3850  -24.8430 N   0  0  0  0  0  0
    4.3880    2.7250  -23.5280 N   0  0  0  0  0  0
    6.3590    0.9740  -22.3160 N   0  0  1  0  0  0
   -3.6880    3.6860  -28.1520 O   0  0  0  0  0  0
   -6.1862    3.4892  -21.6114 H   0  0  0  0  0  0
   -6.5451    3.8398  -24.0185 H   0  0  0  0  0  0
    5.4018    3.8509  -21.1381 H   0  0  0  0  0  0
    6.6149    2.8640  -20.2095 H   0  0  0  0  0  0
    6.2991    2.6050  -24.4784 H   0  0  0  0  0  0
    6.0003    4.1277  -23.5801 H   0  0  0  0  0  0
   -5.6262    3.9358  -26.3377 H   0  0  0  0  0  0
    2.2215    1.6479  -24.7310 H   0  0  0  0  0  0
    2.9962    1.2065  -22.8016 H   0  0  0  0  0  0
    4.2598    0.5820  -23.9273 H   0  0  0  0  0  0
    4.6887   -0.1175  -21.5618 H   0  0  0  0  0  0
    7.6140    2.7072  -22.3319 H   0  0  0  0  0  0
    3.8663    2.3743  -20.7280 H   0  0  0  0  0  0
    5.1062    1.3604  -19.7958 H   0  0  0  0  0  0
   -1.4440    3.4590  -27.0487 H   0  0  0  0  0  0
    0.1612    1.9893  -20.8914 H   0  0  0  0  0  0
    6.9710    0.4679  -21.5841 H   0  0  0  0  0  0
   -2.8228    3.6039  -28.5357 H   0  0  0  0  0  0
    6.9820   11.2730  -23.0900 F   0  0  0  0  0  0
    7.0710    8.7470  -21.7900 N   0  3  0  0  0  0
    5.5710    8.6260  -21.6780 C   0  0  0  0  0  0
    7.6500    8.9580  -23.1700 C   0  0  0  0  0  0
    3.5330    7.2080  -22.2000 C   0  0  0  0  0  0
    5.0620    7.3230  -22.3160 C   0  0  0  0  0  0
    7.0400   10.1570  -23.9210 C   0  0  0  0  0  0
    7.5009    7.9372  -21.3711 H   0  0  0  0  0  0
    7.3898    9.4846  -21.1814 H   0  0  0  0  0  0
    5.0962    9.4856  -22.1737 H   0  0  0  0  0  0
    5.2799    8.6530  -20.6176 H   0  0  0  0  0  0
    7.5120    8.0443  -23.7668 H   0  0  0  0  0  0
    8.7390    9.0920  -23.0920 H   0  0  0  0  0  0
    3.0619    8.0292  -22.7601 H   0  0  0  0  0  0
    3.2349    7.3411  -21.1496 H   0  0  0  0  0  0
    5.5329    6.4632  -21.8171 H   0  0  0  0  0  0
    5.3522    7.2970  -23.3767 H   0  0  0  0  0  0
    7.6550   10.3890  -24.8030 H   0  0  0  0  0  0
    6.0252    9.9001  -24.2589 H   0  0  0  0  0  0
  1  2  2  0  0  0
  1  3  1  0  0  0
  1 34  1  0  0  0
  2  6  1  0  0  0
  2 35  1  0  0  0
  3  5  2  0  0  0
  3 27  1  0  0  0
  4  5  1  0  0  0
  4  6  2  0  0  0
  4 18  1  0  0  0
  5 24  1  0  0  0
  6 10  1  0  0  0
  7 10  2  0  0  0
  7 23  1  0  0  0
  7 33  1  0  0  0
  8 21  1  0  0  0
  8 22  1  0  0  0
  8 36  1  0  0  0
  8 37  1  0  0  0
  9 21  1  0  0  0
  9 31  1  0  0  0
  9 38  1  0  0  0
  9 39  1  0  0  0
 10 40  1  0  0  0
 11 12  1  0  0  0
 11 14  2  0  0  0
 11 15  1  0  0  0
 12 17  1  0  0  0
 12 28  2  0  0  0
 13 28  1  0  0  0
 13 29  2  0  0  0
 13 56  1  0  0  0
 14 29  1  0  0  0
 14 31  1  0  0  0
 15 30  2  0  0  0
 15 41  1  0  0  0
 16 17  2  0  0  0
 16 18  1  0  0  0
 16 30  1  0  0  0
 17 26  1  0  0  0
 18 23  2  0  0  0
 19 20  1  0  0  0
 19 31  1  0  0  0
 19 42  1  0  0  0
 19 43  1  0  0  0
 20 22  1  0  0  0
 20 32  1  0  0  0
 20 44  1  0  0  0
 21 32  1  0  0  0
 21 45  1  0  0  0
 22 46  1  0  0  0
 22 47  1  0  0  0
 23 48  1  0  0  0
 24 25  3  0  0  0
 25 49  1  0  0  0
 32 50  1  0  0  0
 33 51  1  0  0  0
 52 58  1  0  0  0
 53 54  1  0  0  0
 53 55  1  0  0  0
 53 59  1  0  0  0
 53 60  1  0  0  0
 54 57  1  0  0  0
 54 61  1  0  0  0
 54 62  1  0  0  0
 55 58  1  0  0  0
 55 63  1  0  0  0
 55 64  1  0  0  0
 56 57  1  0  0  0
 56 65  1  0  0  0
 56 66  1  0  0  0
 57 67  1  0  0  0
 57 68  1  0  0  0
 58 69  1  0  0  0
 58 70  1  0  0  0
M  CHG  1  53   1
M  END
> <s_m_entry_id>
53

> <s_m_entry_name>
000000053.1

> <s_m_Source_Path>
/Users/zaksoul/Documents/2

> <s_m_Source_File>
000000053.mol2

> <i_m_Source_File_Index>
1

$$$$
No_0_56
                    3D
 Schrodinger Suite 2022-4.
 69 74  0  0  1  0            999 V2000
   -5.4080    3.4140  -22.2380 C   0  0  0  0  0  0
   -5.6300    3.5620  -23.5860 C   0  0  0  0  0  0
   -4.1800    3.1810  -21.8490 C   0  0  0  0  0  0
   -3.2180    3.2520  -23.9860 C   0  0  0  0  0  0
   -3.1030    3.0500  -22.5550 C   0  0  0  0  0  0
   -4.5490    3.4880  -24.5590 C   0  0  0  0  0  0
   -3.7210    3.4530  -26.7310 C   0  0  0  0  0  0
    5.8320    2.9510  -21.1260 C   0  0  0  0  0  0
    5.7780    3.0190  -23.6810 C   0  0  0  0  0  0
   -4.7560    3.5750  -25.9050 C   0  0  0  0  0  0
    1.9920    3.5350  -23.8400 C   0  0  0  0  0  0
    1.1530    4.6450  -23.6010 C   0  0  0  0  0  0
    2.9190    5.8740  -22.8970 C   0  0  0  0  0  0
    3.3790    3.7460  -23.4860 C   0  0  0  0  0  0
    1.4760    2.3950  -24.4870 C   0  0  0  0  0  0
   -0.6600    3.1930  -24.4700 C   0  0  0  0  0  0
   -0.1620    4.4350  -23.8900 C   0  0  0  0  0  0
   -2.1000    3.1770  -24.8730 C   0  0  0  0  0  0
    3.9930    1.2630  -23.1020 C   0  0  0  0  0  0
    4.8910    0.9480  -21.9150 C   0  0  2  0  0  0
    6.4890    2.4860  -22.4430 C   0  0  2  0  0  0
    4.8260    1.9820  -20.7790 C   0  0  0  0  0  0
   -2.3790    3.2930  -26.3150 C   0  0  0  0  0  0
   -1.7760    2.6650  -21.9000 C   0  0  0  0  0  0
   -0.7600    2.3410  -21.3500 C   0  0  0  0  0  0
   -1.0230    5.4820  -23.6040 F   0  0  0  0  0  0
   -4.0140    2.9800  -20.4540 F   0  0  0  0  0  0
    1.6040    5.8220  -23.0880 N   0  0  0  0  0  0
    3.8290    4.9130  -23.0590 N   0  0  0  0  0  0
    0.1810    2.2860  -24.8320 N   0  0  0  0  0  0
    4.3110    2.7010  -23.6030 N   0  0  0  0  0  0
    6.3120    1.0130  -22.3530 N   0  0  1  0  0  0
   -3.8470    3.4260  -28.1250 O   0  0  0  0  0  0
   -6.2341    3.4913  -21.5404 H   0  0  0  0  0  0
   -6.6345    3.7386  -23.9533 H   0  0  0  0  0  0
    5.3578    3.9316  -21.2794 H   0  0  0  0  0  0
    6.5920    2.9904  -20.3317 H   0  0  0  0  0  0
    6.2059    2.5517  -24.5802 H   0  0  0  0  0  0
    5.9132    4.1090  -23.7416 H   0  0  0  0  0  0
   -5.7554    3.7416  -26.2903 H   0  0  0  0  0  0
    2.1301    1.5633  -24.7228 H   0  0  0  0  0  0
    2.9396    1.2075  -22.7902 H   0  0  0  0  0  0
    4.1887    0.5427  -23.9100 H   0  0  0  0  0  0
    4.6620   -0.0549  -21.5255 H   0  0  0  0  0  0
    7.5566    2.7504  -22.4622 H   0  0  0  0  0  0
    3.8379    2.4654  -20.7820 H   0  0  0  0  0  0
    5.0996    1.4975  -19.8301 H   0  0  0  0  0  0
   -1.5839    3.2579  -27.0509 H   0  0  0  0  0  0
    0.1339    2.0550  -20.8660 H   0  0  0  0  0  0
    6.9392    0.5407  -21.6114 H   0  0  0  0  0  0
   -2.9880    3.3330  -28.5199 H   0  0  0  0  0  0
    8.0800   10.6650  -20.8870 O   0  5  0  0  0  0
    9.0530    9.6460  -22.6830 O   0  0  0  0  0  0
    5.7840    9.2360  -21.5040 N   0  3  0  0  0  0
    4.8270    8.4440  -20.6580 C   0  0  0  0  0  0
    3.4520    7.2310  -22.4490 C   0  0  0  0  0  0
    4.4610    7.0920  -21.2930 C   0  0  0  0  0  0
    7.1500    8.6270  -21.6820 C   0  0  0  0  0  0
    8.1720    9.7300  -21.7580 C   0  0  0  0  0  0
    5.8810   10.1626  -21.1192 H   0  0  0  0  0  0
    5.3719    9.4000  -22.4092 H   0  0  0  0  0  0
    3.9111    9.0310  -20.4950 H   0  0  0  0  0  0
    5.2701    8.2739  -19.6657 H   0  0  0  0  0  0
    3.9369    7.7319  -23.2998 H   0  0  0  0  0  0
    2.6137    7.8672  -22.1289 H   0  0  0  0  0  0
    4.0439    6.4278  -20.5218 H   0  0  0  0  0  0
    5.3743    6.6018  -21.6611 H   0  0  0  0  0  0
    7.1720    8.0430  -22.6139 H   0  0  0  0  0  0
    7.3751    7.9757  -20.8246 H   0  0  0  0  0  0
  1  2  2  0  0  0
  1  3  1  0  0  0
  1 34  1  0  0  0
  2  6  1  0  0  0
  2 35  1  0  0  0
  3  5  2  0  0  0
  3 27  1  0  0  0
  4  5  1  0  0  0
  4  6  2  0  0  0
  4 18  1  0  0  0
  5 24  1  0  0  0
  6 10  1  0  0  0
  7 10  2  0  0  0
  7 23  1  0  0  0
  7 33  1  0  0  0
  8 21  1  0  0  0
  8 22  1  0  0  0
  8 36  1  0  0  0
  8 37  1  0  0  0
  9 21  1  0  0  0
  9 31  1  0  0  0
  9 38  1  0  0  0
  9 39  1  0  0  0
 10 40  1  0  0  0
 11 12  1  0  0  0
 11 14  2  0  0  0
 11 15  1  0  0  0
 12 17  1  0  0  0
 12 28  2  0  0  0
 13 28  1  0  0  0
 13 29  2  0  0  0
 13 56  1  0  0  0
 14 29  1  0  0  0
 14 31  1  0  0  0
 15 30  2  0  0  0
 15 41  1  0  0  0
 16 17  2  0  0  0
 16 18  1  0  0  0
 16 30  1  0  0  0
 17 26  1  0  0  0
 18 23  2  0  0  0
 19 20  1  0  0  0
 19 31  1  0  0  0
 19 42  1  0  0  0
 19 43  1  0  0  0
 20 22  1  0  0  0
 20 32  1  0  0  0
 20 44  1  0  0  0
 21 32  1  0  0  0
 21 45  1  0  0  0
 22 46  1  0  0  0
 22 47  1  0  0  0
 23 48  1  0  0  0
 24 25  3  0  0  0
 25 49  1  0  0  0
 32 50  1  0  0  0
 33 51  1  0  0  0
 52 59  1  0  0  0
 53 59  2  0  0  0
 54 55  1  0  0  0
 54 58  1  0  0  0
 54 60  1  0  0  0
 54 61  1  0  0  0
 55 57  1  0  0  0
 55 62  1  0  0  0
 55 63  1  0  0  0
 56 57  1  0  0  0
 56 64  1  0  0  0
 56 65  1  0  0  0
 57 66  1  0  0  0
 57 67  1  0  0  0
 58 59  1  0  0  0
 58 68  1  0  0  0
 58 69  1  0  0  0
M  CHG  2  52  -1  54   1
M  END
> <s_m_entry_id>
54

> <s_m_entry_name>
000000054.1

> <s_m_Source_Path>
/Users/zaksoul/Documents/2

> <s_m_Source_File>
000000054.mol2

> <i_m_Source_File_Index>
1

$$$$
No_0_57
                    3D
 Schrodinger Suite 2022-4.
 69 74  0  0  1  0            999 V2000
   -5.2210    3.5590  -22.1140 C   0  0  0  0  0  0
   -5.4500    3.7340  -23.4590 C   0  0  0  0  0  0
   -3.9910    3.3200  -21.7350 C   0  0  0  0  0  0
   -3.0380    3.4350  -23.8750 C   0  0  0  0  0  0
   -2.9170    3.2050  -22.4480 C   0  0  0  0  0  0
   -4.3720    3.6810  -24.4380 C   0  0  0  0  0  0
   -3.5540    3.6890  -26.6130 C   0  0  0  0  0  0
    6.0240    3.0880  -21.0610 C   0  0  0  0  0  0
    5.9580    3.2060  -23.6150 C   0  0  0  0  0  0
   -4.5860    3.7940  -25.7810 C   0  0  0  0  0  0
    2.1710    3.7210  -23.7470 C   0  0  0  0  0  0
    1.3320    4.8250  -23.4820 C   0  0  0  0  0  0
    3.1000    6.0420  -22.7610 C   0  0  0  0  0  0
    3.5600    3.9270  -23.3950 C   0  0  0  0  0  0
    1.6540    2.5930  -24.4130 C   0  0  0  0  0  0
   -0.4830    3.3880  -24.3720 C   0  0  0  0  0  0
    0.0160    4.6190  -23.7690 C   0  0  0  0  0  0
   -1.9250    3.3780  -24.7680 C   0  0  0  0  0  0
    4.1780    1.4370  -23.0620 C   0  0  0  0  0  0
    5.0810    1.1000  -21.8860 C   0  0  2  0  0  0
    6.6760    2.6500  -22.3900 C   0  0  2  0  0  0
    5.0210    2.1120  -20.7290 C   0  0  0  0  0  0
   -2.2100    3.5220  -26.2070 C   0  0  0  0  0  0
   -1.5870    2.8090  -21.8070 C   0  0  0  0  0  0
   -0.5690    2.4750  -21.2690 C   0  0  0  0  0  0
   -0.8440    5.6590  -23.4590 F   0  0  0  0  0  0
   -3.8190    3.0920  -20.3450 F   0  0  0  0  0  0
    1.7840    5.9930  -22.9480 N   0  0  0  0  0  0
    4.0100    5.0860  -22.9470 N   0  0  0  0  0  0
    0.3580    2.4890  -24.7550 N   0  0  0  0  0  0
    4.4920    2.8850  -23.5360 N   0  0  0  0  0  0
    6.5010    1.1750  -22.3280 N   0  0  1  0  0  0
   -3.6860    3.6890  -28.0070 O   0  0  0  0  0  0
   -6.0440    3.6222  -21.4114 H   0  0  0  0  0  0
   -6.4562    3.9168  -23.8185 H   0  0  0  0  0  0
    5.5478    4.0707  -21.1932 H   0  0  0  0  0  0
    6.7874    3.1122  -20.2694 H   0  0  0  0  0  0
    6.3830    2.7567  -24.5247 H   0  0  0  0  0  0
    6.0932    4.2970  -23.6534 H   0  0  0  0  0  0
   -5.5875    3.9666  -26.1583 H   0  0  0  0  0  0
    2.3075    1.7669  -24.6690 H   0  0  0  0  0  0
    3.1262    1.3744  -22.7461 H   0  0  0  0  0  0
    4.3706    0.7330  -23.8850 H   0  0  0  0  0  0
    4.8551    0.0894  -21.5149 H   0  0  0  0  0  0
    7.7433    2.9156  -22.4082 H   0  0  0  0  0  0
    4.0324    2.5942  -20.7189 H   0  0  0  0  0  0
    5.2985    1.6095  -19.7906 H   0  0  0  0  0  0
   -1.4180    3.5019  -26.9468 H   0  0  0  0  0  0
    0.3274    2.1812  -20.7943 H   0  0  0  0  0  0
    7.1317    0.6897  -21.5979 H   0  0  0  0  0  0
   -2.8288    3.6049  -28.4079 H   0  0  0  0  0  0
    8.2630   11.0620  -21.4320 O   0  5  0  0  0  0
    8.8460   10.3230  -23.5120 O   0  0  0  0  0  0
    5.9860    9.4970  -21.6730 N   0  3  0  0  0  0
    5.3120    8.5390  -20.7300 C   0  0  0  0  0  0
    3.6340    7.3910  -22.2900 C   0  0  0  0  0  0
    4.8960    7.2300  -21.4200 C   0  0  0  0  0  0
    7.3070    9.0370  -22.2300 C   0  0  0  0  0  0
    8.2070   10.2320  -22.4060 C   0  0  0  0  0  0
    6.1100   10.3848  -21.2121 H   0  0  0  0  0  0
    5.3599    9.7120  -22.4331 H   0  0  0  0  0  0
    4.4247    9.0202  -20.2928 H   0  0  0  0  0  0
    5.9893    8.3119  -19.8936 H   0  0  0  0  0  0
    3.8681    8.0173  -23.1634 H   0  0  0  0  0  0
    2.8559    7.9110  -21.7119 H   0  0  0  0  0  0
    4.7190    6.4558  -20.6589 H   0  0  0  0  0  0
    5.7253    6.8659  -22.0442 H   0  0  0  0  0  0
    7.1450    8.5540  -23.2049 H   0  0  0  0  0  0
    7.7730    8.3270  -21.5310 H   0  0  0  0  0  0
  1  2  2  0  0  0
  1  3  1  0  0  0
  1 34  1  0  0  0
  2  6  1  0  0  0
  2 35  1  0  0  0
  3  5  2  0  0  0
  3 27  1  0  0  0
  4  5  1  0  0  0
  4  6  2  0  0  0
  4 18  1  0  0  0
  5 24  1  0  0  0
  6 10  1  0  0  0
  7 10  2  0  0  0
  7 23  1  0  0  0
  7 33  1  0  0  0
  8 21  1  0  0  0
  8 22  1  0  0  0
  8 36  1  0  0  0
  8 37  1  0  0  0
  9 21  1  0  0  0
  9 31  1  0  0  0
  9 38  1  0  0  0
  9 39  1  0  0  0
 10 40  1  0  0  0
 11 12  1  0  0  0
 11 14  2  0  0  0
 11 15  1  0  0  0
 12 17  1  0  0  0
 12 28  2  0  0  0
 13 28  1  0  0  0
 13 29  2  0  0  0
 13 56  1  0  0  0
 14 29  1  0  0  0
 14 31  1  0  0  0
 15 30  2  0  0  0
 15 41  1  0  0  0
 16 17  2  0  0  0
 16 18  1  0  0  0
 16 30  1  0  0  0
 17 26  1  0  0  0
 18 23  2  0  0  0
 19 20  1  0  0  0
 19 31  1  0  0  0
 19 42  1  0  0  0
 19 43  1  0  0  0
 20 22  1  0  0  0
 20 32  1  0  0  0
 20 44  1  0  0  0
 21 32  1  0  0  0
 21 45  1  0  0  0
 22 46  1  0  0  0
 22 47  1  0  0  0
 23 48  1  0  0  0
 24 25  3  0  0  0
 25 49  1  0  0  0
 32 50  1  0  0  0
 33 51  1  0  0  0
 52 59  1  0  0  0
 53 59  2  0  0  0
 54 55  1  0  0  0
 54 58  1  0  0  0
 54 60  1  0  0  0
 54 61  1  0  0  0
 55 57  1  0  0  0
 55 62  1  0  0  0
 55 63  1  0  0  0
 56 57  1  0  0  0
 56 64  1  0  0  0
 56 65  1  0  0  0
 57 66  1  0  0  0
 57 67  1  0  0  0
 58 59  1  0  0  0
 58 68  1  0  0  0
 58 69  1  0  0  0
M  CHG  2  52  -1  54   1
M  END
> <s_m_entry_id>
55

> <s_m_entry_name>
000000055.1

> <s_m_Source_Path>
/Users/zaksoul/Documents/2

> <s_m_Source_File>
000000055.mol2

> <i_m_Source_File_Index>
1

$$$$
No_0_58
                    3D
 Schrodinger Suite 2022-4.
 71 77  0  0  1  0            999 V2000
   -5.4230    3.2250  -22.0670 C   0  0  0  0  0  0
   -5.6830    3.3850  -23.4070 C   0  0  0  0  0  0
   -4.1780    3.0270  -21.7110 C   0  0  0  0  0  0
   -3.2720    3.1610  -23.8700 C   0  0  0  0  0  0
   -3.1150    2.9420  -22.4450 C   0  0  0  0  0  0
   -4.6250    3.3620  -24.4070 C   0  0  0  0  0  0
   -3.8500    3.3860  -26.5980 C   0  0  0  0  0  0
    5.8510    3.1150  -21.2370 C   0  0  0  0  0  0
    5.7300    3.2190  -23.7900 C   0  0  0  0  0  0
   -4.8680    3.4620  -25.7460 C   0  0  0  0  0  0
    1.9270    3.6120  -23.8480 C   0  0  0  0  0  0
    1.0590    4.6910  -23.5710 C   0  0  0  0  0  0
    2.8010    5.9670  -22.8910 C   0  0  0  0  0  0
    3.3150    3.8640  -23.5250 C   0  0  0  0  0  0
    1.4320    2.4660  -24.4990 C   0  0  0  0  0  0
   -0.7270    3.1930  -24.4180 C   0  0  0  0  0  0
   -0.2560    4.4420  -23.8310 C   0  0  0  0  0  0
   -2.1760    3.1360  -24.7850 C   0  0  0  0  0  0
    4.0190    1.3970  -23.1940 C   0  0  0  0  0  0
    4.9550    1.0940  -22.0350 C   0  0  2  0  0  0
    6.4900    2.6910  -22.5780 C   0  0  2  0  0  0
    4.8860    2.1090  -20.8810 C   0  0  0  0  0  0
   -2.4940    3.2640  -26.2180 C   0  0  0  0  0  0
   -1.7610    2.5910  -21.8300 C   0  0  0  0  0  0
   -0.7220    2.2920  -21.3100 C   0  0  0  0  0  0
   -1.1420    5.4560  -23.5080 F   0  0  0  0  0  0
   -3.9710    2.8110  -20.3240 F   0  0  0  0  0  0
    1.4840    5.8750  -23.0500 N   0  0  0  0  0  0
    3.7370    5.0390  -23.0900 N   0  0  0  0  0  0
    0.1340    2.3190  -24.8150 N   0  0  0  0  0  0
    4.2770    2.8520  -23.6800 N   0  0  0  0  0  0
    6.3630    1.2120  -22.5060 N   0  0  1  0  0  0
   -4.0100    3.3760  -27.9900 O   0  0  0  0  0  0
   -6.2333    3.2652  -21.3481 H   0  0  0  0  0  0
   -6.7016    3.5345  -23.7462 H   0  0  0  0  0  0
    5.3415    4.0816  -21.3641 H   0  0  0  0  0  0
    6.6284    3.1675  -20.4606 H   0  0  0  0  0  0
    6.1511    2.7787  -24.7059 H   0  0  0  0  0  0
    5.8290    4.3136  -23.8354 H   0  0  0  0  0  0
   -5.8818    3.6015  -26.1034 H   0  0  0  0  0  0
    2.1072    1.6604  -24.7639 H   0  0  0  0  0  0
    2.9761    1.3022  -22.8571 H   0  0  0  0  0  0
    4.2167    0.6959  -24.0182 H   0  0  0  0  0  0
    4.7683    0.0786  -21.6555 H   0  0  0  0  0  0
    7.5475    2.9910  -22.6184 H   0  0  0  0  0  0
    3.8827    2.5592  -20.8527 H   0  0  0  0  0  0
    5.1978    1.6196  -19.9465 H   0  0  0  0  0  0
   -1.7170    3.2650  -26.9739 H   0  0  0  0  0  0
    0.1930    2.0290  -20.8530 H   0  0  0  0  0  0
    7.0227    0.7501  -21.7864 H   0  0  0  0  0  0
   -3.1584    3.3166  -28.4069 H   0  0  0  0  0  0
    5.9420    9.0480  -21.5240 N   0  3  0  0  0  0
    6.5410   10.3540  -21.1000 C   0  0  0  0  0  0
    7.1800    8.2340  -21.2980 C   0  0  0  0  0  0
    4.7240    8.6320  -20.7390 C   0  0  0  0  0  0
    7.8550    9.5650  -20.9000 C   0  0  0  0  0  0
    4.1720    7.2580  -21.1660 C   0  0  0  0  0  0
    3.3010    7.3340  -22.4350 C   0  0  0  0  0  0
    5.7238    9.0740  -22.5078 H   0  0  0  0  0  0
    6.1458   10.5791  -20.0984 H   0  0  0  0  0  0
    6.6660   10.9598  -22.0096 H   0  0  0  0  0  0
    7.5692    7.9598  -22.2896 H   0  0  0  0  0  0
    7.0241    7.6634  -20.3706 H   0  0  0  0  0  0
    3.9390    9.3940  -20.8540 H   0  0  0  0  0  0
    4.9700    8.6110  -19.6671 H   0  0  0  0  0  0
    8.0700    9.5300  -19.8218 H   0  0  0  0  0  0
    8.5489    9.8490  -21.7049 H   0  0  0  0  0  0
    3.5814    6.8303  -20.3425 H   0  0  0  0  0  0
    5.0090    6.5650  -21.3370 H   0  0  0  0  0  0
    3.8779    7.8009  -23.2469 H   0  0  0  0  0  0
    2.4417    7.9953  -22.2499 H   0  0  0  0  0  0
  1  2  2  0  0  0
  1  3  1  0  0  0
  1 34  1  0  0  0
  2  6  1  0  0  0
  2 35  1  0  0  0
  3  5  2  0  0  0
  3 27  1  0  0  0
  4  5  1  0  0  0
  4  6  2  0  0  0
  4 18  1  0  0  0
  5 24  1  0  0  0
  6 10  1  0  0  0
  7 10  2  0  0  0
  7 23  1  0  0  0
  7 33  1  0  0  0
  8 21  1  0  0  0
  8 22  1  0  0  0
  8 36  1  0  0  0
  8 37  1  0  0  0
  9 21  1  0  0  0
  9 31  1  0  0  0
  9 38  1  0  0  0
  9 39  1  0  0  0
 10 40  1  0  0  0
 11 12  1  0  0  0
 11 14  2  0  0  0
 11 15  1  0  0  0
 12 17  1  0  0  0
 12 28  2  0  0  0
 13 28  1  0  0  0
 13 29  2  0  0  0
 13 58  1  0  0  0
 14 29  1  0  0  0
 14 31  1  0  0  0
 15 30  2  0  0  0
 15 41  1  0  0  0
 16 17  2  0  0  0
 16 18  1  0  0  0
 16 30  1  0  0  0
 17 26  1  0  0  0
 18 23  2  0  0  0
 19 20  1  0  0  0
 19 31  1  0  0  0
 19 42  1  0  0  0
 19 43  1  0  0  0
 20 22  1  0  0  0
 20 32  1  0  0  0
 20 44  1  0  0  0
 21 32  1  0  0  0
 21 45  1  0  0  0
 22 46  1  0  0  0
 22 47  1  0  0  0
 23 48  1  0  0  0
 24 25  3  0  0  0
 25 49  1  0  0  0
 32 50  1  0  0  0
 33 51  1  0  0  0
 52 53  1  0  0  0
 52 54  1  0  0  0
 52 55  1  0  0  0
 52 59  1  0  0  0
 53 56  1  0  0  0
 53 60  1  0  0  0
 53 61  1  0  0  0
 54 56  1  0  0  0
 54 62  1  0  0  0
 54 63  1  0  0  0
 55 57  1  0  0  0
 55 64  1  0  0  0
 55 65  1  0  0  0
 56 66  1  0  0  0
 56 67  1  0  0  0
 57 58  1  0  0  0
 57 68  1  0  0  0
 57 69  1  0  0  0
 58 70  1  0  0  0
 58 71  1  0  0  0
M  CHG  1  52   1
M  END
> <s_m_entry_id>
56

> <s_m_entry_name>
000000056.1

> <s_m_Source_Path>
/Users/zaksoul/Documents/2

> <s_m_Source_File>
000000056.mol2

> <i_m_Source_File_Index>
1

$$$$
No_0_59
                    3D
 Schrodinger Suite 2022-4.
 71 77  0  0  1  0            999 V2000
   -5.1650    3.4180  -22.0390 C   0  0  0  0  0  0
   -5.4290    3.5870  -23.3780 C   0  0  0  0  0  0
   -3.9230    3.1960  -21.6910 C   0  0  0  0  0  0
   -3.0250    3.3190  -23.8540 C   0  0  0  0  0  0
   -2.8650    3.0930  -22.4300 C   0  0  0  0  0  0
   -4.3750    3.5470  -24.3830 C   0  0  0  0  0  0
   -3.6110    3.5630  -26.5780 C   0  0  0  0  0  0
    6.1080    3.0940  -21.2650 C   0  0  0  0  0  0
    5.9780    3.2070  -23.8160 C   0  0  0  0  0  0
   -4.6230    3.6550  -25.7210 C   0  0  0  0  0  0
    2.1820    3.6720  -23.8550 C   0  0  0  0  0  0
    1.3360    4.7660  -23.5710 C   0  0  0  0  0  0
    3.1050    6.0070  -22.8960 C   0  0  0  0  0  0
    3.5770    3.8970  -23.5380 C   0  0  0  0  0  0
    1.6630    2.5370  -24.5070 C   0  0  0  0  0  0
   -0.4820    3.3050  -24.4140 C   0  0  0  0  0  0
    0.0160    4.5420  -23.8250 C   0  0  0  0  0  0
   -1.9330    3.2760  -24.7740 C   0  0  0  0  0  0
    4.2350    1.4160  -23.2180 C   0  0  0  0  0  0
    5.1710    1.0920  -22.0640 C   0  0  2  0  0  0
    6.7330    2.6610  -22.6090 C   0  0  2  0  0  0
    5.1260    2.1050  -20.9070 C   0  0  0  0  0  0
   -2.2550    3.4140  -26.2050 C   0  0  0  0  0  0
   -1.5150    2.7150  -21.8220 C   0  0  0  0  0  0
   -0.4790    2.3950  -21.3080 C   0  0  0  0  0  0
   -0.8500    5.5720  -23.4950 F   0  0  0  0  0  0
   -3.7130    2.9720  -20.3050 F   0  0  0  0  0  0
    1.7860    5.9400  -23.0490 N   0  0  0  0  0  0
    4.0230    5.0620  -23.1020 N   0  0  0  0  0  0
    0.3600    2.4160  -24.8170 N   0  0  0  0  0  0
    4.5180    2.8670  -23.7000 N   0  0  0  0  0  0
    6.5780    1.1850  -22.5410 N   0  0  1  0  0  0
   -3.7780    3.5590  -27.9690 O   0  0  0  0  0  0
   -5.9711    3.4712  -21.3162 H   0  0  0  0  0  0
   -6.4461    3.7567  -23.7123 H   0  0  0  0  0  0
    5.6163    4.0704  -21.3872 H   0  0  0  0  0  0
    6.8909    3.1293  -20.4932 H   0  0  0  0  0  0
    6.3858    2.7619  -24.7355 H   0  0  0  0  0  0
    6.0971    4.2997  -23.8594 H   0  0  0  0  0  0
   -5.6357    3.8146  -26.0733 H   0  0  0  0  0  0
    2.3211    1.7194  -24.7779 H   0  0  0  0  0  0
    3.1923    1.3403  -22.8758 H   0  0  0  0  0  0
    4.4156    0.7128  -24.0443 H   0  0  0  0  0  0
    4.9673    0.0794  -21.6858 H   0  0  0  0  0  0
    7.7957    2.9415  -22.6544 H   0  0  0  0  0  0
    4.1318    2.5744  -20.8727 H   0  0  0  0  0  0
    5.4338    1.6075  -19.9755 H   0  0  0  0  0  0
   -1.4820    3.4030  -26.9649 H   0  0  0  0  0  0
    0.4328    2.1131  -20.8561 H   0  0  0  0  0  0
    7.2332    0.7083  -21.8270 H   0  0  0  0  0  0
   -2.9295    3.4847  -28.3898 H   0  0  0  0  0  0
    6.3370    9.1100  -21.8190 N   0  3  0  0  0  0
    6.9600   10.4090  -21.4120 C   0  0  0  0  0  0
    7.6130    8.3250  -21.8200 C   0  0  0  0  0  0
    5.2560    8.6140  -20.8930 C   0  0  0  0  0  0
    8.3070    9.6540  -21.4480 C   0  0  0  0  0  0
    4.6810    7.2480  -21.3140 C   0  0  0  0  0  0
    3.6330    7.3630  -22.4390 C   0  0  0  0  0  0
    5.9771    9.1820  -22.7578 H   0  0  0  0  0  0
    6.7092   10.5679  -20.3528 H   0  0  0  0  0  0
    6.9360   11.0671  -22.2931 H   0  0  0  0  0  0
    7.8608    8.1171  -22.8714 H   0  0  0  0  0  0
    7.6070    7.7006  -20.9144 H   0  0  0  0  0  0
    4.4441    9.3549  -20.8500 H   0  0  0  0  0  0
    5.6549    8.5430  -19.8703 H   0  0  0  0  0  0
    8.6771    9.5680  -20.4157 H   0  0  0  0  0  0
    8.8701   10.0030  -22.3261 H   0  0  0  0  0  0
    4.2264    6.7574  -20.4407 H   0  0  0  0  0  0
    5.5002    6.5918  -21.6431 H   0  0  0  0  0  0
    4.0749    7.8909  -23.2969 H   0  0  0  0  0  0
    2.7937    7.9852  -22.0949 H   0  0  0  0  0  0
  1  2  2  0  0  0
  1  3  1  0  0  0
  1 34  1  0  0  0
  2  6  1  0  0  0
  2 35  1  0  0  0
  3  5  2  0  0  0
  3 27  1  0  0  0
  4  5  1  0  0  0
  4  6  2  0  0  0
  4 18  1  0  0  0
  5 24  1  0  0  0
  6 10  1  0  0  0
  7 10  2  0  0  0
  7 23  1  0  0  0
  7 33  1  0  0  0
  8 21  1  0  0  0
  8 22  1  0  0  0
  8 36  1  0  0  0
  8 37  1  0  0  0
  9 21  1  0  0  0
  9 31  1  0  0  0
  9 38  1  0  0  0
  9 39  1  0  0  0
 10 40  1  0  0  0
 11 12  1  0  0  0
 11 14  2  0  0  0
 11 15  1  0  0  0
 12 17  1  0  0  0
 12 28  2  0  0  0
 13 28  1  0  0  0
 13 29  2  0  0  0
 13 58  1  0  0  0
 14 29  1  0  0  0
 14 31  1  0  0  0
 15 30  2  0  0  0
 15 41  1  0  0  0
 16 17  2  0  0  0
 16 18  1  0  0  0
 16 30  1  0  0  0
 17 26  1  0  0  0
 18 23  2  0  0  0
 19 20  1  0  0  0
 19 31  1  0  0  0
 19 42  1  0  0  0
 19 43  1  0  0  0
 20 22  1  0  0  0
 20 32  1  0  0  0
 20 44  1  0  0  0
 21 32  1  0  0  0
 21 45  1  0  0  0
 22 46  1  0  0  0
 22 47  1  0  0  0
 23 48  1  0  0  0
 24 25  3  0  0  0
 25 49  1  0  0  0
 32 50  1  0  0  0
 33 51  1  0  0  0
 52 53  1  0  0  0
 52 54  1  0  0  0
 52 55  1  0  0  0
 52 59  1  0  0  0
 53 56  1  0  0  0
 53 60  1  0  0  0
 53 61  1  0  0  0
 54 56  1  0  0  0
 54 62  1  0  0  0
 54 63  1  0  0  0
 55 57  1  0  0  0
 55 64  1  0  0  0
 55 65  1  0  0  0
 56 66  1  0  0  0
 56 67  1  0  0  0
 57 58  1  0  0  0
 57 68  1  0  0  0
 57 69  1  0  0  0
 58 70  1  0  0  0
 58 71  1  0  0  0
M  CHG  1  52   1
M  END
> <s_m_entry_id>
57

> <s_m_entry_name>
000000057.1

> <s_m_Source_Path>
/Users/zaksoul/Documents/2

> <s_m_Source_File>
000000057.mol2

> <i_m_Source_File_Index>
1

$$$$
No_0_60
                    3D
 Schrodinger Suite 2022-4.
 71 77  0  0  1  0            999 V2000
   -5.4780    3.4490  -22.0700 C   0  0  0  0  0  0
   -5.7390    3.6240  -23.4090 C   0  0  0  0  0  0
   -4.2400    3.2070  -21.7210 C   0  0  0  0  0  0
   -3.3390    3.3210  -23.8840 C   0  0  0  0  0  0
   -3.1840    3.0900  -22.4600 C   0  0  0  0  0  0
   -4.6860    3.5700  -24.4130 C   0  0  0  0  0  0
   -3.9210    3.5780  -26.6080 C   0  0  0  0  0  0
    5.7880    2.9540  -21.2900 C   0  0  0  0  0  0
    5.6600    3.0740  -23.8420 C   0  0  0  0  0  0
   -4.9320    3.6840  -25.7510 C   0  0  0  0  0  0
    1.8720    3.5960  -23.8820 C   0  0  0  0  0  0
    1.0430    4.7020  -23.5960 C   0  0  0  0  0  0
    2.8290    5.9150  -22.9180 C   0  0  0  0  0  0
    3.2700    3.7990  -23.5630 C   0  0  0  0  0  0
    1.3370    2.4700  -24.5360 C   0  0  0  0  0  0
   -0.7960    3.2700  -24.4420 C   0  0  0  0  0  0
   -0.2810    4.4990  -23.8510 C   0  0  0  0  0  0
   -2.2480    3.2630  -24.8040 C   0  0  0  0  0  0
    3.8910    1.3080  -23.2470 C   0  0  0  0  0  0
    4.8210    0.9680  -22.0930 C   0  0  2  0  0  0
    6.4060    2.5150  -22.6350 C   0  0  2  0  0  0
    4.7910    1.9790  -20.9350 C   0  0  0  0  0  0
   -2.5670    3.4080  -26.2340 C   0  0  0  0  0  0
   -1.8400    2.6910  -21.8520 C   0  0  0  0  0  0
   -0.8090    2.3540  -21.3380 C   0  0  0  0  0  0
   -1.1310    5.5410  -23.5200 F   0  0  0  0  0  0
   -4.0350    2.9780  -20.3360 F   0  0  0  0  0  0
    1.5090    5.8680  -23.0720 N   0  0  0  0  0  0
    3.7330    4.9570  -23.1250 N   0  0  0  0  0  0
    0.0320    2.3690  -24.8460 N   0  0  0  0  0  0
    4.1960    2.7560  -23.7270 N   0  0  0  0  0  0
    6.2300    1.0410  -22.5700 N   0  0  1  0  0  0
   -4.0870    3.5800  -27.9990 O   0  0  0  0  0  0
   -6.2842    3.5133  -21.3482 H   0  0  0  0  0  0
   -6.7534    3.8096  -23.7431 H   0  0  0  0  0  0
    5.3108    3.9377  -21.4111 H   0  0  0  0  0  0
    6.5707    2.9762  -20.5174 H   0  0  0  0  0  0
    6.0627    2.6239  -24.7614 H   0  0  0  0  0  0
    5.7962    4.1647  -23.8834 H   0  0  0  0  0  0
   -5.9420    3.8597  -26.1034 H   0  0  0  0  0  0
    1.9825    1.6428  -24.8081 H   0  0  0  0  0  0
    2.8469    1.2475  -22.9060 H   0  0  0  0  0  0
    4.0615    0.6036  -24.0745 H   0  0  0  0  0  0
    4.6020   -0.0424  -21.7175 H   0  0  0  0  0  0
    7.4731    2.7782  -22.6794 H   0  0  0  0  0  0
    3.8040    2.4634  -20.8997 H   0  0  0  0  0  0
    5.0906    1.4756  -20.0039 H   0  0  0  0  0  0
   -1.7941    3.3869  -26.9938 H   0  0  0  0  0  0
    0.0982    2.0579  -20.8859 H   0  0  0  0  0  0
    6.8769    0.5534  -21.8557 H   0  0  0  0  0  0
   -3.2396    3.4939  -28.4197 H   0  0  0  0  0  0
    6.0560    9.1440  -22.2920 N   0  3  0  0  0  0
    6.6880   10.4460  -21.9080 C   0  0  0  0  0  0
    7.3370    8.4590  -22.6610 C   0  0  0  0  0  0
    5.2470    8.4920  -21.2010 C   0  0  0  0  0  0
    8.0280    9.7990  -22.3230 C   0  0  0  0  0  0
    4.6620    7.1280  -21.6160 C   0  0  0  0  0  0
    3.3780    7.2620  -22.4580 C   0  0  0  0  0  0
    5.4861    9.2700  -23.1138 H   0  0  0  0  0  0
    6.6810   10.4950  -20.8091 H   0  0  0  0  0  0
    6.4271   11.1736  -22.6906 H   0  0  0  0  0  0
    7.3450    8.3610  -23.7566 H   0  0  0  0  0  0
    7.5741    7.7608  -21.8447 H   0  0  0  0  0  0
    4.4301    9.1649  -20.9011 H   0  0  0  0  0  0
    5.8761    8.3640  -20.3078 H   0  0  0  0  0  0
    8.6311    9.6520  -21.4149 H   0  0  0  0  0  0
    8.3519   10.2619  -23.2668 H   0  0  0  0  0  0
    4.4489    6.5329  -20.7158 H   0  0  0  0  0  0
    5.4162    6.5658  -22.1862 H   0  0  0  0  0  0
    3.5800    7.8930  -23.3361 H   0  0  0  0  0  0
    2.6099    7.7890  -21.8729 H   0  0  0  0  0  0
  1  2  2  0  0  0
  1  3  1  0  0  0
  1 34  1  0  0  0
  2  6  1  0  0  0
  2 35  1  0  0  0
  3  5  2  0  0  0
  3 27  1  0  0  0
  4  5  1  0  0  0
  4  6  2  0  0  0
  4 18  1  0  0  0
  5 24  1  0  0  0
  6 10  1  0  0  0
  7 10  2  0  0  0
  7 23  1  0  0  0
  7 33  1  0  0  0
  8 21  1  0  0  0
  8 22  1  0  0  0
  8 36  1  0  0  0
  8 37  1  0  0  0
  9 21  1  0  0  0
  9 31  1  0  0  0
  9 38  1  0  0  0
  9 39  1  0  0  0
 10 40  1  0  0  0
 11 12  1  0  0  0
 11 14  2  0  0  0
 11 15  1  0  0  0
 12 17  1  0  0  0
 12 28  2  0  0  0
 13 28  1  0  0  0
 13 29  2  0  0  0
 13 58  1  0  0  0
 14 29  1  0  0  0
 14 31  1  0  0  0
 15 30  2  0  0  0
 15 41  1  0  0  0
 16 17  2  0  0  0
 16 18  1  0  0  0
 16 30  1  0  0  0
 17 26  1  0  0  0
 18 23  2  0  0  0
 19 20  1  0  0  0
 19 31  1  0  0  0
 19 42  1  0  0  0
 19 43  1  0  0  0
 20 22  1  0  0  0
 20 32  1  0  0  0
 20 44  1  0  0  0
 21 32  1  0  0  0
 21 45  1  0  0  0
 22 46  1  0  0  0
 22 47  1  0  0  0
 23 48  1  0  0  0
 24 25  3  0  0  0
 25 49  1  0  0  0
 32 50  1  0  0  0
 33 51  1  0  0  0
 52 53  1  0  0  0
 52 54  1  0  0  0
 52 55  1  0  0  0
 52 59  1  0  0  0
 53 56  1  0  0  0
 53 60  1  0  0  0
 53 61  1  0  0  0
 54 56  1  0  0  0
 54 62  1  0  0  0
 54 63  1  0  0  0
 55 57  1  0  0  0
 55 64  1  0  0  0
 55 65  1  0  0  0
 56 66  1  0  0  0
 56 67  1  0  0  0
 57 58  1  0  0  0
 57 68  1  0  0  0
 57 69  1  0  0  0
 58 70  1  0  0  0
 58 71  1  0  0  0
M  CHG  1  52   1
M  END
> <s_m_entry_id>
58

> <s_m_entry_name>
000000058.1

> <s_m_Source_Path>
/Users/zaksoul/Documents/2

> <s_m_Source_File>
000000058.mol2

> <i_m_Source_File_Index>
1

$$$$
No_0_61
                    3D
 Schrodinger Suite 2022-4.
 71 77  0  0  1  0            999 V2000
   -5.2020    3.3910  -22.0180 C   0  0  0  0  0  0
   -5.4470    3.5740  -23.3590 C   0  0  0  0  0  0
   -3.9630    3.1770  -21.6530 C   0  0  0  0  0  0
   -3.0330    3.3370  -23.8000 C   0  0  0  0  0  0
   -2.8930    3.0950  -22.3770 C   0  0  0  0  0  0
   -4.3780    3.5570  -24.3480 C   0  0  0  0  0  0
   -3.5790    3.6090  -26.5300 C   0  0  0  0  0  0
    6.0600    3.1780  -21.0700 C   0  0  0  0  0  0
    5.9690    3.3210  -23.6210 C   0  0  0  0  0  0
   -4.6060    3.6800  -25.6880 C   0  0  0  0  0  0
    2.1690    3.7460  -23.7140 C   0  0  0  0  0  0
    1.3070    4.8270  -23.4300 C   0  0  0  0  0  0
    3.0510    6.0790  -22.7120 C   0  0  0  0  0  0
    3.5560    3.9820  -23.3730 C   0  0  0  0  0  0
    1.6730    2.6140  -24.3890 C   0  0  0  0  0  0
   -0.4820    3.3580  -24.3200 C   0  0  0  0  0  0
   -0.0070    4.5930  -23.7080 C   0  0  0  0  0  0
   -1.9260    3.3170  -24.7030 C   0  0  0  0  0  0
    4.2360    1.5040  -23.0730 C   0  0  0  0  0  0
    5.1580    1.1760  -21.9080 C   0  0  2  0  0  0
    6.7100    2.7690  -22.4100 C   0  0  2  0  0  0
    5.0840    2.1740  -20.7400 C   0  0  0  0  0  0
   -2.2280    3.4700  -26.1370 C   0  0  0  0  0  0
   -1.5490    2.7240  -21.7520 C   0  0  0  0  0  0
   -0.5170    2.4090  -21.2260 C   0  0  0  0  0  0
   -0.8890    5.6090  -23.3790 F   0  0  0  0  0  0
   -3.7730    2.9380  -20.2670 F   0  0  0  0  0  0
    1.7350    6.0000  -22.8870 N   0  0  0  0  0  0
    3.9830    5.1460  -22.9160 N   0  0  0  0  0  0
    0.3770    2.4830  -24.7200 N   0  0  0  0  0  0
    4.5110    2.9650  -23.5330 N   0  0  0  0  0  0
    6.5710    1.2900  -22.3620 N   0  0  1  0  0  0
   -3.7240    3.6210  -27.9230 O   0  0  0  0  0  0
   -6.0204    3.4261  -21.3080 H   0  0  0  0  0  0
   -6.4606    3.7366  -23.7072 H   0  0  0  0  0  0
    5.5592    4.1504  -21.1871 H   0  0  0  0  0  0
    6.8299    3.2113  -20.2850 H   0  0  0  0  0  0
    6.3960    2.8920  -24.5395 H   0  0  0  0  0  0
    6.0769    4.4153  -23.6492 H   0  0  0  0  0  0
   -5.6147    3.8326  -26.0544 H   0  0  0  0  0  0
    2.3445    1.8070  -24.6590 H   0  0  0  0  0  0
    3.1891    1.4131  -22.7479 H   0  0  0  0  0  0
    4.4378    0.8138  -23.9054 H   0  0  0  0  0  0
    4.9592    0.1566  -21.5457 H   0  0  0  0  0  0
    7.7704    3.0606  -22.4342 H   0  0  0  0  0  0
    4.0842    2.6320  -20.7158 H   0  0  0  0  0  0
    5.3816    1.6676  -19.8099 H   0  0  0  0  0  0
   -1.4432    3.4770  -26.8847 H   0  0  0  0  0  0
    0.3903    2.1309  -20.7628 H   0  0  0  0  0  0
    7.2202    0.8120  -21.6433 H   0  0  0  0  0  0
   -2.8686    3.5616  -28.3319 H   0  0  0  0  0  0
    6.0170    9.5930  -22.4190 N   0  3  0  0  0  0
    6.5920   10.9200  -22.0330 C   0  0  0  0  0  0
    7.2440    9.0960  -23.1210 C   0  0  0  0  0  0
    5.5330    8.7580  -21.2620 C   0  0  0  0  0  0
    7.8630   10.4720  -22.7880 C   0  0  0  0  0  0
    5.0020    7.3770  -21.6950 C   0  0  0  0  0  0
    3.5570    7.4340  -22.2300 C   0  0  0  0  0  0
    5.2708    9.7230  -23.0841 H   0  0  0  0  0  0
    6.8229   10.8700  -20.9587 H   0  0  0  0  0  0
    6.0982   11.6788  -22.6578 H   0  0  0  0  0  0
    7.0200    9.0970  -24.1980 H   0  0  0  0  0  0
    7.7199    8.3611  -22.4551 H   0  0  0  0  0  0
    4.7412    9.3009  -20.7251 H   0  0  0  0  0  0
    6.3520    8.6240  -20.5400 H   0  0  0  0  0  0
    8.6624   10.3159  -22.0487 H   0  0  0  0  0  0
    7.9270   11.0518  -23.7206 H   0  0  0  0  0  0
    5.0490    6.6829  -20.8429 H   0  0  0  0  0  0
    5.6615    6.9583  -22.4694 H   0  0  0  0  0  0
    3.5020    8.1598  -23.0548 H   0  0  0  0  0  0
    2.8907    7.8142  -21.4416 H   0  0  0  0  0  0
  1  2  2  0  0  0
  1  3  1  0  0  0
  1 34  1  0  0  0
  2  6  1  0  0  0
  2 35  1  0  0  0
  3  5  2  0  0  0
  3 27  1  0  0  0
  4  5  1  0  0  0
  4  6  2  0  0  0
  4 18  1  0  0  0
  5 24  1  0  0  0
  6 10  1  0  0  0
  7 10  2  0  0  0
  7 23  1  0  0  0
  7 33  1  0  0  0
  8 21  1  0  0  0
  8 22  1  0  0  0
  8 36  1  0  0  0
  8 37  1  0  0  0
  9 21  1  0  0  0
  9 31  1  0  0  0
  9 38  1  0  0  0
  9 39  1  0  0  0
 10 40  1  0  0  0
 11 12  1  0  0  0
 11 14  2  0  0  0
 11 15  1  0  0  0
 12 17  1  0  0  0
 12 28  2  0  0  0
 13 28  1  0  0  0
 13 29  2  0  0  0
 13 58  1  0  0  0
 14 29  1  0  0  0
 14 31  1  0  0  0
 15 30  2  0  0  0
 15 41  1  0  0  0
 16 17  2  0  0  0
 16 18  1  0  0  0
 16 30  1  0  0  0
 17 26  1  0  0  0
 18 23  2  0  0  0
 19 20  1  0  0  0
 19 31  1  0  0  0
 19 42  1  0  0  0
 19 43  1  0  0  0
 20 22  1  0  0  0
 20 32  1  0  0  0
 20 44  1  0  0  0
 21 32  1  0  0  0
 21 45  1  0  0  0
 22 46  1  0  0  0
 22 47  1  0  0  0
 23 48  1  0  0  0
 24 25  3  0  0  0
 25 49  1  0  0  0
 32 50  1  0  0  0
 33 51  1  0  0  0
 52 53  1  0  0  0
 52 54  1  0  0  0
 52 55  1  0  0  0
 52 59  1  0  0  0
 53 56  1  0  0  0
 53 60  1  0  0  0
 53 61  1  0  0  0
 54 56  1  0  0  0
 54 62  1  0  0  0
 54 63  1  0  0  0
 55 57  1  0  0  0
 55 64  1  0  0  0
 55 65  1  0  0  0
 56 66  1  0  0  0
 56 67  1  0  0  0
 57 58  1  0  0  0
 57 68  1  0  0  0
 57 69  1  0  0  0
 58 70  1  0  0  0
 58 71  1  0  0  0
M  CHG  1  52   1
M  END
> <s_m_entry_id>
59

> <s_m_entry_name>
000000059.1

> <s_m_Source_Path>
/Users/zaksoul/Documents/2

> <s_m_Source_File>
000000059.mol2

> <i_m_Source_File_Index>
1

$$$$
No_0_62
                    3D
 Schrodinger Suite 2022-4.
 71 77  0  0  1  0            999 V2000
   -5.2820    3.2970  -22.0950 C   0  0  0  0  0  0
   -5.5180    3.4890  -23.4360 C   0  0  0  0  0  0
   -4.0470    3.0790  -21.7230 C   0  0  0  0  0  0
   -3.1010    3.2510  -23.8620 C   0  0  0  0  0  0
   -2.9720    3.0000  -22.4400 C   0  0  0  0  0  0
   -4.4420    3.4770  -24.4180 C   0  0  0  0  0  0
   -3.6290    3.5410  -26.5940 C   0  0  0  0  0  0
    5.9730    3.0580  -21.0720 C   0  0  0  0  0  0
    5.8990    3.2180  -23.6230 C   0  0  0  0  0  0
   -4.6610    3.6090  -25.7590 C   0  0  0  0  0  0
    2.1010    3.6510  -23.7390 C   0  0  0  0  0  0
    1.2380    4.7310  -23.4540 C   0  0  0  0  0  0
    2.9800    5.9750  -22.7160 C   0  0  0  0  0  0
    3.4860    3.8810  -23.3860 C   0  0  0  0  0  0
    1.6070    2.5230  -24.4240 C   0  0  0  0  0  0
   -0.5460    3.2700  -24.3650 C   0  0  0  0  0  0
   -0.0740    4.5010  -23.7420 C   0  0  0  0  0  0
   -1.9890    3.2350  -24.7580 C   0  0  0  0  0  0
    4.1600    1.4010  -23.0980 C   0  0  0  0  0  0
    5.0720    1.0630  -21.9290 C   0  0  2  0  0  0
    6.6310    2.6570  -22.4100 C   0  0  2  0  0  0
    4.9920    2.0540  -20.7550 C   0  0  0  0  0  0
   -2.2800    3.3970  -26.1930 C   0  0  0  0  0  0
   -1.6320    2.6220  -21.8080 C   0  0  0  0  0  0
   -0.6050    2.3020  -21.2770 C   0  0  0  0  0  0
   -0.9560    5.5170  -23.4120 F   0  0  0  0  0  0
   -3.8660    2.8310  -20.3380 F   0  0  0  0  0  0
    1.6650    5.8990  -22.9000 N   0  0  0  0  0  0
    3.9110    5.0420  -22.9190 N   0  0  0  0  0  0
    0.3130    2.3970  -24.7650 N   0  0  0  0  0  0
    4.4400    2.8630  -23.5470 N   0  0  0  0  0  0
    6.4890    1.1780  -22.3720 N   0  0  1  0  0  0
   -3.7640    3.5630  -27.9880 O   0  0  0  0  0  0
   -6.1051    3.3301  -21.3904 H   0  0  0  0  0  0
   -6.5287    3.6566  -23.7903 H   0  0  0  0  0  0
    5.4745    4.0319  -21.1860 H   0  0  0  0  0  0
    6.7373    3.0853  -20.2814 H   0  0  0  0  0  0
    6.3313    2.7937  -24.5412 H   0  0  0  0  0  0
    6.0090    4.3123  -23.6432 H   0  0  0  0  0  0
   -5.6672    3.7657  -26.1306 H   0  0  0  0  0  0
    2.2788    1.7166  -24.6951 H   0  0  0  0  0  0
    3.1106    1.3092  -22.7812 H   0  0  0  0  0  0
    4.3659    0.7147  -23.9326 H   0  0  0  0  0  0
    4.8691    0.0416  -21.5747 H   0  0  0  0  0  0
    7.6920    2.9467  -22.4251 H   0  0  0  0  0  0
    3.9931    2.5141  -20.7338 H   0  0  0  0  0  0
    5.2825    1.5416  -19.8260 H   0  0  0  0  0  0
   -1.4903    3.4070  -26.9355 H   0  0  0  0  0  0
    0.2991    2.0200  -20.8099 H   0  0  0  0  0  0
    7.1319    0.6934  -21.6521 H   0  0  0  0  0  0
   -2.9061    3.5036  -28.3917 H   0  0  0  0  0  0
    5.6790    9.7090  -22.7260 N   0  3  0  0  0  0
    6.2320   11.0470  -22.3420 C   0  0  0  0  0  0
    6.7470    9.3870  -23.7270 C   0  0  0  0  0  0
    5.5300    8.7400  -21.5820 C   0  0  0  0  0  0
    7.3260   10.7810  -23.4000 C   0  0  0  0  0  0
    5.0140    7.3570  -22.0260 C   0  0  0  0  0  0
    3.4850    7.3270  -22.2220 C   0  0  0  0  0  0
    4.7938    9.8250  -23.1941 H   0  0  0  0  0  0
    6.7031   10.9300  -21.3549 H   0  0  0  0  0  0
    5.5563   11.8056  -22.7638 H   0  0  0  0  0  0
    6.2850    9.4560  -24.7229 H   0  0  0  0  0  0
    7.4115    8.6456  -23.2593 H   0  0  0  0  0  0
    4.8452    9.1629  -20.8322 H   0  0  0  0  0  0
    6.4987    8.6230  -21.0742 H   0  0  0  0  0  0
    8.2810   10.6390  -22.8730 H   0  0  0  0  0  0
    7.1360   11.4400  -24.2600 H   0  0  0  0  0  0
    5.3021    6.6028  -21.2788 H   0  0  0  0  0  0
    5.5091    7.0659  -22.9642 H   0  0  0  0  0  0
    3.1929    8.1101  -22.9371 H   0  0  0  0  0  0
    2.9900    7.5770  -21.2720 H   0  0  0  0  0  0
  1  2  2  0  0  0
  1  3  1  0  0  0
  1 34  1  0  0  0
  2  6  1  0  0  0
  2 35  1  0  0  0
  3  5  2  0  0  0
  3 27  1  0  0  0
  4  5  1  0  0  0
  4  6  2  0  0  0
  4 18  1  0  0  0
  5 24  1  0  0  0
  6 10  1  0  0  0
  7 10  2  0  0  0
  7 23  1  0  0  0
  7 33  1  0  0  0
  8 21  1  0  0  0
  8 22  1  0  0  0
  8 36  1  0  0  0
  8 37  1  0  0  0
  9 21  1  0  0  0
  9 31  1  0  0  0
  9 38  1  0  0  0
  9 39  1  0  0  0
 10 40  1  0  0  0
 11 12  1  0  0  0
 11 14  2  0  0  0
 11 15  1  0  0  0
 12 17  1  0  0  0
 12 28  2  0  0  0
 13 28  1  0  0  0
 13 29  2  0  0  0
 13 58  1  0  0  0
 14 29  1  0  0  0
 14 31  1  0  0  0
 15 30  2  0  0  0
 15 41  1  0  0  0
 16 17  2  0  0  0
 16 18  1  0  0  0
 16 30  1  0  0  0
 17 26  1  0  0  0
 18 23  2  0  0  0
 19 20  1  0  0  0
 19 31  1  0  0  0
 19 42  1  0  0  0
 19 43  1  0  0  0
 20 22  1  0  0  0
 20 32  1  0  0  0
 20 44  1  0  0  0
 21 32  1  0  0  0
 21 45  1  0  0  0
 22 46  1  0  0  0
 22 47  1  0  0  0
 23 48  1  0  0  0
 24 25  3  0  0  0
 25 49  1  0  0  0
 32 50  1  0  0  0
 33 51  1  0  0  0
 52 53  1  0  0  0
 52 54  1  0  0  0
 52 55  1  0  0  0
 52 59  1  0  0  0
 53 56  1  0  0  0
 53 60  1  0  0  0
 53 61  1  0  0  0
 54 56  1  0  0  0
 54 62  1  0  0  0
 54 63  1  0  0  0
 55 57  1  0  0  0
 55 64  1  0  0  0
 55 65  1  0  0  0
 56 66  1  0  0  0
 56 67  1  0  0  0
 57 58  1  0  0  0
 57 68  1  0  0  0
 57 69  1  0  0  0
 58 70  1  0  0  0
 58 71  1  0  0  0
M  CHG  1  52   1
M  END
> <s_m_entry_id>
60

> <s_m_entry_name>
000000060.1

> <s_m_Source_Path>
/Users/zaksoul/Documents/2

> <s_m_Source_File>
000000060.mol2

> <i_m_Source_File_Index>
1

$$$$
No_0_63
                    3D
 Schrodinger Suite 2022-4.
 71 77  0  0  1  0            999 V2000
   -5.1290    3.3990  -22.0320 C   0  0  0  0  0  0
   -5.3960    3.5590  -23.3710 C   0  0  0  0  0  0
   -3.8880    3.1680  -21.6850 C   0  0  0  0  0  0
   -2.9960    3.2640  -23.8520 C   0  0  0  0  0  0
   -2.8340    3.0490  -22.4270 C   0  0  0  0  0  0
   -4.3460    3.5000  -24.3790 C   0  0  0  0  0  0
   -3.5890    3.4890  -26.5760 C   0  0  0  0  0  0
    6.1430    2.9750  -21.2890 C   0  0  0  0  0  0
    6.0050    3.0670  -23.8410 C   0  0  0  0  0  0
   -4.5970    3.5990  -25.7170 C   0  0  0  0  0  0
    2.2140    3.5680  -23.8720 C   0  0  0  0  0  0
    1.3790    4.6720  -23.5950 C   0  0  0  0  0  0
    3.1620    5.9020  -22.9360 C   0  0  0  0  0  0
    3.6120    3.7820  -23.5610 C   0  0  0  0  0  0
    1.6820    2.4320  -24.5120 C   0  0  0  0  0  0
   -0.4550    3.2210  -24.4190 C   0  0  0  0  0  0
    0.0560    4.4590  -23.8430 C   0  0  0  0  0  0
   -1.9070    3.2020  -24.7750 C   0  0  0  0  0  0
    4.2480    1.2980  -23.2210 C   0  0  0  0  0  0
    5.1840    0.9750  -22.0670 C   0  0  2  0  0  0
    6.7590    2.5250  -22.6320 C   0  0  2  0  0  0
    5.1530    1.9980  -20.9200 C   0  0  0  0  0  0
   -2.2330    3.3310  -26.2060 C   0  0  0  0  0  0
   -1.4850    2.6630  -21.8190 C   0  0  0  0  0  0
   -0.4510    2.3380  -21.3060 C   0  0  0  0  0  0
   -0.7990    5.5000  -23.5190 F   0  0  0  0  0  0
   -3.6760    2.9550  -20.2980 F   0  0  0  0  0  0
    1.8420    5.8470  -23.0850 N   0  0  0  0  0  0
    4.0700    4.9470  -23.1370 N   0  0  0  0  0  0
    0.3780    2.3200  -24.8170 N   0  0  0  0  0  0
    4.5430    2.7420  -23.7180 N   0  0  0  0  0  0
    6.5910    1.0510  -22.5500 N   0  0  1  0  0  0
   -3.7600    3.4750  -27.9660 O   0  0  0  0  0  0
   -5.9322    3.4663  -21.3071 H   0  0  0  0  0  0
   -6.4126    3.7356  -23.7032 H   0  0  0  0  0  0
    5.6597    3.9547  -21.4181 H   0  0  0  0  0  0
    6.9285    3.0093  -20.5197 H   0  0  0  0  0  0
    6.4067    2.6098  -24.7573 H   0  0  0  0  0  0
    6.1352    4.1580  -23.8945 H   0  0  0  0  0  0
   -5.6094    3.7646  -26.0672 H   0  0  0  0  0  0
    2.3321    1.6063  -24.7779 H   0  0  0  0  0  0
    3.2054    1.2354  -22.8758 H   0  0  0  0  0  0
    4.4195    0.5867  -24.0423 H   0  0  0  0  0  0
    4.9720   -0.0327  -21.6803 H   0  0  0  0  0  0
    7.8243    2.7946  -22.6825 H   0  0  0  0  0  0
    4.1634    2.4771  -20.8857 H   0  0  0  0  0  0
    5.4588    1.5066  -19.9846 H   0  0  0  0  0  0
   -1.4622    3.3059  -26.9678 H   0  0  0  0  0  0
    0.4596    2.0521  -20.8542 H   0  0  0  0  0  0
    7.2433    0.5740  -21.8335 H   0  0  0  0  0  0
   -2.9139    3.3899  -28.3895 H   0  0  0  0  0  0
    6.6150    8.8900  -21.5810 N   0  3  0  0  0  0
    7.4300    9.8820  -20.8480 C   0  0  0  0  0  0
    7.8330    8.3480  -20.9460 C   0  0  0  0  0  0
    4.7560    7.1590  -21.3700 C   0  0  0  0  0  0
    5.2950    8.5410  -20.9410 C   0  0  0  0  0  0
    3.7040    7.2570  -22.4930 C   0  0  0  0  0  0
    6.6520    8.9930  -23.0810 C   0  0  0  0  0  0
    6.8968    9.8410  -19.8867 H   0  0  0  0  0  0
    8.0232   10.2521  -21.6972 H   0  0  0  0  0  0
    8.5050    8.4190  -21.8140 H   0  0  0  0  0  0
    7.3780    8.0080  -20.0040 H   0  0  0  0  0  0
    4.3150    6.6520  -20.4991 H   0  0  0  0  0  0
    5.5929    6.5291  -21.7059 H   0  0  0  0  0  0
    4.5527    9.3143  -21.1881 H   0  0  0  0  0  0
    5.4011    8.5680  -19.8465 H   0  0  0  0  0  0
    4.1418    7.7758  -23.3586 H   0  0  0  0  0  0
    2.8708    7.8922  -22.1579 H   0  0  0  0  0  0
    6.0135    8.2113  -23.5184 H   0  0  0  0  0  0
    6.2833    9.9823  -23.3898 H   0  0  0  0  0  0
    7.6861    8.8610  -23.4320 H   0  0  0  0  0  0
  1  2  2  0  0  0
  1  3  1  0  0  0
  1 34  1  0  0  0
  2  6  1  0  0  0
  2 35  1  0  0  0
  3  5  2  0  0  0
  3 27  1  0  0  0
  4  5  1  0  0  0
  4  6  2  0  0  0
  4 18  1  0  0  0
  5 24  1  0  0  0
  6 10  1  0  0  0
  7 10  2  0  0  0
  7 23  1  0  0  0
  7 33  1  0  0  0
  8 21  1  0  0  0
  8 22  1  0  0  0
  8 36  1  0  0  0
  8 37  1  0  0  0
  9 21  1  0  0  0
  9 31  1  0  0  0
  9 38  1  0  0  0
  9 39  1  0  0  0
 10 40  1  0  0  0
 11 12  1  0  0  0
 11 14  2  0  0  0
 11 15  1  0  0  0
 12 17  1  0  0  0
 12 28  2  0  0  0
 13 28  1  0  0  0
 13 29  2  0  0  0
 13 57  1  0  0  0
 14 29  1  0  0  0
 14 31  1  0  0  0
 15 30  2  0  0  0
 15 41  1  0  0  0
 16 17  2  0  0  0
 16 18  1  0  0  0
 16 30  1  0  0  0
 17 26  1  0  0  0
 18 23  2  0  0  0
 19 20  1  0  0  0
 19 31  1  0  0  0
 19 42  1  0  0  0
 19 43  1  0  0  0
 20 22  1  0  0  0
 20 32  1  0  0  0
 20 44  1  0  0  0
 21 32  1  0  0  0
 21 45  1  0  0  0
 22 46  1  0  0  0
 22 47  1  0  0  0
 23 48  1  0  0  0
 24 25  3  0  0  0
 25 49  1  0  0  0
 32 50  1  0  0  0
 33 51  1  0  0  0
 52 53  1  0  0  0
 52 54  1  0  0  0
 52 56  1  0  0  0
 52 58  1  0  0  0
 53 54  1  0  0  0
 53 59  1  0  0  0
 53 60  1  0  0  0
 54 61  1  0  0  0
 54 62  1  0  0  0
 55 56  1  0  0  0
 55 57  1  0  0  0
 55 63  1  0  0  0
 55 64  1  0  0  0
 56 65  1  0  0  0
 56 66  1  0  0  0
 57 67  1  0  0  0
 57 68  1  0  0  0
 58 69  1  0  0  0
 58 70  1  0  0  0
 58 71  1  0  0  0
M  CHG  1  52   1
M  END
> <s_m_entry_id>
61

> <s_m_entry_name>
000000061.1

> <s_m_Source_Path>
/Users/zaksoul/Documents/2

> <s_m_Source_File>
000000061.mol2

> <i_m_Source_File_Index>
1

$$$$
No_0_64
                    3D
 Schrodinger Suite 2022-4.
 71 77  0  0  1  0            999 V2000
   -5.3260    3.3350  -22.0880 C   0  0  0  0  0  0
   -5.5700    3.5180  -23.4280 C   0  0  0  0  0  0
   -4.0870    3.1230  -21.7210 C   0  0  0  0  0  0
   -3.1550    3.2850  -23.8670 C   0  0  0  0  0  0
   -3.0160    3.0420  -22.4440 C   0  0  0  0  0  0
   -4.4990    3.5040  -24.4160 C   0  0  0  0  0  0
   -3.6990    3.5570  -26.5980 C   0  0  0  0  0  0
    5.9360    3.1370  -21.1280 C   0  0  0  0  0  0
    5.8460    3.2810  -23.6800 C   0  0  0  0  0  0
   -4.7260    3.6260  -25.7560 C   0  0  0  0  0  0
    2.0470    3.7010  -23.7760 C   0  0  0  0  0  0
    1.1830    4.7810  -23.4920 C   0  0  0  0  0  0
    2.9250    6.0340  -22.7720 C   0  0  0  0  0  0
    3.4330    3.9380  -23.4330 C   0  0  0  0  0  0
    1.5520    2.5680  -24.4510 C   0  0  0  0  0  0
   -0.6030    3.3090  -24.3840 C   0  0  0  0  0  0
   -0.1300    4.5450  -23.7720 C   0  0  0  0  0  0
   -2.0480    3.2670  -24.7690 C   0  0  0  0  0  0
    4.1160    1.4610  -23.1330 C   0  0  0  0  0  0
    5.0370    1.1340  -21.9680 C   0  0  2  0  0  0
    6.5880    2.7290  -22.4670 C   0  0  2  0  0  0
    4.9600    2.1310  -20.7990 C   0  0  0  0  0  0
   -2.3480    3.4190  -26.2040 C   0  0  0  0  0  0
   -1.6720    2.6730  -21.8180 C   0  0  0  0  0  0
   -0.6410    2.3590  -21.2910 C   0  0  0  0  0  0
   -1.0140    5.5600  -23.4430 F   0  0  0  0  0  0
   -3.8980    2.8840  -20.3350 F   0  0  0  0  0  0
    1.6090    5.9540  -22.9480 N   0  0  0  0  0  0
    3.8570    5.1030  -22.9750 N   0  0  0  0  0  0
    0.2570    2.4350  -24.7840 N   0  0  0  0  0  0
    4.3890    2.9220  -23.5930 N   0  0  0  0  0  0
    6.4500    1.2500  -22.4200 N   0  0  1  0  0  0
   -3.8430    3.5690  -27.9910 O   0  0  0  0  0  0
   -6.1444    3.3691  -21.3780 H   0  0  0  0  0  0
   -6.5833    3.6797  -23.7775 H   0  0  0  0  0  0
    5.4344    4.1088  -21.2461 H   0  0  0  0  0  0
    6.7048    3.1713  -20.3420 H   0  0  0  0  0  0
    6.2752    2.8529  -24.5979 H   0  0  0  0  0  0
    5.9529    4.3755  -23.7072 H   0  0  0  0  0  0
   -5.7346    3.7775  -26.1233 H   0  0  0  0  0  0
    2.2252    1.7624  -24.7209 H   0  0  0  0  0  0
    3.0685    1.3692  -22.8101 H   0  0  0  0  0  0
    4.3199    0.7717  -23.9656 H   0  0  0  0  0  0
    4.8393    0.1140  -21.6068 H   0  0  0  0  0  0
    7.6478    3.0227  -22.4912 H   0  0  0  0  0  0
    3.9598    2.5882  -20.7758 H   0  0  0  0  0  0
    5.2577    1.6254  -19.8685 H   0  0  0  0  0  0
   -1.5617    3.4280  -26.9501 H   0  0  0  0  0  0
    0.2664    2.0822  -20.8273 H   0  0  0  0  0  0
    7.0992    0.7720  -21.7013 H   0  0  0  0  0  0
   -2.9869    3.5106  -28.3987 H   0  0  0  0  0  0
    6.3120    9.2400  -21.8030 N   0  3  0  0  0  0
    7.1760   10.2390  -21.1380 C   0  0  0  0  0  0
    7.6810    8.7770  -21.5010 C   0  0  0  0  0  0
    4.7030    7.2990  -21.4260 C   0  0  0  0  0  0
    5.1970    8.6830  -20.9530 C   0  0  0  0  0  0
    3.4280    7.3900  -22.2890 C   0  0  0  0  0  0
    6.0150    9.4950  -23.2540 C   0  0  0  0  0  0
    6.8681   10.0431  -20.1003 H   0  0  0  0  0  0
    7.5361   10.7551  -22.0402 H   0  0  0  0  0  0
    8.1410    9.0080  -22.4731 H   0  0  0  0  0  0
    7.4730    8.2959  -20.5339 H   0  0  0  0  0  0
    4.5071    6.6624  -20.5506 H   0  0  0  0  0  0
    5.4993    6.8028  -22.0002 H   0  0  0  0  0  0
    4.3542    9.3898  -20.9480 H   0  0  0  0  0  0
    5.5348    8.6130  -19.9085 H   0  0  0  0  0  0
    3.6210    8.0378  -23.1568 H   0  0  0  0  0  0
    2.6339    7.8921  -21.7169 H   0  0  0  0  0  0
    5.3684    8.6945  -23.6428 H   0  0  0  0  0  0
    5.5019   10.4622  -23.3600 H   0  0  0  0  0  0
    6.9557    9.5150  -23.8238 H   0  0  0  0  0  0
  1  2  2  0  0  0
  1  3  1  0  0  0
  1 34  1  0  0  0
  2  6  1  0  0  0
  2 35  1  0  0  0
  3  5  2  0  0  0
  3 27  1  0  0  0
  4  5  1  0  0  0
  4  6  2  0  0  0
  4 18  1  0  0  0
  5 24  1  0  0  0
  6 10  1  0  0  0
  7 10  2  0  0  0
  7 23  1  0  0  0
  7 33  1  0  0  0
  8 21  1  0  0  0
  8 22  1  0  0  0
  8 36  1  0  0  0
  8 37  1  0  0  0
  9 21  1  0  0  0
  9 31  1  0  0  0
  9 38  1  0  0  0
  9 39  1  0  0  0
 10 40  1  0  0  0
 11 12  1  0  0  0
 11 14  2  0  0  0
 11 15  1  0  0  0
 12 17  1  0  0  0
 12 28  2  0  0  0
 13 28  1  0  0  0
 13 29  2  0  0  0
 13 57  1  0  0  0
 14 29  1  0  0  0
 14 31  1  0  0  0
 15 30  2  0  0  0
 15 41  1  0  0  0
 16 17  2  0  0  0
 16 18  1  0  0  0
 16 30  1  0  0  0
 17 26  1  0  0  0
 18 23  2  0  0  0
 19 20  1  0  0  0
 19 31  1  0  0  0
 19 42  1  0  0  0
 19 43  1  0  0  0
 20 22  1  0  0  0
 20 32  1  0  0  0
 20 44  1  0  0  0
 21 32  1  0  0  0
 21 45  1  0  0  0
 22 46  1  0  0  0
 22 47  1  0  0  0
 23 48  1  0  0  0
 24 25  3  0  0  0
 25 49  1  0  0  0
 32 50  1  0  0  0
 33 51  1  0  0  0
 52 53  1  0  0  0
 52 54  1  0  0  0
 52 56  1  0  0  0
 52 58  1  0  0  0
 53 54  1  0  0  0
 53 59  1  0  0  0
 53 60  1  0  0  0
 54 61  1  0  0  0
 54 62  1  0  0  0
 55 56  1  0  0  0
 55 57  1  0  0  0
 55 63  1  0  0  0
 55 64  1  0  0  0
 56 65  1  0  0  0
 56 66  1  0  0  0
 57 67  1  0  0  0
 57 68  1  0  0  0
 58 69  1  0  0  0
 58 70  1  0  0  0
 58 71  1  0  0  0
M  CHG  1  52   1
M  END
> <s_m_entry_id>
62

> <s_m_entry_name>
000000062.1

> <s_m_Source_Path>
/Users/zaksoul/Documents/2

> <s_m_Source_File>
000000062.mol2

> <i_m_Source_File_Index>
1

$$$$
No_0_65
                    3D
 Schrodinger Suite 2022-4.
 71 77  0  0  1  0            999 V2000
   -5.2860    3.2830  -22.2690 C   0  0  0  0  0  0
   -5.5190    3.4830  -23.6090 C   0  0  0  0  0  0
   -4.0510    3.0610  -21.8960 C   0  0  0  0  0  0
   -3.1020    3.2450  -24.0330 C   0  0  0  0  0  0
   -2.9750    2.9840  -22.6120 C   0  0  0  0  0  0
   -4.4420    3.4750  -24.5900 C   0  0  0  0  0  0
   -3.6250    3.5510  -26.7640 C   0  0  0  0  0  0
    5.9670    3.0240  -21.2300 C   0  0  0  0  0  0
    5.8970    3.1990  -23.7800 C   0  0  0  0  0  0
   -4.6580    3.6150  -25.9300 C   0  0  0  0  0  0
    2.1000    3.6370  -23.9000 C   0  0  0  0  0  0
    1.2390    4.7170  -23.6090 C   0  0  0  0  0  0
    2.9810    5.9540  -22.8610 C   0  0  0  0  0  0
    3.4850    3.8640  -23.5430 C   0  0  0  0  0  0
    1.6060    2.5140  -24.5910 C   0  0  0  0  0  0
   -0.5470    3.2630  -24.5320 C   0  0  0  0  0  0
   -0.0730    4.4900  -23.9010 C   0  0  0  0  0  0
   -1.9880    3.2320  -24.9280 C   0  0  0  0  0  0
    4.1550    1.3810  -23.2680 C   0  0  0  0  0  0
    5.0660    1.0360  -22.1000 C   0  0  2  0  0  0
    6.6270    2.6300  -22.5690 C   0  0  2  0  0  0
    4.9850    2.0190  -20.9200 C   0  0  0  0  0  0
   -2.2770    3.4030  -26.3620 C   0  0  0  0  0  0
   -1.6370    2.6020  -21.9810 C   0  0  0  0  0  0
   -0.6110    2.2770  -21.4500 C   0  0  0  0  0  0
   -0.9550    5.5050  -23.5670 F   0  0  0  0  0  0
   -3.8730    2.8050  -20.5120 F   0  0  0  0  0  0
    1.6660    5.8810  -23.0480 N   0  0  0  0  0  0
    3.9110    5.0210  -23.0690 N   0  0  0  0  0  0
    0.3120    2.3910  -24.9360 N   0  0  0  0  0  0
    4.4380    2.8460  -23.7080 N   0  0  0  0  0  0
    6.4830    1.1510  -22.5400 N   0  0  1  0  0  0
   -3.7580    3.5810  -28.1580 O   0  0  0  0  0  0
   -6.1101    3.3121  -21.5654 H   0  0  0  0  0  0
   -6.5289    3.6535  -23.9640 H   0  0  0  0  0  0
    5.4707    3.9995  -21.3400 H   0  0  0  0  0  0
    6.7304    3.0462  -20.4384 H   0  0  0  0  0  0
    6.3307    2.7795  -24.6997 H   0  0  0  0  0  0
    6.0090    4.2932  -23.7941 H   0  0  0  0  0  0
   -5.6633    3.7755  -26.3022 H   0  0  0  0  0  0
    2.2772    1.7084  -24.8659 H   0  0  0  0  0  0
    3.1048    1.2891  -22.9539 H   0  0  0  0  0  0
    4.3619    0.6998  -24.1066 H   0  0  0  0  0  0
    4.8612    0.0128  -21.7519 H   0  0  0  0  0  0
    7.6884    2.9186  -22.5811 H   0  0  0  0  0  0
    3.9866    2.4803  -20.8988 H   0  0  0  0  0  0
    5.2737    1.5012  -19.9934 H   0  0  0  0  0  0
   -1.4859    3.4161  -27.1029 H   0  0  0  0  0  0
    0.2919    1.9910  -20.9830 H   0  0  0  0  0  0
    7.1246    0.6612  -21.8225 H   0  0  0  0  0  0
   -2.8996    3.5236  -28.5610 H   0  0  0  0  0  0
    6.2720    9.3540  -22.3200 N   0  3  0  0  0  0
    7.1930   10.3650  -21.7580 C   0  0  0  0  0  0
    7.7030    8.9920  -22.3760 C   0  0  0  0  0  0
    4.9270    7.2500  -21.8090 C   0  0  0  0  0  0
    5.4200    8.6260  -21.3120 C   0  0  0  0  0  0
    3.4870    7.3020  -22.3590 C   0  0  0  0  0  0
    5.6370    9.7090  -23.6360 C   0  0  0  0  0  0
    7.1430   10.0510  -20.7050 H   0  0  0  0  0  0
    7.3051   10.9894  -22.6566 H   0  0  0  0  0  0
    7.9141    9.3493  -23.3947 H   0  0  0  0  0  0
    7.7520    8.4111  -21.4432 H   0  0  0  0  0  0
    4.9780    6.5236  -20.9845 H   0  0  0  0  0  0
    5.6042    6.8809  -22.5933 H   0  0  0  0  0  0
    4.5539    9.2503  -21.0473 H   0  0  0  0  0  0
    5.9879    8.4950  -20.3791 H   0  0  0  0  0  0
    3.4330    8.0389  -23.1739 H   0  0  0  0  0  0
    2.8108    7.6771  -21.5767 H   0  0  0  0  0  0
    4.9762    8.8902  -23.9569 H   0  0  0  0  0  0
    5.0498   10.6324  -23.5240 H   0  0  0  0  0  0
    6.4214    9.8639  -24.3914 H   0  0  0  0  0  0
  1  2  2  0  0  0
  1  3  1  0  0  0
  1 34  1  0  0  0
  2  6  1  0  0  0
  2 35  1  0  0  0
  3  5  2  0  0  0
  3 27  1  0  0  0
  4  5  1  0  0  0
  4  6  2  0  0  0
  4 18  1  0  0  0
  5 24  1  0  0  0
  6 10  1  0  0  0
  7 10  2  0  0  0
  7 23  1  0  0  0
  7 33  1  0  0  0
  8 21  1  0  0  0
  8 22  1  0  0  0
  8 36  1  0  0  0
  8 37  1  0  0  0
  9 21  1  0  0  0
  9 31  1  0  0  0
  9 38  1  0  0  0
  9 39  1  0  0  0
 10 40  1  0  0  0
 11 12  1  0  0  0
 11 14  2  0  0  0
 11 15  1  0  0  0
 12 17  1  0  0  0
 12 28  2  0  0  0
 13 28  1  0  0  0
 13 29  2  0  0  0
 13 57  1  0  0  0
 14 29  1  0  0  0
 14 31  1  0  0  0
 15 30  2  0  0  0
 15 41  1  0  0  0
 16 17  2  0  0  0
 16 18  1  0  0  0
 16 30  1  0  0  0
 17 26  1  0  0  0
 18 23  2  0  0  0
 19 20  1  0  0  0
 19 31  1  0  0  0
 19 42  1  0  0  0
 19 43  1  0  0  0
 20 22  1  0  0  0
 20 32  1  0  0  0
 20 44  1  0  0  0
 21 32  1  0  0  0
 21 45  1  0  0  0
 22 46  1  0  0  0
 22 47  1  0  0  0
 23 48  1  0  0  0
 24 25  3  0  0  0
 25 49  1  0  0  0
 32 50  1  0  0  0
 33 51  1  0  0  0
 52 53  1  0  0  0
 52 54  1  0  0  0
 52 56  1  0  0  0
 52 58  1  0  0  0
 53 54  1  0  0  0
 53 59  1  0  0  0
 53 60  1  0  0  0
 54 61  1  0  0  0
 54 62  1  0  0  0
 55 56  1  0  0  0
 55 57  1  0  0  0
 55 63  1  0  0  0
 55 64  1  0  0  0
 56 65  1  0  0  0
 56 66  1  0  0  0
 57 67  1  0  0  0
 57 68  1  0  0  0
 58 69  1  0  0  0
 58 70  1  0  0  0
 58 71  1  0  0  0
M  CHG  1  52   1
M  END
> <s_m_entry_id>
63

> <s_m_entry_name>
000000063.1

> <s_m_Source_Path>
/Users/zaksoul/Documents/2

> <s_m_Source_File>
000000063.mol2

> <i_m_Source_File_Index>
1

$$$$
No_0_66
                    3D
 Schrodinger Suite 2022-4.
 71 77  0  0  1  0            999 V2000
   -5.3440    3.3030  -21.9540 C   0  0  0  0  0  0
   -5.6080    3.4990  -23.2890 C   0  0  0  0  0  0
   -4.1000    3.0850  -21.6090 C   0  0  0  0  0  0
   -3.2010    3.2630  -23.7670 C   0  0  0  0  0  0
   -3.0410    3.0080  -22.3490 C   0  0  0  0  0  0
   -4.5530    3.4890  -24.2940 C   0  0  0  0  0  0
   -3.7870    3.5590  -26.4870 C   0  0  0  0  0  0
    5.9310    3.0670  -21.1720 C   0  0  0  0  0  0
    5.8020    3.2330  -23.7210 C   0  0  0  0  0  0
   -4.8010    3.6240  -25.6290 C   0  0  0  0  0  0
    2.0020    3.6640  -23.7550 C   0  0  0  0  0  0
    1.1460    4.7440  -23.4480 C   0  0  0  0  0  0
    2.9020    5.9870  -22.7450 C   0  0  0  0  0  0
    3.3940    3.8950  -23.4310 C   0  0  0  0  0  0
    1.4940    2.5380  -24.4310 C   0  0  0  0  0  0
   -0.6580    3.2840  -24.3240 C   0  0  0  0  0  0
   -0.1720    4.5130  -23.7090 C   0  0  0  0  0  0
   -2.1080    3.2490  -24.6870 C   0  0  0  0  0  0
    4.0750    1.4140  -23.1630 C   0  0  0  0  0  0
    5.0130    1.0740  -22.0140 C   0  0  2  0  0  0
    6.5600    2.6690  -22.5250 C   0  0  2  0  0  0
    4.9580    2.0620  -20.8370 C   0  0  0  0  0  0
   -2.4300    3.4140  -26.1150 C   0  0  0  0  0  0
   -1.6880    2.6300  -21.7470 C   0  0  0  0  0  0
   -0.6500    2.3080  -21.2390 C   0  0  0  0  0  0
   -1.0480    5.5280  -23.3580 F   0  0  0  0  0  0
   -3.8900    2.8340  -20.2280 F   0  0  0  0  0  0
    1.5830    5.9110  -22.9010 N   0  0  0  0  0  0
    3.8290    5.0550  -22.9700 N   0  0  0  0  0  0
    0.1930    2.4120  -24.7450 N   0  0  0  0  0  0
    4.3450    2.8780  -23.6140 N   0  0  0  0  0  0
    6.4200    1.1900  -22.4880 N   0  0  1  0  0  0
   -3.9530    3.5830  -27.8770 O   0  0  0  0  0  0
   -6.1512    3.3341  -21.2311 H   0  0  0  0  0  0
   -6.6263    3.6655  -23.6211 H   0  0  0  0  0  0
    5.4307    4.0413  -21.2739 H   0  0  0  0  0  0
    6.7121    3.0932  -20.3979 H   0  0  0  0  0  0
    6.2150    2.8109  -24.6490 H   0  0  0  0  0  0
    5.9109    4.3274  -23.7412 H   0  0  0  0  0  0
   -5.8148    3.7806  -25.9793 H   0  0  0  0  0  0
    2.1601    1.7324  -24.7179 H   0  0  0  0  0  0
    3.0327    1.3212  -22.8240 H   0  0  0  0  0  0
    4.2638    0.7305  -24.0040 H   0  0  0  0  0  0
    4.8182    0.0514  -21.6587 H   0  0  0  0  0  0
    7.6203    2.9595  -22.5623 H   0  0  0  0  0  0
    3.9593    2.5210  -20.7936 H   0  0  0  0  0  0
    5.2688    1.5474  -19.9158 H   0  0  0  0  0  0
   -1.6561    3.4270  -26.8739 H   0  0  0  0  0  0
    0.2636    2.0251  -20.7912 H   0  0  0  0  0  0
    7.0788    0.7045  -21.7832 H   0  0  0  0  0  0
   -3.1035    3.5256  -28.2983 H   0  0  0  0  0  0
    5.9590    9.6400  -22.7170 N   0  3  0  0  0  0
    6.9150   10.6910  -22.3080 C   0  0  0  0  0  0
    7.3510    9.4210  -23.1590 C   0  0  0  0  0  0
    4.9490    7.3850  -22.0900 C   0  0  0  0  0  0
    5.4480    8.7620  -21.6030 C   0  0  0  0  0  0
    3.4170    7.3370  -22.2590 C   0  0  0  0  0  0
    4.9850   10.0250  -23.7960 C   0  0  0  0  0  0
    7.1580   10.2979  -21.3098 H   0  0  0  0  0  0
    6.7460   11.3859  -23.1438 H   0  0  0  0  0  0
    7.2680    9.8699  -24.1598 H   0  0  0  0  0  0
    7.6793    8.7815  -22.3264 H   0  0  0  0  0  0
    5.2629    6.6092  -21.3762 H   0  0  0  0  0  0
    5.4302    7.1399  -23.0483 H   0  0  0  0  0  0
    4.6343    9.2798  -21.0742 H   0  0  0  0  0  0
    6.2438    8.6190  -20.8572 H   0  0  0  0  0  0
    3.1031    8.1228  -22.9618 H   0  0  0  0  0  0
    2.9360    7.5880  -21.3021 H   0  0  0  0  0  0
    4.3271    9.1721  -24.0190 H   0  0  0  0  0  0
    4.3782   10.8768  -23.4551 H   0  0  0  0  0  0
    5.5366   10.3088  -24.7044 H   0  0  0  0  0  0
  1  2  2  0  0  0
  1  3  1  0  0  0
  1 34  1  0  0  0
  2  6  1  0  0  0
  2 35  1  0  0  0
  3  5  2  0  0  0
  3 27  1  0  0  0
  4  5  1  0  0  0
  4  6  2  0  0  0
  4 18  1  0  0  0
  5 24  1  0  0  0
  6 10  1  0  0  0
  7 10  2  0  0  0
  7 23  1  0  0  0
  7 33  1  0  0  0
  8 21  1  0  0  0
  8 22  1  0  0  0
  8 36  1  0  0  0
  8 37  1  0  0  0
  9 21  1  0  0  0
  9 31  1  0  0  0
  9 38  1  0  0  0
  9 39  1  0  0  0
 10 40  1  0  0  0
 11 12  1  0  0  0
 11 14  2  0  0  0
 11 15  1  0  0  0
 12 17  1  0  0  0
 12 28  2  0  0  0
 13 28  1  0  0  0
 13 29  2  0  0  0
 13 57  1  0  0  0
 14 29  1  0  0  0
 14 31  1  0  0  0
 15 30  2  0  0  0
 15 41  1  0  0  0
 16 17  2  0  0  0
 16 18  1  0  0  0
 16 30  1  0  0  0
 17 26  1  0  0  0
 18 23  2  0  0  0
 19 20  1  0  0  0
 19 31  1  0  0  0
 19 42  1  0  0  0
 19 43  1  0  0  0
 20 22  1  0  0  0
 20 32  1  0  0  0
 20 44  1  0  0  0
 21 32  1  0  0  0
 21 45  1  0  0  0
 22 46  1  0  0  0
 22 47  1  0  0  0
 23 48  1  0  0  0
 24 25  3  0  0  0
 25 49  1  0  0  0
 32 50  1  0  0  0
 33 51  1  0  0  0
 52 53  1  0  0  0
 52 54  1  0  0  0
 52 56  1  0  0  0
 52 58  1  0  0  0
 53 54  1  0  0  0
 53 59  1  0  0  0
 53 60  1  0  0  0
 54 61  1  0  0  0
 54 62  1  0  0  0
 55 56  1  0  0  0
 55 57  1  0  0  0
 55 63  1  0  0  0
 55 64  1  0  0  0
 56 65  1  0  0  0
 56 66  1  0  0  0
 57 67  1  0  0  0
 57 68  1  0  0  0
 58 69  1  0  0  0
 58 70  1  0  0  0
 58 71  1  0  0  0
M  CHG  1  52   1
M  END
> <s_m_entry_id>
64

> <s_m_entry_name>
000000064.1

> <s_m_Source_Path>
/Users/zaksoul/Documents/2

> <s_m_Source_File>
000000064.mol2

> <i_m_Source_File_Index>
1

$$$$
No_0_67
                    3D
 Schrodinger Suite 2022-4.
 71 77  0  0  1  0            999 V2000
   -5.2380    3.3500  -21.9540 C   0  0  0  0  0  0
   -5.4890    3.5630  -23.2880 C   0  0  0  0  0  0
   -4.0000    3.1110  -21.6010 C   0  0  0  0  0  0
   -3.0810    3.3010  -23.7500 C   0  0  0  0  0  0
   -2.9360    3.0280  -22.3330 C   0  0  0  0  0  0
   -4.4260    3.5510  -24.2850 C   0  0  0  0  0  0
   -3.6410    3.6350  -26.4710 C   0  0  0  0  0  0
    6.0260    2.9570  -21.0850 C   0  0  0  0  0  0
    5.9200    3.1530  -23.6330 C   0  0  0  0  0  0
   -4.6610    3.7040  -25.6200 C   0  0  0  0  0  0
    2.1270    3.6340  -23.6920 C   0  0  0  0  0  0
    1.2820    4.7210  -23.3800 C   0  0  0  0  0  0
    3.0490    5.9330  -22.6490 C   0  0  0  0  0  0
    3.5190    3.8430  -23.3550 C   0  0  0  0  0  0
    1.6100    2.5230  -24.3850 C   0  0  0  0  0  0
   -0.5330    3.2950  -24.2870 C   0  0  0  0  0  0
   -0.0370    4.5110  -23.6540 C   0  0  0  0  0  0
   -1.9810    3.2840  -24.6610 C   0  0  0  0  0  0
    4.1660    1.3500  -23.1090 C   0  0  0  0  0  0
    5.0900    0.9860  -21.9570 C   0  0  2  0  0  0
    6.6620    2.5660  -22.4370 C   0  0  2  0  0  0
    5.0380    1.9610  -20.7690 C   0  0  0  0  0  0
   -2.2890    3.4690  -26.0900 C   0  0  0  0  0  0
   -1.5920    2.6260  -21.7250 C   0  0  0  0  0  0
   -0.5630    2.2850  -21.2120 C   0  0  0  0  0  0
   -0.9020    5.5330  -23.2980 F   0  0  0  0  0  0
   -3.8040    2.8420  -20.2220 F   0  0  0  0  0  0
    1.7310    5.8770  -22.8170 N   0  0  0  0  0  0
    3.9650    4.9920  -22.8770 N   0  0  0  0  0  0
    0.3100    2.4170  -24.7100 N   0  0  0  0  0  0
    4.4580    2.8160  -23.5410 N   0  0  0  0  0  0
    6.5010    1.0890  -22.4180 N   0  0  1  0  0  0
   -3.7950    3.6770  -27.8620 O   0  0  0  0  0  0
   -6.0504    3.3831  -21.2370 H   0  0  0  0  0  0
   -6.5021    3.7478  -23.6264 H   0  0  0  0  0  0
    5.5395    3.9390  -21.1799 H   0  0  0  0  0  0
    6.8013    2.9651  -20.3047 H   0  0  0  0  0  0
    6.3360    2.7360  -24.5620 H   0  0  0  0  0  0
    6.0441    4.2460  -23.6401 H   0  0  0  0  0  0
   -5.6698    3.8786  -25.9763 H   0  0  0  0  0  0
    2.2675    1.7119  -24.6761 H   0  0  0  0  0  0
    3.1198    1.2683  -22.7791 H   0  0  0  0  0  0
    4.3518    0.6734  -23.9562 H   0  0  0  0  0  0
    4.8790   -0.0376  -21.6138 H   0  0  0  0  0  0
    7.7261    2.8436  -22.4632 H   0  0  0  0  0  0
    4.0453    2.4331  -20.7286 H   0  0  0  0  0  0
    5.3346    1.4324  -19.8510 H   0  0  0  0  0  0
   -1.5091    3.4790  -26.8428 H   0  0  0  0  0  0
    0.3439    1.9860  -20.7611 H   0  0  0  0  0  0
    7.1476    0.5867  -21.7137 H   0  0  0  0  0  0
   -2.9431    3.6137  -28.2776 H   0  0  0  0  0  0
    5.8090    9.8080  -22.8920 N   0  3  0  0  0  0
    6.7670   10.8920  -22.5890 C   0  0  0  0  0  0
    7.0770    9.7470  -23.6460 C   0  0  0  0  0  0
    5.1030    7.4300  -22.3070 C   0  0  0  0  0  0
    5.6150    8.7930  -21.7940 C   0  0  0  0  0  0
    3.5770    7.2720  -22.1440 C   0  0  0  0  0  0
    4.5960   10.2090  -23.6860 C   0  0  0  0  0  0
    7.2509   10.4311  -21.7152 H   0  0  0  0  0  0
    6.3740   11.6450  -23.2880 H   0  0  0  0  0  0
    6.7450   10.2770  -24.5509 H   0  0  0  0  0  0
    7.6210    9.0630  -22.9780 H   0  0  0  0  0  0
    5.6140    6.6200  -21.7660 H   0  0  0  0  0  0
    5.3711    7.3139  -23.3675 H   0  0  0  0  0  0
    4.9101    9.1909  -21.0491 H   0  0  0  0  0  0
    6.5645    8.6489  -21.2577 H   0  0  0  0  0  0
    3.0665    8.0899  -22.6736 H   0  0  0  0  0  0
    3.3090    7.3940  -21.0841 H   0  0  0  0  0  0
    3.9576    9.3285  -23.8511 H   0  0  0  0  0  0
    4.0310   10.9731  -23.1320 H   0  0  0  0  0  0
    4.9130   10.6199  -24.6559 H   0  0  0  0  0  0
  1  2  2  0  0  0
  1  3  1  0  0  0
  1 34  1  0  0  0
  2  6  1  0  0  0
  2 35  1  0  0  0
  3  5  2  0  0  0
  3 27  1  0  0  0
  4  5  1  0  0  0
  4  6  2  0  0  0
  4 18  1  0  0  0
  5 24  1  0  0  0
  6 10  1  0  0  0
  7 10  2  0  0  0
  7 23  1  0  0  0
  7 33  1  0  0  0
  8 21  1  0  0  0
  8 22  1  0  0  0
  8 36  1  0  0  0
  8 37  1  0  0  0
  9 21  1  0  0  0
  9 31  1  0  0  0
  9 38  1  0  0  0
  9 39  1  0  0  0
 10 40  1  0  0  0
 11 12  1  0  0  0
 11 14  2  0  0  0
 11 15  1  0  0  0
 12 17  1  0  0  0
 12 28  2  0  0  0
 13 28  1  0  0  0
 13 29  2  0  0  0
 13 57  1  0  0  0
 14 29  1  0  0  0
 14 31  1  0  0  0
 15 30  2  0  0  0
 15 41  1  0  0  0
 16 17  2  0  0  0
 16 18  1  0  0  0
 16 30  1  0  0  0
 17 26  1  0  0  0
 18 23  2  0  0  0
 19 20  1  0  0  0
 19 31  1  0  0  0
 19 42  1  0  0  0
 19 43  1  0  0  0
 20 22  1  0  0  0
 20 32  1  0  0  0
 20 44  1  0  0  0
 21 32  1  0  0  0
 21 45  1  0  0  0
 22 46  1  0  0  0
 22 47  1  0  0  0
 23 48  1  0  0  0
 24 25  3  0  0  0
 25 49  1  0  0  0
 32 50  1  0  0  0
 33 51  1  0  0  0
 52 53  1  0  0  0
 52 54  1  0  0  0
 52 56  1  0  0  0
 52 58  1  0  0  0
 53 54  1  0  0  0
 53 59  1  0  0  0
 53 60  1  0  0  0
 54 61  1  0  0  0
 54 62  1  0  0  0
 55 56  1  0  0  0
 55 57  1  0  0  0
 55 63  1  0  0  0
 55 64  1  0  0  0
 56 65  1  0  0  0
 56 66  1  0  0  0
 57 67  1  0  0  0
 57 68  1  0  0  0
 58 69  1  0  0  0
 58 70  1  0  0  0
 58 71  1  0  0  0
M  CHG  1  52   1
M  END
> <s_m_entry_id>
65

> <s_m_entry_name>
000000065.1

> <s_m_Source_Path>
/Users/zaksoul/Documents/2

> <s_m_Source_File>
000000065.mol2

> <i_m_Source_File_Index>
1

$$$$
No_0_68
                    3D
 Schrodinger Suite 2022-4.
 71 77  0  0  1  0            999 V2000
   -5.3790    3.3070  -21.9460 C   0  0  0  0  0  0
   -5.6000    3.5170  -23.2870 C   0  0  0  0  0  0
   -4.1500    3.0650  -21.5660 C   0  0  0  0  0  0
   -3.1840    3.2460  -23.6950 C   0  0  0  0  0  0
   -3.0700    2.9770  -22.2750 C   0  0  0  0  0  0
   -4.5160    3.4990  -24.2600 C   0  0  0  0  0  0
   -3.6830    3.5740  -26.4280 C   0  0  0  0  0  0
    5.8620    2.8820  -20.8310 C   0  0  0  0  0  0
    5.8120    3.0710  -23.3810 C   0  0  0  0  0  0
   -4.7210    3.6480  -25.6010 C   0  0  0  0  0  0
    2.0230    3.5640  -23.5240 C   0  0  0  0  0  0
    1.1740    4.6540  -23.2340 C   0  0  0  0  0  0
    2.9290    5.8630  -22.4680 C   0  0  0  0  0  0
    3.4080    3.7690  -23.1570 C   0  0  0  0  0  0
    1.5170    2.4520  -24.2250 C   0  0  0  0  0  0
   -0.6250    3.2310  -24.1760 C   0  0  0  0  0  0
   -0.1390    4.4470  -23.5360 C   0  0  0  0  0  0
   -2.0640    3.2230  -24.5820 C   0  0  0  0  0  0
    4.0410    1.2750  -22.8900 C   0  0  0  0  0  0
    4.9380    0.9110  -21.7180 C   0  0  2  0  0  0
    6.5260    2.4850  -22.1680 C   0  0  2  0  0  0
    4.8630    1.8900  -20.5330 C   0  0  0  0  0  0
   -2.3410    3.4050  -26.0180 C   0  0  0  0  0  0
   -1.7420    2.5720  -21.6360 C   0  0  0  0  0  0
   -0.7250    2.2300  -21.1000 C   0  0  0  0  0  0
   -1.0080    5.4730  -23.2020 F   0  0  0  0  0  0
   -3.9850    2.8000  -20.1820 F   0  0  0  0  0  0
    1.6140    5.8100  -22.6640 N   0  0  0  0  0  0
    3.8470    4.9180  -22.6730 N   0  0  0  0  0  0
    0.2240    2.3490  -24.5790 N   0  0  0  0  0  0
    4.3480    2.7380  -23.3210 N   0  0  0  0  0  0
    6.3600    1.0080  -22.1480 N   0  0  1  0  0  0
   -3.8070    3.6130  -27.8230 O   0  0  0  0  0  0
   -6.2075    3.3442  -21.2480 H   0  0  0  0  0  0
   -6.6052    3.7036  -23.6472 H   0  0  0  0  0  0
    5.3805    3.8651  -20.9390 H   0  0  0  0  0  0
    6.6199    2.8891  -20.0338 H   0  0  0  0  0  0
    6.2462    2.6500  -24.2998 H   0  0  0  0  0  0
    5.9391    4.1636  -23.3881 H   0  0  0  0  0  0
   -5.7214    3.8246  -25.9793 H   0  0  0  0  0  0
    2.1784    1.6380  -24.4990 H   0  0  0  0  0  0
    2.9875    1.1973  -22.5832 H   0  0  0  0  0  0
    4.2438    0.5961  -23.7314 H   0  0  0  0  0  0
    4.7168   -0.1110  -21.3766 H   0  0  0  0  0  0
    7.5912    2.7596  -22.1710 H   0  0  0  0  0  0
    3.8713    2.3657  -20.5158 H   0  0  0  0  0  0
    5.1385    1.3632  -19.6075 H   0  0  0  0  0  0
   -1.5440    3.4110  -26.7527 H   0  0  0  0  0  0
    0.1706    1.9291  -20.6282 H   0  0  0  0  0  0
    6.9899    0.5064  -21.4283 H   0  0  0  0  0  0
   -2.9465    3.5448  -28.2196 H   0  0  0  0  0  0
    5.2800    9.9830  -22.8940 N   0  3  0  0  0  0
    6.1970   11.1250  -22.6890 C   0  0  0  0  0  0
    6.3630   10.0980  -23.8910 C   0  0  0  0  0  0
    4.8910    7.5120  -22.4080 C   0  0  0  0  0  0
    5.3960    8.8730  -21.8810 C   0  0  0  0  0  0
    3.4500    7.2010  -21.9550 C   0  0  0  0  0  0
    3.9020   10.3310  -23.3850 C   0  0  0  0  0  0
    6.8864   10.6438  -21.9796 H   0  0  0  0  0  0
    5.6111   11.8898  -23.2199 H   0  0  0  0  0  0
    5.8103   10.6637  -24.6556 H   0  0  0  0  0  0
    7.0852    9.4178  -23.4159 H   0  0  0  0  0  0
    5.5635    6.7136  -22.0613 H   0  0  0  0  0  0
    4.9390    7.5040  -23.5069 H   0  0  0  0  0  0
    4.8348    9.1441  -20.9746 H   0  0  0  0  0  0
    6.4451    8.7750  -21.5650 H   0  0  0  0  0  0
    2.7808    8.0072  -22.2901 H   0  0  0  0  0  0
    3.4020    7.2150  -20.8561 H   0  0  0  0  0  0
    3.3101    9.4111  -23.5010 H   0  0  0  0  0  0
    3.4100   10.9940  -22.6580 H   0  0  0  0  0  0
    3.9760   10.8429  -24.3558 H   0  0  0  0  0  0
  1  2  2  0  0  0
  1  3  1  0  0  0
  1 34  1  0  0  0
  2  6  1  0  0  0
  2 35  1  0  0  0
  3  5  2  0  0  0
  3 27  1  0  0  0
  4  5  1  0  0  0
  4  6  2  0  0  0
  4 18  1  0  0  0
  5 24  1  0  0  0
  6 10  1  0  0  0
  7 10  2  0  0  0
  7 23  1  0  0  0
  7 33  1  0  0  0
  8 21  1  0  0  0
  8 22  1  0  0  0
  8 36  1  0  0  0
  8 37  1  0  0  0
  9 21  1  0  0  0
  9 31  1  0  0  0
  9 38  1  0  0  0
  9 39  1  0  0  0
 10 40  1  0  0  0
 11 12  1  0  0  0
 11 14  2  0  0  0
 11 15  1  0  0  0
 12 17  1  0  0  0
 12 28  2  0  0  0
 13 28  1  0  0  0
 13 29  2  0  0  0
 13 57  1  0  0  0
 14 29  1  0  0  0
 14 31  1  0  0  0
 15 30  2  0  0  0
 15 41  1  0  0  0
 16 17  2  0  0  0
 16 18  1  0  0  0
 16 30  1  0  0  0
 17 26  1  0  0  0
 18 23  2  0  0  0
 19 20  1  0  0  0
 19 31  1  0  0  0
 19 42  1  0  0  0
 19 43  1  0  0  0
 20 22  1  0  0  0
 20 32  1  0  0  0
 20 44  1  0  0  0
 21 32  1  0  0  0
 21 45  1  0  0  0
 22 46  1  0  0  0
 22 47  1  0  0  0
 23 48  1  0  0  0
 24 25  3  0  0  0
 25 49  1  0  0  0
 32 50  1  0  0  0
 33 51  1  0  0  0
 52 53  1  0  0  0
 52 54  1  0  0  0
 52 56  1  0  0  0
 52 58  1  0  0  0
 53 54  1  0  0  0
 53 59  1  0  0  0
 53 60  1  0  0  0
 54 61  1  0  0  0
 54 62  1  0  0  0
 55 56  1  0  0  0
 55 57  1  0  0  0
 55 63  1  0  0  0
 55 64  1  0  0  0
 56 65  1  0  0  0
 56 66  1  0  0  0
 57 67  1  0  0  0
 57 68  1  0  0  0
 58 69  1  0  0  0
 58 70  1  0  0  0
 58 71  1  0  0  0
M  CHG  1  52   1
M  END
> <s_m_entry_id>
66

> <s_m_entry_name>
000000066.1

> <s_m_Source_Path>
/Users/zaksoul/Documents/2

> <s_m_Source_File>
000000066.mol2

> <i_m_Source_File_Index>
1

$$$$
No_0_69
                    3D
 Schrodinger Suite 2022-4.
 73 78  0  0  1  0            999 V2000
   -5.2280    3.5370  -22.0270 C   0  0  0  0  0  0
   -5.4760    3.7230  -23.3670 C   0  0  0  0  0  0
   -3.9890    3.3160  -21.6650 C   0  0  0  0  0  0
   -3.0650    3.4720  -23.8150 C   0  0  0  0  0  0
   -2.9220    3.2280  -22.3930 C   0  0  0  0  0  0
   -4.4090    3.7000  -24.3590 C   0  0  0  0  0  0
   -3.6170    3.7480  -26.5430 C   0  0  0  0  0  0
    6.0360    3.2560  -21.1130 C   0  0  0  0  0  0
    5.9370    3.4010  -23.6640 C   0  0  0  0  0  0
   -4.6410    3.8250  -25.6980 C   0  0  0  0  0  0
    2.1400    3.8490  -23.7450 C   0  0  0  0  0  0
    1.2850    4.9350  -23.4580 C   0  0  0  0  0  0
    3.0390    6.1760  -22.7440 C   0  0  0  0  0  0
    3.5300    4.0760  -23.4070 C   0  0  0  0  0  0
    1.6350    2.7200  -24.4180 C   0  0  0  0  0  0
   -0.5150    3.4770  -24.3430 C   0  0  0  0  0  0
   -0.0310    4.7090  -23.7320 C   0  0  0  0  0  0
   -1.9610    3.4450  -24.7220 C   0  0  0  0  0  0
    4.1960    1.5940  -23.1110 C   0  0  0  0  0  0
    5.1190    1.2600  -21.9490 C   0  0  2  0  0  0
    6.6790    2.8440  -22.4540 C   0  0  2  0  0  0
    5.0540    2.2570  -20.7800 C   0  0  0  0  0  0
   -2.2660    3.6000  -26.1550 C   0  0  0  0  0  0
   -1.5780    2.8480  -21.7720 C   0  0  0  0  0  0
   -0.5470    2.5260  -21.2490 C   0  0  0  0  0  0
   -0.9050    5.7300  -23.3990 F   0  0  0  0  0  0
   -3.7960    3.0750  -20.2800 F   0  0  0  0  0  0
    1.7220    6.1050  -22.9150 N   0  0  0  0  0  0
    3.9640    5.2380  -22.9510 N   0  0  0  0  0  0
    0.3370    2.5970  -24.7460 N   0  0  0  0  0  0
    4.4780    3.0530  -23.5710 N   0  0  0  0  0  0
    6.5310    1.3660  -22.4070 N   0  0  1  0  0  0
   -3.7670    3.7620  -27.9360 O   0  0  0  0  0  0
   -6.0435    3.5772  -21.3140 H   0  0  0  0  0  0
   -6.4899    3.8917  -23.7113 H   0  0  0  0  0  0
    5.5403    4.2312  -21.2281 H   0  0  0  0  0  0
    6.8080    3.2843  -20.3299 H   0  0  0  0  0  0
    6.3590    2.9699  -24.5838 H   0  0  0  0  0  0
    6.0520    4.4946  -23.6912 H   0  0  0  0  0  0
   -5.6499    3.9836  -26.0614 H   0  0  0  0  0  0
    2.3005    1.9090  -24.6910 H   0  0  0  0  0  0
    3.1494    1.5093  -22.7833 H   0  0  0  0  0  0
    4.3909    0.9024  -23.9439 H   0  0  0  0  0  0
    4.9151    0.2416  -21.5867 H   0  0  0  0  0  0
    7.7412    3.1285  -22.4822 H   0  0  0  0  0  0
    4.0577    2.7224  -20.7527 H   0  0  0  0  0  0
    5.3519    1.7490  -19.8509 H   0  0  0  0  0  0
   -1.4831    3.6030  -26.9048 H   0  0  0  0  0  0
    0.3603    2.2429  -20.7888 H   0  0  0  0  0  0
    7.1789    0.8828  -21.6907 H   0  0  0  0  0  0
   -2.9129    3.6967  -28.3467 H   0  0  0  0  0  0
    6.0390    8.7620  -20.7380 N   0  3  0  0  0  0
    5.8280   10.2480  -22.6120 N   0  0  0  0  0  0
    3.8870    7.5490  -20.7560 C   0  0  0  0  0  0
    7.9750    9.2420  -22.1400 C   0  0  0  0  0  0
    3.5550    7.5280  -22.2630 C   0  0  0  0  0  0
    4.6430    8.8160  -20.3160 C   0  0  0  0  0  0
    6.5120    9.4330  -21.8000 C   0  0  0  0  0  0
    8.7990   10.4650  -21.7050 C   0  0  0  0  0  0
    6.6713    8.1727  -20.1777 H   0  0  0  0  0  0
    6.3048   10.7098  -23.3996 H   0  0  0  0  0  0
    4.8246   10.4139  -22.4491 H   0  0  0  0  0  0
    4.4840    6.6610  -20.5010 H   0  0  0  0  0  0
    2.9568    7.4580  -20.1759 H   0  0  0  0  0  0
    8.0820    9.0950  -23.2249 H   0  0  0  0  0  0
    8.3550    8.3440  -21.6310 H   0  0  0  0  0  0
    4.4517    7.8029  -22.8378 H   0  0  0  0  0  0
    2.8070    8.3040  -22.4830 H   0  0  0  0  0  0
    4.1614    9.7013  -20.7567 H   0  0  0  0  0  0
    4.5950    8.9100  -19.2211 H   0  0  0  0  0  0
    9.8566   10.3051  -21.9619 H   0  0  0  0  0  0
    8.4280   11.3611  -22.2240 H   0  0  0  0  0  0
    8.7029   10.6051  -20.6182 H   0  0  0  0  0  0
  1  2  2  0  0  0
  1  3  1  0  0  0
  1 34  1  0  0  0
  2  6  1  0  0  0
  2 35  1  0  0  0
  3  5  2  0  0  0
  3 27  1  0  0  0
  4  5  1  0  0  0
  4  6  2  0  0  0
  4 18  1  0  0  0
  5 24  1  0  0  0
  6 10  1  0  0  0
  7 10  2  0  0  0
  7 23  1  0  0  0
  7 33  1  0  0  0
  8 21  1  0  0  0
  8 22  1  0  0  0
  8 36  1  0  0  0
  8 37  1  0  0  0
  9 21  1  0  0  0
  9 31  1  0  0  0
  9 38  1  0  0  0
  9 39  1  0  0  0
 10 40  1  0  0  0
 11 12  1  0  0  0
 11 14  2  0  0  0
 11 15  1  0  0  0
 12 17  1  0  0  0
 12 28  2  0  0  0
 13 28  1  0  0  0
 13 29  2  0  0  0
 13 56  1  0  0  0
 14 29  1  0  0  0
 14 31  1  0  0  0
 15 30  2  0  0  0
 15 41  1  0  0  0
 16 17  2  0  0  0
 16 18  1  0  0  0
 16 30  1  0  0  0
 17 26  1  0  0  0
 18 23  2  0  0  0
 19 20  1  0  0  0
 19 31  1  0  0  0
 19 42  1  0  0  0
 19 43  1  0  0  0
 20 22  1  0  0  0
 20 32  1  0  0  0
 20 44  1  0  0  0
 21 32  1  0  0  0
 21 45  1  0  0  0
 22 46  1  0  0  0
 22 47  1  0  0  0
 23 48  1  0  0  0
 24 25  3  0  0  0
 25 49  1  0  0  0
 32 50  1  0  0  0
 33 51  1  0  0  0
 52 57  1  0  0  0
 52 58  2  0  0  0
 52 60  1  0  0  0
 53 58  1  0  0  0
 53 61  1  0  0  0
 53 62  1  0  0  0
 54 56  1  0  0  0
 54 57  1  0  0  0
 54 63  1  0  0  0
 54 64  1  0  0  0
 55 58  1  0  0  0
 55 59  1  0  0  0
 55 65  1  0  0  0
 55 66  1  0  0  0
 56 67  1  0  0  0
 56 68  1  0  0  0
 57 69  1  0  0  0
 57 70  1  0  0  0
 59 71  1  0  0  0
 59 72  1  0  0  0
 59 73  1  0  0  0
M  CHG  1  52   1
M  END
> <s_m_entry_id>
67

> <s_m_entry_name>
000000067.1

> <s_m_Source_Path>
/Users/zaksoul/Documents/2

> <s_m_Source_File>
000000067.mol2

> <i_m_Source_File_Index>
1

$$$$
No_0_70
                    3D
 Schrodinger Suite 2022-4.
 73 78  0  0  1  0            999 V2000
   -5.2060    3.4940  -22.2300 C   0  0  0  0  0  0
   -5.4320    3.6610  -23.5760 C   0  0  0  0  0  0
   -3.9760    3.2660  -21.8460 C   0  0  0  0  0  0
   -3.0170    3.3790  -23.9830 C   0  0  0  0  0  0
   -2.8980    3.1560  -22.5550 C   0  0  0  0  0  0
   -4.3510    3.6130  -24.5510 C   0  0  0  0  0  0
   -3.5250    3.6190  -26.7240 C   0  0  0  0  0  0
    6.0390    3.1140  -21.1380 C   0  0  0  0  0  0
    5.9800    3.2220  -23.6930 C   0  0  0  0  0  0
   -4.5610    3.7190  -25.8960 C   0  0  0  0  0  0
    2.1900    3.7060  -23.8390 C   0  0  0  0  0  0
    1.3420    4.8050  -23.5820 C   0  0  0  0  0  0
    3.0970    6.0390  -22.8600 C   0  0  0  0  0  0
    3.5760    3.9240  -23.4840 C   0  0  0  0  0  0
    1.6830    2.5720  -24.5030 C   0  0  0  0  0  0
   -0.4590    3.3510  -24.4720 C   0  0  0  0  0  0
    0.0280    4.5870  -23.8720 C   0  0  0  0  0  0
   -1.9000    3.3280  -24.8730 C   0  0  0  0  0  0
    4.2120    1.4410  -23.1390 C   0  0  0  0  0  0
    5.1140    1.1150  -21.9580 C   0  0  2  0  0  0
    6.6980    2.6750  -22.4640 C   0  0  2  0  0  0
    5.0420    2.1310  -20.8060 C   0  0  0  0  0  0
   -2.1810    3.4640  -26.3120 C   0  0  0  0  0  0
   -1.5680    2.7730  -21.9080 C   0  0  0  0  0  0
   -0.5480    2.4490  -21.3650 C   0  0  0  0  0  0
   -0.8410    5.6220  -23.5690 F   0  0  0  0  0  0
   -3.8060    3.0450  -20.4550 F   0  0  0  0  0  0
    1.7820    5.9780  -23.0500 N   0  0  0  0  0  0
    4.0160    5.0880  -23.0380 N   0  0  0  0  0  0
    0.3890    2.4560  -24.8490 N   0  0  0  0  0  0
    4.5160    2.8900  -23.6170 N   0  0  0  0  0  0
    6.5340    1.2000  -22.3960 N   0  0  1  0  0  0
   -3.6530    3.6130  -28.1190 O   0  0  0  0  0  0
   -6.0320    3.5532  -21.5305 H   0  0  0  0  0  0
   -6.4385    3.8346  -23.9392 H   0  0  0  0  0  0
    5.5558    4.0925  -21.2762 H   0  0  0  0  0  0
    6.7996    3.1473  -20.3441 H   0  0  0  0  0  0
    6.4119    2.7720  -24.5991 H   0  0  0  0  0  0
    6.1063    4.3139  -23.7354 H   0  0  0  0  0  0
   -5.5628    3.8826  -26.2764 H   0  0  0  0  0  0
    2.3443    1.7502  -24.7529 H   0  0  0  0  0  0
    3.1597    1.3714  -22.8262 H   0  0  0  0  0  0
    4.4128    0.7348  -23.9582 H   0  0  0  0  0  0
    4.8939    0.1044  -21.5834 H   0  0  0  0  0  0
    7.7631    2.9494  -22.4791 H   0  0  0  0  0  0
    4.0500    2.6063  -20.8010 H   0  0  0  0  0  0
    5.3205    1.6346  -19.8647 H   0  0  0  0  0  0
   -1.3870    3.4469  -27.0498 H   0  0  0  0  0  0
    0.3491    2.1630  -20.8869 H   0  0  0  0  0  0
    7.1668    0.7222  -21.6627 H   0  0  0  0  0  0
   -2.7937    3.5328  -28.5160 H   0  0  0  0  0  0
    6.2620    8.6930  -21.2350 N   0  3  0  0  0  0
    5.6600   10.2580  -22.9530 N   0  0  0  0  0  0
    4.2030    7.3570  -20.9640 C   0  0  0  0  0  0
    7.9040    9.3580  -22.9100 C   0  0  0  0  0  0
    3.6190    7.3930  -22.3920 C   0  0  0  0  0  0
    4.9580    8.6430  -20.5810 C   0  0  0  0  0  0
    6.5130    9.4450  -22.3180 C   0  0  0  0  0  0
    8.7280   10.6040  -22.5470 C   0  0  0  0  0  0
    7.0097    8.1152  -20.8252 H   0  0  0  0  0  0
    5.9711   10.7871  -23.7802 H   0  0  0  0  0  0
    4.6922   10.3550  -22.6141 H   0  0  0  0  0  0
    4.8781    6.4939  -20.8670 H   0  0  0  0  0  0
    3.3914    7.1821  -20.2424 H   0  0  0  0  0  0
    7.8310    9.2731  -24.0043 H   0  0  0  0  0  0
    8.4102    8.4597  -22.5269 H   0  0  0  0  0  0
    4.3891    7.7491  -23.0921 H   0  0  0  0  0  0
    2.8066    8.1333  -22.4360 H   0  0  0  0  0  0
    4.3648    9.5194  -20.8811 H   0  0  0  0  0  0
    5.0940    8.6780  -19.4900 H   0  0  0  0  0  0
    9.7328   10.5210  -22.9869 H   0  0  0  0  0  0
    8.2291   11.5018  -22.9409 H   0  0  0  0  0  0
    8.8120   10.6830  -21.4531 H   0  0  0  0  0  0
  1  2  2  0  0  0
  1  3  1  0  0  0
  1 34  1  0  0  0
  2  6  1  0  0  0
  2 35  1  0  0  0
  3  5  2  0  0  0
  3 27  1  0  0  0
  4  5  1  0  0  0
  4  6  2  0  0  0
  4 18  1  0  0  0
  5 24  1  0  0  0
  6 10  1  0  0  0
  7 10  2  0  0  0
  7 23  1  0  0  0
  7 33  1  0  0  0
  8 21  1  0  0  0
  8 22  1  0  0  0
  8 36  1  0  0  0
  8 37  1  0  0  0
  9 21  1  0  0  0
  9 31  1  0  0  0
  9 38  1  0  0  0
  9 39  1  0  0  0
 10 40  1  0  0  0
 11 12  1  0  0  0
 11 14  2  0  0  0
 11 15  1  0  0  0
 12 17  1  0  0  0
 12 28  2  0  0  0
 13 28  1  0  0  0
 13 29  2  0  0  0
 13 56  1  0  0  0
 14 29  1  0  0  0
 14 31  1  0  0  0
 15 30  2  0  0  0
 15 41  1  0  0  0
 16 17  2  0  0  0
 16 18  1  0  0  0
 16 30  1  0  0  0
 17 26  1  0  0  0
 18 23  2  0  0  0
 19 20  1  0  0  0
 19 31  1  0  0  0
 19 42  1  0  0  0
 19 43  1  0  0  0
 20 22  1  0  0  0
 20 32  1  0  0  0
 20 44  1  0  0  0
 21 32  1  0  0  0
 21 45  1  0  0  0
 22 46  1  0  0  0
 22 47  1  0  0  0
 23 48  1  0  0  0
 24 25  3  0  0  0
 25 49  1  0  0  0
 32 50  1  0  0  0
 33 51  1  0  0  0
 52 57  1  0  0  0
 52 58  2  0  0  0
 52 60  1  0  0  0
 53 58  1  0  0  0
 53 61  1  0  0  0
 53 62  1  0  0  0
 54 56  1  0  0  0
 54 57  1  0  0  0
 54 63  1  0  0  0
 54 64  1  0  0  0
 55 58  1  0  0  0
 55 59  1  0  0  0
 55 65  1  0  0  0
 55 66  1  0  0  0
 56 67  1  0  0  0
 56 68  1  0  0  0
 57 69  1  0  0  0
 57 70  1  0  0  0
 59 71  1  0  0  0
 59 72  1  0  0  0
 59 73  1  0  0  0
M  CHG  1  52   1
M  END
> <s_m_entry_id>
68

> <s_m_entry_name>
000000068.1

> <s_m_Source_Path>
/Users/zaksoul/Documents/2

> <s_m_Source_File>
000000068.mol2

> <i_m_Source_File_Index>
1

$$$$
No_0_71
                    3D
 Schrodinger Suite 2022-4.
 70 75  0  0  1  0            999 V2000
   -5.1260    3.5430  -21.8640 C   0  0  0  0  0  0
   -5.3960    3.7080  -23.2020 C   0  0  0  0  0  0
   -3.8830    3.3160  -21.5210 C   0  0  0  0  0  0
   -2.9960    3.4260  -23.6890 C   0  0  0  0  0  0
   -2.8300    3.2050  -22.2650 C   0  0  0  0  0  0
   -4.3480    3.6580  -24.2120 C   0  0  0  0  0  0
   -3.5950    3.6610  -26.4110 C   0  0  0  0  0  0
    6.1490    3.1650  -21.1450 C   0  0  0  0  0  0
    6.0060    3.2680  -23.6960 C   0  0  0  0  0  0
   -4.6020    3.7630  -25.5490 C   0  0  0  0  0  0
    2.2130    3.7530  -23.7180 C   0  0  0  0  0  0
    1.3740    4.8520  -23.4330 C   0  0  0  0  0  0
    3.1520    6.0870  -22.7720 C   0  0  0  0  0  0
    3.6100    3.9710  -23.4080 C   0  0  0  0  0  0
    1.6850    2.6170  -24.3620 C   0  0  0  0  0  0
   -0.4560    3.3970  -24.2610 C   0  0  0  0  0  0
    0.0510    4.6340  -23.6800 C   0  0  0  0  0  0
   -1.9090    3.3730  -24.6140 C   0  0  0  0  0  0
    4.2570    1.4880  -23.0810 C   0  0  0  0  0  0
    5.1980    1.1650  -21.9310 C   0  0  2  0  0  0
    6.7640    2.7240  -22.4910 C   0  0  2  0  0  0
    5.1640    2.1820  -20.7780 C   0  0  0  0  0  0
   -2.2380    3.5070  -26.0440 C   0  0  0  0  0  0
   -1.4790    2.8220  -21.6620 C   0  0  0  0  0  0
   -0.4420    2.4990  -21.1520 C   0  0  0  0  0  0
   -0.8080    5.6700  -23.3500 F   0  0  0  0  0  0
   -3.6680    3.0970  -20.1350 F   0  0  0  0  0  0
    1.8320    6.0260  -22.9190 N   0  0  0  0  0  0
    4.0640    5.1360  -22.9800 N   0  0  0  0  0  0
    0.3800    2.5020  -24.6650 N   0  0  0  0  0  0
    4.5450    2.9370  -23.5710 N   0  0  0  0  0  0
    6.6030    1.2480  -22.4150 N   0  0  1  0  0  0
   -3.7690    3.6530  -27.8010 O   0  0  0  0  0  0
   -5.9280    3.6032  -21.1372 H   0  0  0  0  0  0
   -6.4138    3.8816  -23.5322 H   0  0  0  0  0  0
    5.6614    4.1433  -21.2682 H   0  0  0  0  0  0
    6.9355    3.1993  -20.3767 H   0  0  0  0  0  0
    6.4076    2.8169  -24.6153 H   0  0  0  0  0  0
    6.1311    4.3598  -23.7444 H   0  0  0  0  0  0
   -5.6156    3.9256  -25.8972 H   0  0  0  0  0  0
    2.3375    1.7949  -24.6330 H   0  0  0  0  0  0
    3.2155    1.4194  -22.7338 H   0  0  0  0  0  0
    4.4307    0.7813  -23.9059 H   0  0  0  0  0  0
    4.9911    0.1550  -21.5476 H   0  0  0  0  0  0
    7.8280    2.9983  -22.5424 H   0  0  0  0  0  0
    4.1726    2.6570  -20.7407 H   0  0  0  0  0  0
    5.4737    1.6867  -19.8459 H   0  0  0  0  0  0
   -1.4686    3.4889  -26.8074 H   0  0  0  0  0  0
    0.4707    2.2151  -20.7031 H   0  0  0  0  0  0
    7.2600    0.7718  -21.7023 H   0  0  0  0  0  0
   -2.9229    3.5728  -28.2255 H   0  0  0  0  0  0
    6.0580    8.9060  -21.1880 N   0  3  0  0  0  0
    7.2870    7.3530  -19.8380 N   0  0  0  0  0  0
    4.0500    7.4910  -20.8260 C   0  0  0  0  0  0
    4.8000    8.7860  -20.4610 C   0  0  0  0  0  0
    3.6890    7.4420  -22.3240 C   0  0  0  0  0  0
    7.1550    8.2110  -20.8560 C   0  0  0  0  0  0
    8.3510    8.4450  -21.7500 C   0  0  0  0  0  0
    6.0820    9.5580  -21.9850 H   0  0  0  0  0  0
    8.1856    6.8747  -19.6809 H   0  0  0  0  0  0
    6.4901    7.1720  -19.2111 H   0  0  0  0  0  0
    3.1309    7.4190  -20.2259 H   0  0  0  0  0  0
    4.6741    6.6218  -20.5710 H   0  0  0  0  0  0
    4.1630    9.6541  -20.6860 H   0  0  0  0  0  0
    4.9999    8.8010  -19.3794 H   0  0  0  0  0  0
    4.5758    7.6990  -22.9219 H   0  0  0  0  0  0
    2.9456    8.2214  -22.5471 H   0  0  0  0  0  0
    9.1962    7.8348  -21.3989 H   0  0  0  0  0  0
    8.0981    8.1631  -22.7827 H   0  0  0  0  0  0
    8.6299    9.5086  -21.7190 H   0  0  0  0  0  0
  1  2  2  0  0  0
  1  3  1  0  0  0
  1 34  1  0  0  0
  2  6  1  0  0  0
  2 35  1  0  0  0
  3  5  2  0  0  0
  3 27  1  0  0  0
  4  5  1  0  0  0
  4  6  2  0  0  0
  4 18  1  0  0  0
  5 24  1  0  0  0
  6 10  1  0  0  0
  7 10  2  0  0  0
  7 23  1  0  0  0
  7 33  1  0  0  0
  8 21  1  0  0  0
  8 22  1  0  0  0
  8 36  1  0  0  0
  8 37  1  0  0  0
  9 21  1  0  0  0
  9 31  1  0  0  0
  9 38  1  0  0  0
  9 39  1  0  0  0
 10 40  1  0  0  0
 11 12  1  0  0  0
 11 14  2  0  0  0
 11 15  1  0  0  0
 12 17  1  0  0  0
 12 28  2  0  0  0
 13 28  1  0  0  0
 13 29  2  0  0  0
 13 56  1  0  0  0
 14 29  1  0  0  0
 14 31  1  0  0  0
 15 30  2  0  0  0
 15 41  1  0  0  0
 16 17  2  0  0  0
 16 18  1  0  0  0
 16 30  1  0  0  0
 17 26  1  0  0  0
 18 23  2  0  0  0
 19 20  1  0  0  0
 19 31  1  0  0  0
 19 42  1  0  0  0
 19 43  1  0  0  0
 20 22  1  0  0  0
 20 32  1  0  0  0
 20 44  1  0  0  0
 21 32  1  0  0  0
 21 45  1  0  0  0
 22 46  1  0  0  0
 22 47  1  0  0  0
 23 48  1  0  0  0
 24 25  3  0  0  0
 25 49  1  0  0  0
 32 50  1  0  0  0
 33 51  1  0  0  0
 52 55  1  0  0  0
 52 57  2  0  0  0
 52 59  1  0  0  0
 53 57  1  0  0  0
 53 60  1  0  0  0
 53 61  1  0  0  0
 54 55  1  0  0  0
 54 56  1  0  0  0
 54 62  1  0  0  0
 54 63  1  0  0  0
 55 64  1  0  0  0
 55 65  1  0  0  0
 56 66  1  0  0  0
 56 67  1  0  0  0
 57 58  1  0  0  0
 58 68  1  0  0  0
 58 69  1  0  0  0
 58 70  1  0  0  0
M  CHG  1  52   1
M  END
> <s_m_entry_id>
69

> <s_m_entry_name>
000000069.1

> <s_m_Source_Path>
/Users/zaksoul/Documents/2

> <s_m_Source_File>
000000069.mol2

> <i_m_Source_File_Index>
1

$$$$
No_0_72
                    3D
 Schrodinger Suite 2022-4.
 70 75  0  0  1  0            999 V2000
   -5.1220    3.5830  -21.9170 C   0  0  0  0  0  0
   -5.4060    3.7260  -23.2550 C   0  0  0  0  0  0
   -3.8760    3.3570  -21.5840 C   0  0  0  0  0  0
   -3.0120    3.4250  -23.7630 C   0  0  0  0  0  0
   -2.8320    3.2280  -22.3370 C   0  0  0  0  0  0
   -4.3690    3.6540  -24.2760 C   0  0  0  0  0  0
   -3.6400    3.6160  -26.4820 C   0  0  0  0  0  0
    6.1590    3.1740  -21.3150 C   0  0  0  0  0  0
    5.9880    3.2330  -23.8660 C   0  0  0  0  0  0
   -4.6380    3.7360  -25.6110 C   0  0  0  0  0  0
    2.1970    3.7320  -23.8540 C   0  0  0  0  0  0
    1.3650    4.8390  -23.5800 C   0  0  0  0  0  0
    3.1550    6.0780  -22.9610 C   0  0  0  0  0  0
    3.5980    3.9510  -23.5640 C   0  0  0  0  0  0
    1.6580    2.5870  -24.4730 C   0  0  0  0  0  0
   -0.4790    3.3770  -24.3630 C   0  0  0  0  0  0
    0.0390    4.6220  -23.8090 C   0  0  0  0  0  0
   -1.9360    3.3530  -24.6990 C   0  0  0  0  0  0
    4.2400    1.4710  -23.2010 C   0  0  0  0  0  0
    5.1920    1.1640  -22.0550 C   0  0  2  0  0  0
    6.7580    2.7070  -22.6600 C   0  0  2  0  0  0
    5.1740    2.2010  -20.9200 C   0  0  0  0  0  0
   -2.2800    3.4630  -26.1280 C   0  0  0  0  0  0
   -1.4750    2.8520  -21.7430 C   0  0  0  0  0  0
   -0.4340    2.5330  -21.2390 C   0  0  0  0  0  0
   -0.8130    5.6660  -23.4870 F   0  0  0  0  0  0
   -3.6460    3.1610  -20.1970 F   0  0  0  0  0  0
    1.8330    6.0200  -23.0920 N   0  0  0  0  0  0
    4.0610    5.1210  -23.1610 N   0  0  0  0  0  0
    0.3490    2.4720  -24.7600 N   0  0  0  0  0  0
    4.5280    2.9090  -23.7200 N   0  0  0  0  0  0
    6.5920    1.2340  -22.5570 N   0  0  1  0  0  0
   -3.8300    3.5840  -27.8700 O   0  0  0  0  0  0
   -5.9162    3.6583  -21.1831 H   0  0  0  0  0  0
   -6.4271    3.8967  -23.5763 H   0  0  0  0  0  0
    5.6736    4.1518  -21.4502 H   0  0  0  0  0  0
    6.9541    3.2184  -20.5562 H   0  0  0  0  0  0
    6.3777    2.7645  -24.7818 H   0  0  0  0  0  0
    6.1171    4.3232  -23.9346 H   0  0  0  0  0  0
   -5.6549    3.8966  -25.9503 H   0  0  0  0  0  0
    2.3044    1.7579  -24.7370 H   0  0  0  0  0  0
    3.2020    1.4124  -22.8415 H   0  0  0  0  0  0
    4.4015    0.7494  -24.0154 H   0  0  0  0  0  0
    4.9852    0.1614  -21.6525 H   0  0  0  0  0  0
    7.8224    2.9764  -22.7276 H   0  0  0  0  0  0
    4.1848    2.6805  -20.8806 H   0  0  0  0  0  0
    5.4922    1.7212  -19.9827 H   0  0  0  0  0  0
   -1.5189    3.4289  -26.8991 H   0  0  0  0  0  0
    0.4825    2.2532  -20.7953 H   0  0  0  0  0  0
    7.2538    0.7668  -21.8428 H   0  0  0  0  0  0
   -2.9890    3.4930  -28.3024 H   0  0  0  0  0  0
    6.1890    9.0320  -21.9710 N   0  3  0  0  0  0
    7.8630    7.5030  -21.1930 N   0  0  0  0  0  0
    4.4770    7.4030  -21.2090 C   0  0  0  0  0  0
    5.2070    8.7310  -20.9360 C   0  0  0  0  0  0
    3.7020    7.4390  -22.5420 C   0  0  0  0  0  0
    7.3810    8.4230  -22.0370 C   0  0  0  0  0  0
    8.2470    8.8440  -23.2020 C   0  0  0  0  0  0
    5.9349    9.7443  -22.6703 H   0  0  0  0  0  0
    8.7995    7.1028  -21.3471 H   0  0  0  0  0  0
    7.2968    7.1949  -20.3897 H   0  0  0  0  0  0
    3.7786    7.1929  -20.3855 H   0  0  0  0  0  0
    5.2078    6.5812  -21.2330 H   0  0  0  0  0  0
    4.4728    9.5482  -20.8800 H   0  0  0  0  0  0
    5.7099    8.6780  -19.9591 H   0  0  0  0  0  0
    4.3570    7.8290  -23.3350 H   0  0  0  0  0  0
    2.8727    8.1573  -22.4630 H   0  0  0  0  0  0
    9.1984    8.2928  -23.1700 H   0  0  0  0  0  0
    7.7267    8.6229  -24.1456 H   0  0  0  0  0  0
    8.4470    9.9238  -23.1390 H   0  0  0  0  0  0
  1  2  2  0  0  0
  1  3  1  0  0  0
  1 34  1  0  0  0
  2  6  1  0  0  0
  2 35  1  0  0  0
  3  5  2  0  0  0
  3 27  1  0  0  0
  4  5  1  0  0  0
  4  6  2  0  0  0
  4 18  1  0  0  0
  5 24  1  0  0  0
  6 10  1  0  0  0
  7 10  2  0  0  0
  7 23  1  0  0  0
  7 33  1  0  0  0
  8 21  1  0  0  0
  8 22  1  0  0  0
  8 36  1  0  0  0
  8 37  1  0  0  0
  9 21  1  0  0  0
  9 31  1  0  0  0
  9 38  1  0  0  0
  9 39  1  0  0  0
 10 40  1  0  0  0
 11 12  1  0  0  0
 11 14  2  0  0  0
 11 15  1  0  0  0
 12 17  1  0  0  0
 12 28  2  0  0  0
 13 28  1  0  0  0
 13 29  2  0  0  0
 13 56  1  0  0  0
 14 29  1  0  0  0
 14 31  1  0  0  0
 15 30  2  0  0  0
 15 41  1  0  0  0
 16 17  2  0  0  0
 16 18  1  0  0  0
 16 30  1  0  0  0
 17 26  1  0  0  0
 18 23  2  0  0  0
 19 20  1  0  0  0
 19 31  1  0  0  0
 19 42  1  0  0  0
 19 43  1  0  0  0
 20 22  1  0  0  0
 20 32  1  0  0  0
 20 44  1  0  0  0
 21 32  1  0  0  0
 21 45  1  0  0  0
 22 46  1  0  0  0
 22 47  1  0  0  0
 23 48  1  0  0  0
 24 25  3  0  0  0
 25 49  1  0  0  0
 32 50  1  0  0  0
 33 51  1  0  0  0
 52 55  1  0  0  0
 52 57  2  0  0  0
 52 59  1  0  0  0
 53 57  1  0  0  0
 53 60  1  0  0  0
 53 61  1  0  0  0
 54 55  1  0  0  0
 54 56  1  0  0  0
 54 62  1  0  0  0
 54 63  1  0  0  0
 55 64  1  0  0  0
 55 65  1  0  0  0
 56 66  1  0  0  0
 56 67  1  0  0  0
 57 58  1  0  0  0
 58 68  1  0  0  0
 58 69  1  0  0  0
 58 70  1  0  0  0
M  CHG  1  52   1
M  END
> <s_m_entry_id>
70

> <s_m_entry_name>
000000070.1

> <s_m_Source_Path>
/Users/zaksoul/Documents/2

> <s_m_Source_File>
000000070.mol2

> <i_m_Source_File_Index>
1

$$$$
No_0_73
                    3D
 Schrodinger Suite 2022-4.
 70 75  0  0  1  0            999 V2000
   -5.1600    3.3730  -22.1070 C   0  0  0  0  0  0
   -5.3980    3.5650  -23.4470 C   0  0  0  0  0  0
   -3.9240    3.1520  -21.7380 C   0  0  0  0  0  0
   -2.9840    3.3210  -23.8800 C   0  0  0  0  0  0
   -2.8510    3.0690  -22.4570 C   0  0  0  0  0  0
   -4.3250    3.5500  -24.4320 C   0  0  0  0  0  0
   -3.5170    3.6100  -26.6110 C   0  0  0  0  0  0
    6.0970    3.1070  -21.1120 C   0  0  0  0  0  0
    6.0170    3.2660  -23.6630 C   0  0  0  0  0  0
   -4.5470    3.6810  -25.7720 C   0  0  0  0  0  0
    2.2200    3.7080  -23.7700 C   0  0  0  0  0  0
    1.3610    4.7900  -23.4830 C   0  0  0  0  0  0
    3.1070    6.0300  -22.7500 C   0  0  0  0  0  0
    3.6060    3.9350  -23.4200 C   0  0  0  0  0  0
    1.7220    2.5810  -24.4520 C   0  0  0  0  0  0
   -0.4300    3.3330  -24.3880 C   0  0  0  0  0  0
    0.0470    4.5630  -23.7680 C   0  0  0  0  0  0
   -1.8730    3.3010  -24.7790 C   0  0  0  0  0  0
    4.2750    1.4530  -23.1320 C   0  0  0  0  0  0
    5.1900    1.1140  -21.9650 C   0  0  2  0  0  0
    6.7510    2.7030  -22.4510 C   0  0  2  0  0  0
    5.1150    2.1050  -20.7920 C   0  0  0  0  0  0
   -2.1680    3.4630  -26.2130 C   0  0  0  0  0  0
   -1.5100    2.6890  -21.8290 C   0  0  0  0  0  0
   -0.4830    2.3670  -21.3000 C   0  0  0  0  0  0
   -0.8320    5.5810  -23.4360 F   0  0  0  0  0  0
   -3.7400    2.9040  -20.3530 F   0  0  0  0  0  0
    1.7920    5.9580  -22.9310 N   0  0  0  0  0  0
    4.0360    5.0950  -22.9550 N   0  0  0  0  0  0
    0.4260    2.4570  -24.7900 N   0  0  0  0  0  0
    4.5580    2.9150  -23.5830 N   0  0  0  0  0  0
    6.6060    1.2250  -22.4120 N   0  0  1  0  0  0
   -3.6560    3.6310  -28.0040 O   0  0  0  0  0  0
   -5.9812    3.4081  -21.4003 H   0  0  0  0  0  0
   -6.4093    3.7335  -23.7991 H   0  0  0  0  0  0
    5.6013    4.0823  -21.2261 H   0  0  0  0  0  0
    6.8634    3.1332  -20.3234 H   0  0  0  0  0  0
    6.4470    2.8400  -24.5815 H   0  0  0  0  0  0
    6.1300    4.3600  -23.6842 H   0  0  0  0  0  0
   -5.5536    3.8397  -26.1417 H   0  0  0  0  0  0
    2.3907    1.7727  -24.7251 H   0  0  0  0  0  0
    3.2260    1.3642  -22.8130 H   0  0  0  0  0  0
    4.4768    0.7667  -23.9676 H   0  0  0  0  0  0
    4.9850    0.0931  -21.6105 H   0  0  0  0  0  0
    7.8126    2.9906  -22.4692 H   0  0  0  0  0  0
    4.1174    2.5680  -20.7688 H   0  0  0  0  0  0
    5.4067    1.5923  -19.8635 H   0  0  0  0  0  0
   -1.3793    3.4710  -26.9566 H   0  0  0  0  0  0
    0.4212    2.0819  -20.8349 H   0  0  0  0  0  0
    7.2497    0.7395  -21.6934 H   0  0  0  0  0  0
   -2.7987    3.5706  -28.4089 H   0  0  0  0  0  0
    6.0320    9.1470  -21.9530 N   0  3  0  0  0  0
    7.9450    7.7210  -21.7230 N   0  0  0  0  0  0
    4.6440    7.2670  -21.1140 C   0  0  0  0  0  0
    5.3060    8.6230  -20.8030 C   0  0  0  0  0  0
    3.6170    7.3810  -22.2580 C   0  0  0  0  0  0
    7.2310    8.6800  -22.3260 C   0  0  0  0  0  0
    7.8100    9.3260  -23.5630 C   0  0  0  0  0  0
    5.5871    9.9079  -22.4859 H   0  0  0  0  0  0
    8.8604    7.4439  -22.1052 H   0  0  0  0  0  0
    7.5779    7.2609  -20.8778 H   0  0  0  0  0  0
    4.1442    6.8881  -20.2103 H   0  0  0  0  0  0
    5.4190    6.5360  -21.3880 H   0  0  0  0  0  0
    4.5343    9.3447  -20.4971 H   0  0  0  0  0  0
    5.9970    8.5070  -19.9550 H   0  0  0  0  0  0
    4.0659    7.9299  -23.0989 H   0  0  0  0  0  0
    2.7659    7.9931  -21.9249 H   0  0  0  0  0  0
    8.7891    8.8780  -23.7880 H   0  0  0  0  0  0
    7.1301    9.1660  -24.4128 H   0  0  0  0  0  0
    7.9310   10.4057  -23.3910 H   0  0  0  0  0  0
  1  2  2  0  0  0
  1  3  1  0  0  0
  1 34  1  0  0  0
  2  6  1  0  0  0
  2 35  1  0  0  0
  3  5  2  0  0  0
  3 27  1  0  0  0
  4  5  1  0  0  0
  4  6  2  0  0  0
  4 18  1  0  0  0
  5 24  1  0  0  0
  6 10  1  0  0  0
  7 10  2  0  0  0
  7 23  1  0  0  0
  7 33  1  0  0  0
  8 21  1  0  0  0
  8 22  1  0  0  0
  8 36  1  0  0  0
  8 37  1  0  0  0
  9 21  1  0  0  0
  9 31  1  0  0  0
  9 38  1  0  0  0
  9 39  1  0  0  0
 10 40  1  0  0  0
 11 12  1  0  0  0
 11 14  2  0  0  0
 11 15  1  0  0  0
 12 17  1  0  0  0
 12 28  2  0  0  0
 13 28  1  0  0  0
 13 29  2  0  0  0
 13 56  1  0  0  0
 14 29  1  0  0  0
 14 31  1  0  0  0
 15 30  2  0  0  0
 15 41  1  0  0  0
 16 17  2  0  0  0
 16 18  1  0  0  0
 16 30  1  0  0  0
 17 26  1  0  0  0
 18 23  2  0  0  0
 19 20  1  0  0  0
 19 31  1  0  0  0
 19 42  1  0  0  0
 19 43  1  0  0  0
 20 22  1  0  0  0
 20 32  1  0  0  0
 20 44  1  0  0  0
 21 32  1  0  0  0
 21 45  1  0  0  0
 22 46  1  0  0  0
 22 47  1  0  0  0
 23 48  1  0  0  0
 24 25  3  0  0  0
 25 49  1  0  0  0
 32 50  1  0  0  0
 33 51  1  0  0  0
 52 55  1  0  0  0
 52 57  2  0  0  0
 52 59  1  0  0  0
 53 57  1  0  0  0
 53 60  1  0  0  0
 53 61  1  0  0  0
 54 55  1  0  0  0
 54 56  1  0  0  0
 54 62  1  0  0  0
 54 63  1  0  0  0
 55 64  1  0  0  0
 55 65  1  0  0  0
 56 66  1  0  0  0
 56 67  1  0  0  0
 57 58  1  0  0  0
 58 68  1  0  0  0
 58 69  1  0  0  0
 58 70  1  0  0  0
M  CHG  1  52   1
M  END
> <s_m_entry_id>
71

> <s_m_entry_name>
000000071.1

> <s_m_Source_Path>
/Users/zaksoul/Documents/2

> <s_m_Source_File>
000000071.mol2

> <i_m_Source_File_Index>
1

$$$$
No_0_74
                    3D
 Schrodinger Suite 2022-4.
 70 75  0  0  1  0            999 V2000
   -5.1570    3.3150  -21.9850 C   0  0  0  0  0  0
   -5.4140    3.5060  -23.3220 C   0  0  0  0  0  0
   -3.9150    3.1070  -21.6310 C   0  0  0  0  0  0
   -3.0020    3.2860  -23.7840 C   0  0  0  0  0  0
   -2.8500    3.0350  -22.3630 C   0  0  0  0  0  0
   -4.3520    3.5020  -24.3200 C   0  0  0  0  0  0
   -3.5710    3.5730  -26.5080 C   0  0  0  0  0  0
    6.1130    3.1630  -21.1250 C   0  0  0  0  0  0
    6.0010    3.3230  -23.6750 C   0  0  0  0  0  0
   -4.5920    3.6320  -25.6570 C   0  0  0  0  0  0
    2.1980    3.7260  -23.7360 C   0  0  0  0  0  0
    1.3320    4.8000  -23.4380 C   0  0  0  0  0  0
    3.0740    6.0570  -22.7250 C   0  0  0  0  0  0
    3.5860    3.9670  -23.4030 C   0  0  0  0  0  0
    1.7030    2.5950  -24.4130 C   0  0  0  0  0  0
   -0.4550    3.3250  -24.3230 C   0  0  0  0  0  0
    0.0170    4.5590  -23.7070 C   0  0  0  0  0  0
   -1.9020    3.2790  -24.6960 C   0  0  0  0  0  0
    4.2830    1.4920  -23.1250 C   0  0  0  0  0  0
    5.2160    1.1620  -21.9700 C   0  0  2  0  0  0
    6.7550    2.7670  -22.4730 C   0  0  2  0  0  0
    5.1450    2.1510  -20.7940 C   0  0  0  0  0  0
   -2.2160    3.4390  -26.1260 C   0  0  0  0  0  0
   -1.4980    2.6680  -21.7510 C   0  0  0  0  0  0
   -0.4610    2.3560  -21.2350 C   0  0  0  0  0  0
   -0.8680    5.5680  -23.3640 F   0  0  0  0  0  0
   -3.7120    2.8600  -20.2480 F   0  0  0  0  0  0
    1.7570    5.9710  -22.8900 N   0  0  0  0  0  0
    4.0090    5.1310  -22.9420 N   0  0  0  0  0  0
    0.4050    2.4580  -24.7360 N   0  0  0  0  0  0
    4.5460    2.9570  -23.5780 N   0  0  0  0  0  0
    6.6250    1.2870  -22.4340 N   0  0  1  0  0  0
   -3.7270    3.5930  -27.8990 O   0  0  0  0  0  0
   -5.9699    3.3411  -21.2684 H   0  0  0  0  0  0
   -6.4312    3.6647  -23.6614 H   0  0  0  0  0  0
    5.6065    4.1336  -21.2319 H   0  0  0  0  0  0
    6.8884    3.1963  -20.3455 H   0  0  0  0  0  0
    6.4229    2.9021  -24.5996 H   0  0  0  0  0  0
    6.1019    4.4181  -23.6972 H   0  0  0  0  0  0
   -5.6043    3.7816  -26.0145 H   0  0  0  0  0  0
    2.3774    1.7942  -24.6940 H   0  0  0  0  0  0
    3.2390    1.3931  -22.7928 H   0  0  0  0  0  0
    4.4828    0.8088  -23.9636 H   0  0  0  0  0  0
    5.0263    0.1390  -21.6129 H   0  0  0  0  0  0
    7.8133    3.0656  -22.5033 H   0  0  0  0  0  0
    4.1428    2.6031  -20.7587 H   0  0  0  0  0  0
    5.4537    1.6405  -19.8698 H   0  0  0  0  0  0
   -1.4371    3.4561  -26.8798 H   0  0  0  0  0  0
    0.4519    2.0810  -20.7810 H   0  0  0  0  0  0
    7.2823    0.8082  -21.7233 H   0  0  0  0  0  0
   -2.8742    3.5416  -28.3145 H   0  0  0  0  0  0
    5.8380    9.3910  -22.3420 N   0  3  0  0  0  0
    7.8600    8.1580  -22.7140 N   0  0  0  0  0  0
    4.8580    7.3200  -21.3860 C   0  0  0  0  0  0
    5.4620    8.7100  -21.1100 C   0  0  0  0  0  0
    3.5760    7.4120  -22.2380 C   0  0  0  0  0  0
    6.9440    9.0800  -23.0330 C   0  0  0  0  0  0
    7.1450    9.8740  -24.3030 C   0  0  0  0  0  0
    5.2149   10.1391  -22.6781 H   0  0  0  0  0  0
    8.6734    8.0059  -23.3273 H   0  0  0  0  0  0
    7.7510    7.6001  -21.8551 H   0  0  0  0  0  0
    4.6279    6.8238  -20.4316 H   0  0  0  0  0  0
    5.5990    6.6960  -21.9070 H   0  0  0  0  0  0
    4.7320    9.3230  -20.5610 H   0  0  0  0  0  0
    6.3471    8.6020  -20.4659 H   0  0  0  0  0  0
    3.7590    8.0662  -23.1032 H   0  0  0  0  0  0
    2.7852    7.9069  -21.6551 H   0  0  0  0  0  0
    8.0728    9.5481  -24.7959 H   0  0  0  0  0  0
    6.2936    9.7079  -24.9794 H   0  0  0  0  0  0
    7.2170   10.9442  -24.0590 H   0  0  0  0  0  0
  1  2  2  0  0  0
  1  3  1  0  0  0
  1 34  1  0  0  0
  2  6  1  0  0  0
  2 35  1  0  0  0
  3  5  2  0  0  0
  3 27  1  0  0  0
  4  5  1  0  0  0
  4  6  2  0  0  0
  4 18  1  0  0  0
  5 24  1  0  0  0
  6 10  1  0  0  0
  7 10  2  0  0  0
  7 23  1  0  0  0
  7 33  1  0  0  0
  8 21  1  0  0  0
  8 22  1  0  0  0
  8 36  1  0  0  0
  8 37  1  0  0  0
  9 21  1  0  0  0
  9 31  1  0  0  0
  9 38  1  0  0  0
  9 39  1  0  0  0
 10 40  1  0  0  0
 11 12  1  0  0  0
 11 14  2  0  0  0
 11 15  1  0  0  0
 12 17  1  0  0  0
 12 28  2  0  0  0
 13 28  1  0  0  0
 13 29  2  0  0  0
 13 56  1  0  0  0
 14 29  1  0  0  0
 14 31  1  0  0  0
 15 30  2  0  0  0
 15 41  1  0  0  0
 16 17  2  0  0  0
 16 18  1  0  0  0
 16 30  1  0  0  0
 17 26  1  0  0  0
 18 23  2  0  0  0
 19 20  1  0  0  0
 19 31  1  0  0  0
 19 42  1  0  0  0
 19 43  1  0  0  0
 20 22  1  0  0  0
 20 32  1  0  0  0
 20 44  1  0  0  0
 21 32  1  0  0  0
 21 45  1  0  0  0
 22 46  1  0  0  0
 22 47  1  0  0  0
 23 48  1  0  0  0
 24 25  3  0  0  0
 25 49  1  0  0  0
 32 50  1  0  0  0
 33 51  1  0  0  0
 52 55  1  0  0  0
 52 57  2  0  0  0
 52 59  1  0  0  0
 53 57  1  0  0  0
 53 60  1  0  0  0
 53 61  1  0  0  0
 54 55  1  0  0  0
 54 56  1  0  0  0
 54 62  1  0  0  0
 54 63  1  0  0  0
 55 64  1  0  0  0
 55 65  1  0  0  0
 56 66  1  0  0  0
 56 67  1  0  0  0
 57 58  1  0  0  0
 58 68  1  0  0  0
 58 69  1  0  0  0
 58 70  1  0  0  0
M  CHG  1  52   1
M  END
> <s_m_entry_id>
72

> <s_m_entry_name>
000000072.1

> <s_m_Source_Path>
/Users/zaksoul/Documents/2

> <s_m_Source_File>
000000072.mol2

> <i_m_Source_File_Index>
1

$$$$
No_0_75
                    3D
 Schrodinger Suite 2022-4.
 70 75  0  0  1  0            999 V2000
   -5.2270    3.3990  -21.9660 C   0  0  0  0  0  0
   -5.4710    3.5820  -23.3070 C   0  0  0  0  0  0
   -3.9880    3.1860  -21.6000 C   0  0  0  0  0  0
   -3.0560    3.3480  -23.7460 C   0  0  0  0  0  0
   -2.9170    3.1050  -22.3230 C   0  0  0  0  0  0
   -4.4000    3.5670  -24.2940 C   0  0  0  0  0  0
   -3.6000    3.6210  -26.4760 C   0  0  0  0  0  0
    6.0350    3.1940  -21.0070 C   0  0  0  0  0  0
    5.9460    3.3390  -23.5590 C   0  0  0  0  0  0
   -4.6270    3.6900  -25.6350 C   0  0  0  0  0  0
    2.1460    3.7610  -23.6550 C   0  0  0  0  0  0
    1.2820    4.8410  -23.3710 C   0  0  0  0  0  0
    3.0250    6.0940  -22.6500 C   0  0  0  0  0  0
    3.5320    3.9980  -23.3120 C   0  0  0  0  0  0
    1.6510    2.6290  -24.3300 C   0  0  0  0  0  0
   -0.5040    3.3710  -24.2630 C   0  0  0  0  0  0
   -0.0310    4.6060  -23.6500 C   0  0  0  0  0  0
   -1.9480    3.3300  -24.6480 C   0  0  0  0  0  0
    4.2140    1.5200  -23.0130 C   0  0  0  0  0  0
    5.1350    1.1920  -21.8470 C   0  0  2  0  0  0
    6.6870    2.7870  -22.3460 C   0  0  2  0  0  0
    5.0590    2.1890  -20.6790 C   0  0  0  0  0  0
   -2.2490    3.4830  -26.0820 C   0  0  0  0  0  0
   -1.5730    2.7350  -21.6970 C   0  0  0  0  0  0
   -0.5420    2.4200  -21.1700 C   0  0  0  0  0  0
   -0.9140    5.6220  -23.3210 F   0  0  0  0  0  0
   -3.7990    2.9460  -20.2140 F   0  0  0  0  0  0
    1.7090    6.0140  -22.8260 N   0  0  0  0  0  0
    3.9570    5.1620  -22.8530 N   0  0  0  0  0  0
    0.3550    2.4970  -24.6630 N   0  0  0  0  0  0
    4.4880    2.9810  -23.4720 N   0  0  0  0  0  0
    6.5480    1.3080  -22.3000 N   0  0  1  0  0  0
   -3.7440    3.6340  -27.8690 O   0  0  0  0  0  0
   -6.0454    3.4331  -21.2560 H   0  0  0  0  0  0
   -6.4845    3.7447  -23.6555 H   0  0  0  0  0  0
    5.5342    4.1664  -21.1241 H   0  0  0  0  0  0
    6.8038    3.2283  -20.2210 H   0  0  0  0  0  0
    6.3743    2.9107  -24.4772 H   0  0  0  0  0  0
    6.0529    4.4335  -23.5862 H   0  0  0  0  0  0
   -5.6357    3.8426  -26.0014 H   0  0  0  0  0  0
    2.3231    1.8225  -24.5998 H   0  0  0  0  0  0
    3.1668    1.4282  -22.6891 H   0  0  0  0  0  0
    4.4169    0.8306  -23.8458 H   0  0  0  0  0  0
    4.9360    0.1720  -21.4865 H   0  0  0  0  0  0
    7.7470    3.0798  -22.3702 H   0  0  0  0  0  0
    4.0592    2.6470  -20.6548 H   0  0  0  0  0  0
    5.3566    1.6826  -19.7489 H   0  0  0  0  0  0
   -1.4632    3.4910  -26.8287 H   0  0  0  0  0  0
    0.3652    2.1429  -20.7059 H   0  0  0  0  0  0
    7.1964    0.8294  -21.5811 H   0  0  0  0  0  0
   -2.8879    3.5756  -28.2767 H   0  0  0  0  0  0
    5.5700    9.6190  -22.5880 N   0  3  0  0  0  0
    7.5360    8.5940  -23.5000 N   0  0  0  0  0  0
    4.9740    7.4080  -21.6280 C   0  0  0  0  0  0
    5.5280    8.8220  -21.3680 C   0  0  0  0  0  0
    3.5300    7.4500  -22.1670 C   0  0  0  0  0  0
    6.5100    9.4540  -23.5290 C   0  0  0  0  0  0
    6.3670   10.3500  -24.7370 C   0  0  0  0  0  0
    4.8375   10.3324  -22.7121 H   0  0  0  0  0  0
    8.1997    8.5570  -24.2868 H   0  0  0  0  0  0
    7.6609    7.9694  -22.6906 H   0  0  0  0  0  0
    4.9990    6.8279  -20.6938 H   0  0  0  0  0  0
    5.6195    6.8886  -22.3516 H   0  0  0  0  0  0
    4.8999    9.3291  -20.6208 H   0  0  0  0  0  0
    6.5405    8.7460  -20.9448 H   0  0  0  0  0  0
    3.4680    8.1771  -22.9901 H   0  0  0  0  0  0
    2.8580    7.8310  -21.3839 H   0  0  0  0  0  0
    7.1804   10.1409  -25.4474 H   0  0  0  0  0  0
    5.3981   10.1600  -25.2219 H   0  0  0  0  0  0
    6.4180   11.4024  -24.4209 H   0  0  0  0  0  0
  1  2  2  0  0  0
  1  3  1  0  0  0
  1 34  1  0  0  0
  2  6  1  0  0  0
  2 35  1  0  0  0
  3  5  2  0  0  0
  3 27  1  0  0  0
  4  5  1  0  0  0
  4  6  2  0  0  0
  4 18  1  0  0  0
  5 24  1  0  0  0
  6 10  1  0  0  0
  7 10  2  0  0  0
  7 23  1  0  0  0
  7 33  1  0  0  0
  8 21  1  0  0  0
  8 22  1  0  0  0
  8 36  1  0  0  0
  8 37  1  0  0  0
  9 21  1  0  0  0
  9 31  1  0  0  0
  9 38  1  0  0  0
  9 39  1  0  0  0
 10 40  1  0  0  0
 11 12  1  0  0  0
 11 14  2  0  0  0
 11 15  1  0  0  0
 12 17  1  0  0  0
 12 28  2  0  0  0
 13 28  1  0  0  0
 13 29  2  0  0  0
 13 56  1  0  0  0
 14 29  1  0  0  0
 14 31  1  0  0  0
 15 30  2  0  0  0
 15 41  1  0  0  0
 16 17  2  0  0  0
 16 18  1  0  0  0
 16 30  1  0  0  0
 17 26  1  0  0  0
 18 23  2  0  0  0
 19 20  1  0  0  0
 19 31  1  0  0  0
 19 42  1  0  0  0
 19 43  1  0  0  0
 20 22  1  0  0  0
 20 32  1  0  0  0
 20 44  1  0  0  0
 21 32  1  0  0  0
 21 45  1  0  0  0
 22 46  1  0  0  0
 22 47  1  0  0  0
 23 48  1  0  0  0
 24 25  3  0  0  0
 25 49  1  0  0  0
 32 50  1  0  0  0
 33 51  1  0  0  0
 52 55  1  0  0  0
 52 57  2  0  0  0
 52 59  1  0  0  0
 53 57  1  0  0  0
 53 60  1  0  0  0
 53 61  1  0  0  0
 54 55  1  0  0  0
 54 56  1  0  0  0
 54 62  1  0  0  0
 54 63  1  0  0  0
 55 64  1  0  0  0
 55 65  1  0  0  0
 56 66  1  0  0  0
 56 67  1  0  0  0
 57 58  1  0  0  0
 58 68  1  0  0  0
 58 69  1  0  0  0
 58 70  1  0  0  0
M  CHG  1  52   1
M  END
> <s_m_entry_id>
73

> <s_m_entry_name>
000000073.1

> <s_m_Source_Path>
/Users/zaksoul/Documents/2

> <s_m_Source_File>
000000073.mol2

> <i_m_Source_File_Index>
1

$$$$
No_0_77
                    3D
 Schrodinger Suite 2022-4.
 75 81  0  0  1  0            999 V2000
   -5.4120    3.3660  -21.9430 C   0  0  0  0  0  0
   -5.6870    3.4990  -23.2830 C   0  0  0  0  0  0
   -4.1650    3.1670  -21.5970 C   0  0  0  0  0  0
   -3.2830    3.2490  -23.7680 C   0  0  0  0  0  0
   -3.1110    3.0600  -22.3410 C   0  0  0  0  0  0
   -4.6400    3.4470  -24.2940 C   0  0  0  0  0  0
   -3.8900    3.4190  -26.4940 C   0  0  0  0  0  0
    5.8690    3.2000  -21.2370 C   0  0  0  0  0  0
    5.7200    3.2490  -23.7890 C   0  0  0  0  0  0
   -4.8980    3.5200  -25.6320 C   0  0  0  0  0  0
    1.9190    3.6670  -23.8130 C   0  0  0  0  0  0
    1.0610    4.7560  -23.5500 C   0  0  0  0  0  0
    2.8190    6.0350  -22.9170 C   0  0  0  0  0  0
    3.3130    3.9160  -23.5110 C   0  0  0  0  0  0
    1.4100    2.5090  -24.4340 C   0  0  0  0  0  0
   -0.7440    3.2530  -24.3450 C   0  0  0  0  0  0
   -0.2580    4.5100  -23.7900 C   0  0  0  0  0  0
   -2.1970    3.1970  -24.6950 C   0  0  0  0  0  0
    4.0040    1.4520  -23.1350 C   0  0  0  0  0  0
    4.9510    1.1680  -21.9800 C   0  0  2  0  0  0
    6.4900    2.7430  -22.5740 C   0  0  2  0  0  0
    4.9010    2.2080  -20.8480 C   0  0  0  0  0  0
   -2.5300    3.2960  -26.1260 C   0  0  0  0  0  0
   -1.7530    2.7130  -21.7330 C   0  0  0  0  0  0
   -0.7100    2.4190  -21.2180 C   0  0  0  0  0  0
   -1.1340    5.5370  -23.4790 F   0  0  0  0  0  0
   -3.9440    2.9800  -20.2080 F   0  0  0  0  0  0
    1.4990    5.9480  -23.0600 N   0  0  0  0  0  0
    3.7470    5.0970  -23.1070 N   0  0  0  0  0  0
    0.1070    2.3650  -24.7320 N   0  0  0  0  0  0
    4.2660    2.8940  -23.6550 N   0  0  0  0  0  0
    6.3540    1.2660  -22.4690 N   0  0  1  0  0  0
   -4.0660    3.3800  -27.8830 O   0  0  0  0  0  0
   -6.2140    3.4272  -21.2163 H   0  0  0  0  0  0
   -6.7083    3.6485  -23.6141 H   0  0  0  0  0  0
    5.3643    4.1671  -21.3783 H   0  0  0  0  0  0
    6.6555    3.2636  -20.4706 H   0  0  0  0  0  0
    6.1277    2.7869  -24.7002 H   0  0  0  0  0  0
    5.8259    4.3416  -23.8596 H   0  0  0  0  0  0
   -5.9148    3.6585  -25.9813 H   0  0  0  0  0  0
    2.0765    1.6930  -24.6889 H   0  0  0  0  0  0
    2.9644    1.3713  -22.7848 H   0  0  0  0  0  0
    4.1887    0.7314  -23.9454 H   0  0  0  0  0  0
    4.7633    0.1621  -21.5764 H   0  0  0  0  0  0
    7.5489    3.0347  -22.6336 H   0  0  0  0  0  0
    3.9015    2.6664  -20.8187 H   0  0  0  0  0  0
    5.2208    1.7369  -19.9068 H   0  0  0  0  0  0
   -1.7621    3.2759  -26.8909 H   0  0  0  0  0  0
    0.2081    2.1593  -20.7655 H   0  0  0  0  0  0
    7.0199    0.8160  -21.7475 H   0  0  0  0  0  0
   -3.2195    3.3057  -28.3077 H   0  0  0  0  0  0
    5.9780    8.8460  -21.3670 N   0  0  0  0  0  0
    7.0410    7.2430  -19.9480 N   0  0  0  0  0  0
    6.0510    9.7460  -22.4080 N   0  0  0  0  0  0
    3.9590    7.3850  -21.0900 C   0  0  0  0  0  0
    8.2840    8.3740  -21.6650 C   0  0  0  0  0  0
    3.3330    7.4080  -22.4970 C   0  0  0  0  0  0
    4.6700    8.7050  -20.7340 C   0  0  0  0  0  0
    7.1770    9.9620  -23.0580 C   0  0  0  0  0  0
    7.0850    8.1500  -20.9810 C   0  0  0  0  0  0
    8.3270    9.2680  -22.6900 C   0  0  0  0  0  0
    9.5750    7.6520  -21.3140 C   0  0  0  0  0  0
    7.8920    6.7300  -19.6770 H   0  0  0  0  0  0
    6.1570    7.0770  -19.4460 H   0  0  0  0  0  0
    4.6762    6.5538  -21.0220 H   0  0  0  0  0  0
    3.1760    7.1800  -20.3450 H   0  0  0  0  0  0
    4.0801    7.7570  -23.2251 H   0  0  0  0  0  0
    2.5041    8.1309  -22.5170 H   0  0  0  0  0  0
    4.0319    9.5531  -21.0230 H   0  0  0  0  0  0
    4.7831    8.7761  -19.6421 H   0  0  0  0  0  0
    7.2040   10.6756  -23.8735 H   0  0  0  0  0  0
    9.2565    9.4399  -23.2207 H   0  0  0  0  0  0
   10.3791    7.9901  -21.9841 H   0  0  0  0  0  0
    9.8489    7.8759  -20.2724 H   0  0  0  0  0  0
    9.4329    6.5674  -21.4301 H   0  0  0  0  0  0
  1  2  2  0  0  0
  1  3  1  0  0  0
  1 34  1  0  0  0
  2  6  1  0  0  0
  2 35  1  0  0  0
  3  5  2  0  0  0
  3 27  1  0  0  0
  4  5  1  0  0  0
  4  6  2  0  0  0
  4 18  1  0  0  0
  5 24  1  0  0  0
  6 10  1  0  0  0
  7 10  2  0  0  0
  7 23  1  0  0  0
  7 33  1  0  0  0
  8 21  1  0  0  0
  8 22  1  0  0  0
  8 36  1  0  0  0
  8 37  1  0  0  0
  9 21  1  0  0  0
  9 31  1  0  0  0
  9 38  1  0  0  0
  9 39  1  0  0  0
 10 40  1  0  0  0
 11 12  2  0  0  0
 11 14  1  0  0  0
 11 15  1  0  0  0
 12 17  1  0  0  0
 12 28  1  0  0  0
 13 28  2  0  0  0
 13 29  1  0  0  0
 13 57  1  0  0  0
 14 29  2  0  0  0
 14 31  1  0  0  0
 15 30  2  0  0  0
 15 41  1  0  0  0
 16 17  2  0  0  0
 16 18  1  0  0  0
 16 30  1  0  0  0
 17 26  1  0  0  0
 18 23  2  0  0  0
 19 20  1  0  0  0
 19 31  1  0  0  0
 19 42  1  0  0  0
 19 43  1  0  0  0
 20 22  1  0  0  0
 20 32  1  0  0  0
 20 44  1  0  0  0
 21 32  1  0  0  0
 21 45  1  0  0  0
 22 46  1  0  0  0
 22 47  1  0  0  0
 23 48  1  0  0  0
 24 25  3  0  0  0
 25 49  1  0  0  0
 32 50  1  0  0  0
 33 51  1  0  0  0
 52 54  1  0  0  0
 52 58  1  0  0  0
 52 60  1  0  0  0
 53 60  1  0  0  0
 53 63  1  0  0  0
 53 64  1  0  0  0
 54 59  2  0  0  0
 55 57  1  0  0  0
 55 58  1  0  0  0
 55 65  1  0  0  0
 55 66  1  0  0  0
 56 60  2  0  0  0
 56 61  1  0  0  0
 56 62  1  0  0  0
 57 67  1  0  0  0
 57 68  1  0  0  0
 58 69  1  0  0  0
 58 70  1  0  0  0
 59 61  1  0  0  0
 59 71  1  0  0  0
 61 72  1  0  0  0
 62 73  1  0  0  0
 62 74  1  0  0  0
 62 75  1  0  0  0
M  END
> <s_m_entry_id>
74

> <s_m_entry_name>
000000074.1

> <s_m_Source_Path>
/Users/zaksoul/Documents/2

> <s_m_Source_File>
000000074.mol2

> <i_m_Source_File_Index>
1

$$$$
No_0_78
                    3D
 Schrodinger Suite 2022-4.
 75 81  0  0  1  0            999 V2000
   -5.1800    3.3540  -22.1290 C   0  0  0  0  0  0
   -5.4380    3.5170  -23.4690 C   0  0  0  0  0  0
   -3.9370    3.1570  -21.7700 C   0  0  0  0  0  0
   -3.0250    3.2960  -23.9260 C   0  0  0  0  0  0
   -2.8720    3.0750  -22.5010 C   0  0  0  0  0  0
   -4.3760    3.4970  -24.4660 C   0  0  0  0  0  0
   -3.5950    3.5260  -26.6560 C   0  0  0  0  0  0
    6.0910    3.2580  -21.2670 C   0  0  0  0  0  0
    5.9780    3.3660  -23.8200 C   0  0  0  0  0  0
   -4.6160    3.5990  -25.8060 C   0  0  0  0  0  0
    2.1740    3.7550  -23.8880 C   0  0  0  0  0  0
    1.3040    4.8310  -23.6110 C   0  0  0  0  0  0
    3.0420    6.1090  -22.9240 C   0  0  0  0  0  0
    3.5610    4.0070  -23.5610 C   0  0  0  0  0  0
    1.6830    2.6080  -24.5430 C   0  0  0  0  0  0
   -0.4780    3.3330  -24.4670 C   0  0  0  0  0  0
   -0.0100    4.5810  -23.8760 C   0  0  0  0  0  0
   -1.9250    3.2740  -24.8380 C   0  0  0  0  0  0
    4.2670    1.5410  -23.2330 C   0  0  0  0  0  0
    5.2000    1.2370  -22.0710 C   0  0  2  0  0  0
    6.7340    2.8370  -22.6070 C   0  0  2  0  0  0
    5.1260    2.2490  -20.9160 C   0  0  0  0  0  0
   -2.2400    3.4040  -26.2720 C   0  0  0  0  0  0
   -1.5190    2.7250  -21.8820 C   0  0  0  0  0  0
   -0.4810    2.4260  -21.3600 C   0  0  0  0  0  0
   -0.8990    5.5940  -23.5530 F   0  0  0  0  0  0
   -3.7330    2.9390  -20.3830 F   0  0  0  0  0  0
    1.7250    6.0150  -23.0880 N   0  0  0  0  0  0
    3.9800    5.1820  -23.1230 N   0  0  0  0  0  0
    0.3850    2.4610  -24.8620 N   0  0  0  0  0  0
    4.5240    2.9970  -23.7150 N   0  0  0  0  0  0
    6.6090    1.3570  -22.5380 N   0  0  1  0  0  0
   -3.7510    3.5180  -28.0470 O   0  0  0  0  0  0
   -5.9927    3.3911  -21.4126 H   0  0  0  0  0  0
   -6.4556    3.6657  -23.8116 H   0  0  0  0  0  0
    5.5803    4.2239  -21.3942 H   0  0  0  0  0  0
    6.8664    3.3095  -20.4885 H   0  0  0  0  0  0
    6.4020    2.9279  -24.7356 H   0  0  0  0  0  0
    6.0749    4.4609  -23.8634 H   0  0  0  0  0  0
   -5.6289    3.7375  -26.1664 H   0  0  0  0  0  0
    2.3597    1.8037  -24.8081 H   0  0  0  0  0  0
    3.2233    1.4442  -22.8992 H   0  0  0  0  0  0
    4.4678    0.8408  -24.0573 H   0  0  0  0  0  0
    5.0143    0.2206  -21.6935 H   0  0  0  0  0  0
    7.7915    3.1377  -22.6433 H   0  0  0  0  0  0
    4.1227    2.6992  -20.8898 H   0  0  0  0  0  0
    5.4358    1.7585  -19.9814 H   0  0  0  0  0  0
   -1.4606    3.4090  -27.0253 H   0  0  0  0  0  0
    0.4330    2.1630  -20.9010 H   0  0  0  0  0  0
    7.2680    0.8948  -21.8180 H   0  0  0  0  0  0
   -2.8983    3.4606  -28.4619 H   0  0  0  0  0  0
    6.2150    8.9520  -21.4630 N   0  0  0  0  0  0
    7.4450    7.3150  -20.2300 N   0  0  0  0  0  0
    6.1710    9.9120  -22.4510 N   0  0  0  0  0  0
    4.2780    7.3970  -21.1150 C   0  0  0  0  0  0
    8.5040    8.5900  -21.9690 C   0  0  0  0  0  0
    3.5390    7.4750  -22.4650 C   0  0  0  0  0  0
    4.9680    8.7220  -20.7390 C   0  0  0  0  0  0
    7.2320   10.2090  -23.1740 C   0  0  0  0  0  0
    7.3730    8.2800  -21.2080 C   0  0  0  0  0  0
    8.4320    9.5420  -22.9390 C   0  0  0  0  0  0
    9.8440    7.9030  -21.7640 C   0  0  0  0  0  0
    8.3327    6.8221  -20.0571 H   0  0  0  0  0  0
    6.6115    7.0851  -19.6703 H   0  0  0  0  0  0
    5.0273    6.5926  -21.1540 H   0  0  0  0  0  0
    3.5654    7.1192  -20.3244 H   0  0  0  0  0  0
    4.2129    7.8939  -23.2268 H   0  0  0  0  0  0
    2.6861    8.1639  -22.3760 H   0  0  0  0  0  0
    4.2789    9.5592  -20.9240 H   0  0  0  0  0  0
    5.1660    8.7360  -19.6571 H   0  0  0  0  0  0
    7.1680   10.9691  -23.9442 H   0  0  0  0  0  0
    9.3086    9.7819  -23.5298 H   0  0  0  0  0  0
   10.5790    8.3100  -22.4740 H   0  0  0  0  0  0
   10.1931    8.0781  -20.7357 H   0  0  0  0  0  0
    9.7320    6.8220  -21.9340 H   0  0  0  0  0  0
  1  2  2  0  0  0
  1  3  1  0  0  0
  1 34  1  0  0  0
  2  6  1  0  0  0
  2 35  1  0  0  0
  3  5  2  0  0  0
  3 27  1  0  0  0
  4  5  1  0  0  0
  4  6  2  0  0  0
  4 18  1  0  0  0
  5 24  1  0  0  0
  6 10  1  0  0  0
  7 10  2  0  0  0
  7 23  1  0  0  0
  7 33  1  0  0  0
  8 21  1  0  0  0
  8 22  1  0  0  0
  8 36  1  0  0  0
  8 37  1  0  0  0
  9 21  1  0  0  0
  9 31  1  0  0  0
  9 38  1  0  0  0
  9 39  1  0  0  0
 10 40  1  0  0  0
 11 12  2  0  0  0
 11 14  1  0  0  0
 11 15  1  0  0  0
 12 17  1  0  0  0
 12 28  1  0  0  0
 13 28  2  0  0  0
 13 29  1  0  0  0
 13 57  1  0  0  0
 14 29  2  0  0  0
 14 31  1  0  0  0
 15 30  2  0  0  0
 15 41  1  0  0  0
 16 17  2  0  0  0
 16 18  1  0  0  0
 16 30  1  0  0  0
 17 26  1  0  0  0
 18 23  2  0  0  0
 19 20  1  0  0  0
 19 31  1  0  0  0
 19 42  1  0  0  0
 19 43  1  0  0  0
 20 22  1  0  0  0
 20 32  1  0  0  0
 20 44  1  0  0  0
 21 32  1  0  0  0
 21 45  1  0  0  0
 22 46  1  0  0  0
 22 47  1  0  0  0
 23 48  1  0  0  0
 24 25  3  0  0  0
 25 49  1  0  0  0
 32 50  1  0  0  0
 33 51  1  0  0  0
 52 54  1  0  0  0
 52 58  1  0  0  0
 52 60  1  0  0  0
 53 60  1  0  0  0
 53 63  1  0  0  0
 53 64  1  0  0  0
 54 59  2  0  0  0
 55 57  1  0  0  0
 55 58  1  0  0  0
 55 65  1  0  0  0
 55 66  1  0  0  0
 56 60  2  0  0  0
 56 61  1  0  0  0
 56 62  1  0  0  0
 57 67  1  0  0  0
 57 68  1  0  0  0
 58 69  1  0  0  0
 58 70  1  0  0  0
 59 61  1  0  0  0
 59 71  1  0  0  0
 61 72  1  0  0  0
 62 73  1  0  0  0
 62 74  1  0  0  0
 62 75  1  0  0  0
M  END
> <s_m_entry_id>
75

> <s_m_entry_name>
000000075.1

> <s_m_Source_Path>
/Users/zaksoul/Documents/2

> <s_m_Source_File>
000000075.mol2

> <i_m_Source_File_Index>
1

$$$$
No_0_83
                    3D
 Schrodinger Suite 2022-4.
 70 76  0  0  1  0            999 V2000
   -5.1510    3.5280  -22.0810 C   0  0  0  0  0  0
   -5.4120    3.6800  -23.4230 C   0  0  0  0  0  0
   -3.9140    3.2870  -21.7290 C   0  0  0  0  0  0
   -3.0140    3.3570  -23.8930 C   0  0  0  0  0  0
   -2.8590    3.1510  -22.4660 C   0  0  0  0  0  0
   -4.3600    3.6020  -24.4270 C   0  0  0  0  0  0
   -3.5950    3.5650  -26.6220 C   0  0  0  0  0  0
    6.1130    2.9980  -21.2970 C   0  0  0  0  0  0
    5.9850    3.0700  -23.8500 C   0  0  0  0  0  0
   -4.6050    3.6920  -25.7660 C   0  0  0  0  0  0
    2.1990    3.6090  -23.8980 C   0  0  0  0  0  0
    1.3740    4.7230  -23.6330 C   0  0  0  0  0  0
    3.1670    5.9410  -22.9780 C   0  0  0  0  0  0
    3.5980    3.8110  -23.5840 C   0  0  0  0  0  0
    1.6580    2.4730  -24.5310 C   0  0  0  0  0  0
   -0.4710    3.2840  -24.4520 C   0  0  0  0  0  0
    0.0500    4.5210  -23.8840 C   0  0  0  0  0  0
   -1.9230    3.2770  -24.8120 C   0  0  0  0  0  0
    4.2080    1.3240  -23.2220 C   0  0  0  0  0  0
    5.1370    1.0020  -22.0620 C   0  0  2  0  0  0
    6.7290    2.5310  -22.6340 C   0  0  2  0  0  0
    5.1120    2.0340  -20.9230 C   0  0  0  0  0  0
   -2.2430    3.3960  -26.2450 C   0  0  0  0  0  0
   -1.5160    2.7580  -21.8500 C   0  0  0  0  0  0
   -0.4870    2.4260  -21.3310 C   0  0  0  0  0  0
   -0.7960    5.5730  -23.5710 F   0  0  0  0  0  0
   -3.7090    3.0830  -20.3400 F   0  0  0  0  0  0
    1.8460    5.8970  -23.1310 N   0  0  0  0  0  0
    4.0660    4.9750  -23.1680 N   0  0  0  0  0  0
    0.3530    2.3720  -24.8390 N   0  0  0  0  0  0
    4.5190    2.7610  -23.7290 N   0  0  0  0  0  0
    6.5460    1.0590  -22.5400 N   0  0  1  0  0  0
   -3.7620    3.5420  -28.0120 O   0  0  0  0  0  0
   -5.9568    3.6093  -21.3605 H   0  0  0  0  0  0
   -6.4257    3.8637  -23.7602 H   0  0  0  0  0  0
    5.6408    3.9818  -21.4352 H   0  0  0  0  0  0
    6.8960    3.0313  -20.5251 H   0  0  0  0  0  0
    6.3847    2.6016  -24.7615 H   0  0  0  0  0  0
    6.1252    4.1593  -23.9115 H   0  0  0  0  0  0
   -5.6143    3.8656  -26.1212 H   0  0  0  0  0  0
    2.3002    1.6381  -24.7869 H   0  0  0  0  0  0
    3.1640    1.2746  -22.8790 H   0  0  0  0  0  0
    4.3745    0.6035  -24.0363 H   0  0  0  0  0  0
    4.9139   -0.0002  -21.6674 H   0  0  0  0  0  0
    7.7971    2.7894  -22.6825 H   0  0  0  0  0  0
    4.1272    2.5234  -20.8968 H   0  0  0  0  0  0
    5.4096    1.5467  -19.9828 H   0  0  0  0  0  0
   -1.4695    3.3579  -27.0035 H   0  0  0  0  0  0
    0.4193    2.1349  -20.8738 H   0  0  0  0  0  0
    7.1917    0.5822  -21.8174 H   0  0  0  0  0  0
   -2.9152    3.4441  -28.4314 H   0  0  0  0  0  0
    6.0250    8.9280  -21.1050 N   0  0  0  0  0  0
    6.6750    7.9850  -21.8770 N   0  0  0  0  0  0
    4.0710    7.3460  -21.0440 C   0  0  0  0  0  0
    3.7210    7.2940  -22.5440 C   0  0  0  0  0  0
    4.6690    8.7020  -20.6280 C   0  0  0  0  0  0
    7.9250   10.3030  -21.2330 C   0  0  0  0  0  0
    7.9120    8.1850  -22.3200 C   0  0  0  0  0  0
    6.6520   10.0780  -20.7860 C   0  0  0  0  0  0
    8.5670    9.3610  -22.0040 C   0  0  0  0  0  0
    4.7852    6.5437  -20.8069 H   0  0  0  0  0  0
    3.1660    7.1480  -20.4510 H   0  0  0  0  0  0
    4.6175    7.5289  -23.1366 H   0  0  0  0  0  0
    2.9881    8.0808  -22.7760 H   0  0  0  0  0  0
    4.0173    9.5127  -20.9859 H   0  0  0  0  0  0
    4.6480    8.7890  -19.5317 H   0  0  0  0  0  0
    8.4324   11.2270  -20.9803 H   0  0  0  0  0  0
    8.4009    7.4291  -22.9239 H   0  0  0  0  0  0
    6.1478   10.8193  -20.1767 H   0  0  0  0  0  0
    9.5757    9.5441  -22.3562 H   0  0  0  0  0  0
  1  2  2  0  0  0
  1  3  1  0  0  0
  1 34  1  0  0  0
  2  6  1  0  0  0
  2 35  1  0  0  0
  3  5  2  0  0  0
  3 27  1  0  0  0
  4  5  1  0  0  0
  4  6  2  0  0  0
  4 18  1  0  0  0
  5 24  1  0  0  0
  6 10  1  0  0  0
  7 10  2  0  0  0
  7 23  1  0  0  0
  7 33  1  0  0  0
  8 21  1  0  0  0
  8 22  1  0  0  0
  8 36  1  0  0  0
  8 37  1  0  0  0
  9 21  1  0  0  0
  9 31  1  0  0  0
  9 38  1  0  0  0
  9 39  1  0  0  0
 10 40  1  0  0  0
 11 12  2  0  0  0
 11 14  1  0  0  0
 11 15  1  0  0  0
 12 17  1  0  0  0
 12 28  1  0  0  0
 13 28  2  0  0  0
 13 29  1  0  0  0
 13 55  1  0  0  0
 14 29  2  0  0  0
 14 31  1  0  0  0
 15 30  2  0  0  0
 15 41  1  0  0  0
 16 17  2  0  0  0
 16 18  1  0  0  0
 16 30  1  0  0  0
 17 26  1  0  0  0
 18 23  2  0  0  0
 19 20  1  0  0  0
 19 31  1  0  0  0
 19 42  1  0  0  0
 19 43  1  0  0  0
 20 22  1  0  0  0
 20 32  1  0  0  0
 20 44  1  0  0  0
 21 32  1  0  0  0
 21 45  1  0  0  0
 22 46  1  0  0  0
 22 47  1  0  0  0
 23 48  1  0  0  0
 24 25  3  0  0  0
 25 49  1  0  0  0
 32 50  1  0  0  0
 33 51  1  0  0  0
 52 53  1  0  0  0
 52 56  1  0  0  0
 52 59  1  0  0  0
 53 58  2  0  0  0
 54 55  1  0  0  0
 54 56  1  0  0  0
 54 61  1  0  0  0
 54 62  1  0  0  0
 55 63  1  0  0  0
 55 64  1  0  0  0
 56 65  1  0  0  0
 56 66  1  0  0  0
 57 59  2  0  0  0
 57 60  1  0  0  0
 57 67  1  0  0  0
 58 60  1  0  0  0
 58 68  1  0  0  0
 59 69  1  0  0  0
 60 70  1  0  0  0
M  END
> <s_m_entry_id>
76

> <s_m_entry_name>
000000076.1

> <s_m_Source_Path>
/Users/zaksoul/Documents/2

> <s_m_Source_File>
000000076.mol2

> <i_m_Source_File_Index>
1

$$$$
No_0_84
                    3D
 Schrodinger Suite 2022-4.
 70 76  0  0  1  0            999 V2000
   -5.3020    3.2350  -22.1320 C   0  0  0  0  0  0
   -5.5500    3.3780  -23.4760 C   0  0  0  0  0  0
   -4.0600    3.0450  -21.7620 C   0  0  0  0  0  0
   -3.1330    3.1570  -23.9130 C   0  0  0  0  0  0
   -2.9900    2.9550  -22.4840 C   0  0  0  0  0  0
   -4.4810    3.3460  -24.4660 C   0  0  0  0  0  0
   -3.6840    3.3470  -26.6490 C   0  0  0  0  0  0
    5.9630    3.1750  -21.1880 C   0  0  0  0  0  0
    5.8680    3.2480  -23.7430 C   0  0  0  0  0  0
   -4.7110    3.4290  -25.8080 C   0  0  0  0  0  0
    2.0640    3.6270  -23.8440 C   0  0  0  0  0  0
    1.1900    4.7050  -23.5890 C   0  0  0  0  0  0
    2.9200    5.9960  -22.9070 C   0  0  0  0  0  0
    3.4480    3.8870  -23.5100 C   0  0  0  0  0  0
    1.5800    2.4710  -24.4860 C   0  0  0  0  0  0
   -0.5820    3.1920  -24.4360 C   0  0  0  0  0  0
   -0.1210    4.4490  -23.8590 C   0  0  0  0  0  0
   -2.0270    3.1240  -24.8170 C   0  0  0  0  0  0
    4.1570    1.4270  -23.1430 C   0  0  0  0  0  0
    5.0830    1.1420  -21.9700 C   0  0  2  0  0  0
    6.6170    2.7370  -22.5170 C   0  0  2  0  0  0
    4.9980    2.1700  -20.8300 C   0  0  0  0  0  0
   -2.3310    3.2340  -26.2540 C   0  0  0  0  0  0
   -1.6410    2.6170  -21.8500 C   0  0  0  0  0  0
   -0.6060    2.3280  -21.3170 C   0  0  0  0  0  0
   -1.0150    5.4640  -23.5570 F   0  0  0  0  0  0
   -3.8660    2.8470  -20.3700 F   0  0  0  0  0  0
    1.6050    5.8970  -23.0790 N   0  0  0  0  0  0
    3.8620    5.0690  -23.0860 N   0  0  0  0  0  0
    0.2850    2.3160  -24.8130 N   0  0  0  0  0  0
    4.4150    2.8770  -23.6430 N   0  0  0  0  0  0
    6.4940    1.2590  -22.4280 N   0  0  1  0  0  0
   -3.8300    3.3190  -28.0420 O   0  0  0  0  0  0
   -6.1197    3.2802  -21.4218 H   0  0  0  0  0  0
   -6.5653    3.5196  -23.8285 H   0  0  0  0  0  0
    5.4517    4.1382  -21.3322 H   0  0  0  0  0  0
    6.7334    3.2396  -20.4055 H   0  0  0  0  0  0
    6.2999    2.7980  -24.6491 H   0  0  0  0  0  0
    5.9639    4.3422  -23.8015 H   0  0  0  0  0  0
   -5.7216    3.5605  -26.1773 H   0  0  0  0  0  0
    2.2602    1.6644  -24.7348 H   0  0  0  0  0  0
    3.1113    1.3331  -22.8149 H   0  0  0  0  0  0
    4.3660    0.7161  -23.9559 H   0  0  0  0  0  0
    4.8964    0.1303  -21.5806 H   0  0  0  0  0  0
    7.6737    3.0408  -22.5503 H   0  0  0  0  0  0
    3.9935    2.6182  -20.8169 H   0  0  0  0  0  0
    5.3028    1.6937  -19.8865 H   0  0  0  0  0  0
   -1.5466    3.2290  -27.0022 H   0  0  0  0  0  0
    0.3049    2.0740  -20.8470 H   0  0  0  0  0  0
    7.1494    0.8078  -21.6978 H   0  0  0  0  0  0
   -2.9741    3.2577  -28.4497 H   0  0  0  0  0  0
    5.7660    9.1470  -21.3030 N   0  0  0  0  0  0
    6.3570    8.3310  -22.2490 N   0  0  0  0  0  0
    4.0120    7.3630  -21.0440 C   0  0  0  0  0  0
    3.4110    7.3700  -22.4630 C   0  0  0  0  0  0
    4.5420    8.7460  -20.6250 C   0  0  0  0  0  0
    7.4750   10.7240  -21.6360 C   0  0  0  0  0  0
    7.4730    8.6910  -22.8750 C   0  0  0  0  0  0
    6.3280   10.3340  -21.0010 C   0  0  0  0  0  0
    8.0580    9.9070  -22.5780 C   0  0  0  0  0  0
    4.8300    6.6290  -20.9970 H   0  0  0  0  0  0
    3.2488    7.0309  -20.3248 H   0  0  0  0  0  0
    4.1630    7.7370  -23.1770 H   0  0  0  0  0  0
    2.5779    8.0871  -22.5040 H   0  0  0  0  0  0
    3.7638    9.5032  -20.8011 H   0  0  0  0  0  0
    4.7071    8.7600  -19.5375 H   0  0  0  0  0  0
    7.9291   11.6791  -21.3980 H   0  0  0  0  0  0
    7.9171    8.0319  -23.6121 H   0  0  0  0  0  0
    5.8700   10.9769  -20.2581 H   0  0  0  0  0  0
    8.9669   10.2200  -23.0790 H   0  0  0  0  0  0
  1  2  2  0  0  0
  1  3  1  0  0  0
  1 34  1  0  0  0
  2  6  1  0  0  0
  2 35  1  0  0  0
  3  5  2  0  0  0
  3 27  1  0  0  0
  4  5  1  0  0  0
  4  6  2  0  0  0
  4 18  1  0  0  0
  5 24  1  0  0  0
  6 10  1  0  0  0
  7 10  2  0  0  0
  7 23  1  0  0  0
  7 33  1  0  0  0
  8 21  1  0  0  0
  8 22  1  0  0  0
  8 36  1  0  0  0
  8 37  1  0  0  0
  9 21  1  0  0  0
  9 31  1  0  0  0
  9 38  1  0  0  0
  9 39  1  0  0  0
 10 40  1  0  0  0
 11 12  2  0  0  0
 11 14  1  0  0  0
 11 15  1  0  0  0
 12 17  1  0  0  0
 12 28  1  0  0  0
 13 28  2  0  0  0
 13 29  1  0  0  0
 13 55  1  0  0  0
 14 29  2  0  0  0
 14 31  1  0  0  0
 15 30  2  0  0  0
 15 41  1  0  0  0
 16 17  2  0  0  0
 16 18  1  0  0  0
 16 30  1  0  0  0
 17 26  1  0  0  0
 18 23  2  0  0  0
 19 20  1  0  0  0
 19 31  1  0  0  0
 19 42  1  0  0  0
 19 43  1  0  0  0
 20 22  1  0  0  0
 20 32  1  0  0  0
 20 44  1  0  0  0
 21 32  1  0  0  0
 21 45  1  0  0  0
 22 46  1  0  0  0
 22 47  1  0  0  0
 23 48  1  0  0  0
 24 25  3  0  0  0
 25 49  1  0  0  0
 32 50  1  0  0  0
 33 51  1  0  0  0
 52 53  1  0  0  0
 52 56  1  0  0  0
 52 59  1  0  0  0
 53 58  2  0  0  0
 54 55  1  0  0  0
 54 56  1  0  0  0
 54 61  1  0  0  0
 54 62  1  0  0  0
 55 63  1  0  0  0
 55 64  1  0  0  0
 56 65  1  0  0  0
 56 66  1  0  0  0
 57 59  2  0  0  0
 57 60  1  0  0  0
 57 67  1  0  0  0
 58 60  1  0  0  0
 58 68  1  0  0  0
 59 69  1  0  0  0
 60 70  1  0  0  0
M  END
> <s_m_entry_id>
77

> <s_m_entry_name>
000000077.1

> <s_m_Source_Path>
/Users/zaksoul/Documents/2

> <s_m_Source_File>
000000077.mol2

> <i_m_Source_File_Index>
1

$$$$
No_0_87
                    3D
 Schrodinger Suite 2022-4.
 73 79  0  0  1  0            999 V2000
   -5.3650    3.5400  -22.4370 C   0  0  0  0  0  0
   -5.5710    3.6880  -23.7880 C   0  0  0  0  0  0
   -4.1380    3.3280  -22.0310 C   0  0  0  0  0  0
   -3.1480    3.4240  -24.1550 C   0  0  0  0  0  0
   -3.0490    3.2190  -22.7220 C   0  0  0  0  0  0
   -4.4750    3.6380  -24.7460 C   0  0  0  0  0  0
   -3.6160    3.6260  -26.9060 C   0  0  0  0  0  0
    5.8650    3.2800  -21.1680 C   0  0  0  0  0  0
    5.8450    3.3550  -23.7240 C   0  0  0  0  0  0
   -4.6650    3.7260  -26.0940 C   0  0  0  0  0  0
    2.0530    3.8020  -23.9350 C   0  0  0  0  0  0
    1.1910    4.8960  -23.7030 C   0  0  0  0  0  0
    2.9240    6.1550  -22.9700 C   0  0  0  0  0  0
    3.4320    4.0380  -23.5600 C   0  0  0  0  0  0
    1.5680    2.6550  -24.5920 C   0  0  0  0  0  0
   -0.5820    3.4140  -24.6030 C   0  0  0  0  0  0
   -0.1160    4.6620  -24.0120 C   0  0  0  0  0  0
   -2.0160    3.3730  -25.0260 C   0  0  0  0  0  0
    4.0850    1.5650  -23.1750 C   0  0  0  0  0  0
    4.9720    1.2620  -21.9770 C   0  0  2  0  0  0
    6.5490    2.8310  -22.4770 C   0  0  2  0  0  0
    4.8720    2.2910  -20.8380 C   0  0  0  0  0  0
   -2.2770    3.4880  -26.4710 C   0  0  0  0  0  0
   -1.7250    2.8570  -22.0500 C   0  0  0  0  0  0
   -0.7110    2.5490  -21.4870 C   0  0  0  0  0  0
   -1.0000    5.6930  -23.7350 F   0  0  0  0  0  0
   -3.9890    3.1250  -20.6350 F   0  0  0  0  0  0
    1.6120    6.0800  -23.1800 N   0  0  0  0  0  0
    3.8540    5.2110  -23.1230 N   0  0  0  0  0  0
    0.2800    2.5230  -24.9560 N   0  0  0  0  0  0
    4.3830    3.0100  -23.6670 N   0  0  0  0  0  0
    6.3980    1.3540  -22.3940 N   0  0  1  0  0  0
   -3.7220    3.6020  -28.3020 O   0  0  0  0  0  0
   -6.2024    3.5992  -21.7512 H   0  0  0  0  0  0
   -6.5733    3.8485  -24.1683 H   0  0  0  0  0  0
    5.3745    4.2519  -21.3254 H   0  0  0  0  0  0
    6.6127    3.3294  -20.3627 H   0  0  0  0  0  0
    6.2951    2.8989  -24.6181 H   0  0  0  0  0  0
    5.9620    4.4474  -23.7785 H   0  0  0  0  0  0
   -5.6619    3.8756  -26.4926 H   0  0  0  0  0  0
    2.2407    1.8367  -24.8219 H   0  0  0  0  0  0
    3.0285    1.4893  -22.8783 H   0  0  0  0  0  0
    4.3048    0.8512  -23.9826 H   0  0  0  0  0  0
    4.7560    0.2539  -21.5935 H   0  0  0  0  0  0
    7.6118    3.1146  -22.4800 H   0  0  0  0  0  0
    3.8755    2.7565  -20.8542 H   0  0  0  0  0  0
    5.1406    1.8083  -19.8868 H   0  0  0  0  0  0
   -1.4715    3.4699  -27.1962 H   0  0  0  0  0  0
    0.1814    2.2779  -20.9918 H   0  0  0  0  0  0
    7.0228    0.8918  -21.6440 H   0  0  0  0  0  0
   -2.8556    3.5258  -28.6842 H   0  0  0  0  0  0
    7.0010    8.0500  -20.0170 N   0  0  0  0  0  0
    8.9460    9.5390  -23.3150 N   0  0  0  0  0  0
    4.7840    8.8070  -20.7710 C   0  0  0  0  0  0
    3.4260    7.5200  -22.5110 C   0  0  0  0  0  0
    3.9890    7.5190  -21.0750 C   0  0  0  0  0  0
    6.2850    8.6890  -20.9910 C   0  0  0  0  0  0
    6.9100    9.1860  -22.0860 C   0  0  0  0  0  0
    8.2940    9.0430  -22.2130 C   0  0  3  0  0  0
    9.0090    8.3890  -21.2070 C   0  0  0  0  0  0
    8.3540    7.9040  -20.1250 C   0  0  0  0  0  0
    6.5201    7.6721  -19.1882 H   0  0  0  0  0  0
    9.9664    9.4300  -23.4030 H   0  0  0  0  0  0
    8.4150   10.0200  -24.0550 H   0  0  0  0  0  0
    4.5920    9.1169  -19.7332 H   0  0  0  0  0  0
    4.3901    9.6319  -21.3829 H   0  0  0  0  0  0
    4.1992    7.8771  -23.2072 H   0  0  0  0  0  0
    2.6080    8.2520  -22.5820 H   0  0  0  0  0  0
    3.1617    7.4210  -20.3567 H   0  0  0  0  0  0
    4.6430    6.6450  -20.9390 H   0  0  0  0  0  0
    6.3359    9.6900  -22.8551 H   0  0  0  0  0  0
   10.0833    8.2730  -21.2930 H   0  0  0  0  0  0
    8.9083    7.3968  -19.3436 H   0  0  0  0  0  0
  1  2  2  0  0  0
  1  3  1  0  0  0
  1 34  1  0  0  0
  2  6  1  0  0  0
  2 35  1  0  0  0
  3  5  2  0  0  0
  3 27  1  0  0  0
  4  5  1  0  0  0
  4  6  2  0  0  0
  4 18  1  0  0  0
  5 24  1  0  0  0
  6 10  1  0  0  0
  7 10  2  0  0  0
  7 23  1  0  0  0
  7 33  1  0  0  0
  8 21  1  0  0  0
  8 22  1  0  0  0
  8 36  1  0  0  0
  8 37  1  0  0  0
  9 21  1  0  0  0
  9 31  1  0  0  0
  9 38  1  0  0  0
  9 39  1  0  0  0
 10 40  1  0  0  0
 11 12  2  0  0  0
 11 14  1  0  0  0
 11 15  1  0  0  0
 12 17  1  0  0  0
 12 28  1  0  0  0
 13 28  2  0  0  0
 13 29  1  0  0  0
 13 55  1  0  0  0
 14 29  2  0  0  0
 14 31  1  0  0  0
 15 30  2  0  0  0
 15 41  1  0  0  0
 16 17  2  0  0  0
 16 18  1  0  0  0
 16 30  1  0  0  0
 17 26  1  0  0  0
 18 23  2  0  0  0
 19 20  1  0  0  0
 19 31  1  0  0  0
 19 42  1  0  0  0
 19 43  1  0  0  0
 20 22  1  0  0  0
 20 32  1  0  0  0
 20 44  1  0  0  0
 21 32  1  0  0  0
 21 45  1  0  0  0
 22 46  1  0  0  0
 22 47  1  0  0  0
 23 48  1  0  0  0
 24 25  3  0  0  0
 25 49  1  0  0  0
 32 50  1  0  0  0
 33 51  1  0  0  0
 52 57  1  0  0  0
 52 61  1  0  0  0
 52 62  1  0  0  0
 53 59  1  0  0  0
 53 63  1  0  0  0
 53 64  1  0  0  0
 54 56  1  0  0  0
 54 57  1  0  0  0
 54 65  1  0  0  0
 54 66  1  0  0  0
 55 56  1  0  0  0
 55 67  1  0  0  0
 55 68  1  0  0  0
 56 69  1  0  0  0
 56 70  1  0  0  0
 57 58  2  0  0  0
 58 59  1  0  0  0
 58 71  1  0  0  0
 59 60  1  0  0  0
 60 61  2  0  0  0
 60 72  1  0  0  0
 61 73  1  0  0  0
M  END
> <s_m_entry_id>
78

> <s_m_entry_name>
000000078.1

> <s_m_Source_Path>
/Users/zaksoul/Documents/2

> <s_m_Source_File>
000000078.mol2

> <i_m_Source_File_Index>
1

$$$$
No_0_88
                    3D
 Schrodinger Suite 2022-4.
 73 79  0  0  1  0            999 V2000
   -5.2450    3.6340  -22.0630 C   0  0  0  0  0  0
   -5.4980    3.8000  -23.4040 C   0  0  0  0  0  0
   -4.0070    3.4090  -21.7040 C   0  0  0  0  0  0
   -3.0910    3.5220  -23.8600 C   0  0  0  0  0  0
   -2.9430    3.3010  -22.4350 C   0  0  0  0  0  0
   -4.4370    3.7530  -24.4010 C   0  0  0  0  0  0
   -3.6550    3.7580  -26.5900 C   0  0  0  0  0  0
    6.0200    3.2790  -21.1970 C   0  0  0  0  0  0
    5.9100    3.3830  -23.7500 C   0  0  0  0  0  0
   -4.6740    3.8570  -25.7410 C   0  0  0  0  0  0
    2.1170    3.8600  -23.8210 C   0  0  0  0  0  0
    1.2720    4.9570  -23.5470 C   0  0  0  0  0  0
    3.0390    6.1950  -22.8620 C   0  0  0  0  0  0
    3.5090    4.0810  -23.4930 C   0  0  0  0  0  0
    1.6000    2.7240  -24.4730 C   0  0  0  0  0  0
   -0.5440    3.4990  -24.4000 C   0  0  0  0  0  0
   -0.0470    4.7370  -23.8110 C   0  0  0  0  0  0
   -1.9920    3.4730  -24.7720 C   0  0  0  0  0  0
    4.1580    1.5990  -23.1590 C   0  0  0  0  0  0
    5.0830    1.2770  -21.9970 C   0  0  2  0  0  0
    6.6540    2.8400  -22.5350 C   0  0  2  0  0  0
    5.0320    2.2940  -20.8440 C   0  0  0  0  0  0
   -2.3030    3.6060  -26.2050 C   0  0  0  0  0  0
   -1.5990    2.9210  -21.8140 C   0  0  0  0  0  0
   -0.5690    2.5990  -21.2910 C   0  0  0  0  0  0
   -0.9120    5.7710  -23.4920 F   0  0  0  0  0  0
   -3.8090    3.1900  -20.3160 F   0  0  0  0  0  0
    1.7210    6.1320  -23.0260 N   0  0  0  0  0  0
    3.9560    5.2470  -23.0580 N   0  0  0  0  0  0
    0.2990    2.6060  -24.7930 N   0  0  0  0  0  0
    4.4490    3.0480  -23.6450 N   0  0  0  0  0  0
    6.4950    1.3640  -22.4630 N   0  0  1  0  0  0
   -3.8110    3.7510  -27.9820 O   0  0  0  0  0  0
   -6.0571    3.6922  -21.3473 H   0  0  0  0  0  0
   -6.5119    3.9707  -23.7473 H   0  0  0  0  0  0
    5.5323    4.2565  -21.3263 H   0  0  0  0  0  0
    6.7964    3.3143  -20.4186 H   0  0  0  0  0  0
    6.3248    2.9339  -24.6644 H   0  0  0  0  0  0
    6.0340    4.4750  -23.7964 H   0  0  0  0  0  0
   -5.6831    4.0187  -26.1025 H   0  0  0  0  0  0
    2.2573    1.9031  -24.7359 H   0  0  0  0  0  0
    3.1120    1.5284  -22.8261 H   0  0  0  0  0  0
    4.3427    0.8935  -23.9825 H   0  0  0  0  0  0
    4.8732    0.2664  -21.6167 H   0  0  0  0  0  0
    7.7180    3.1166  -22.5724 H   0  0  0  0  0  0
    4.0391    2.7667  -20.8187 H   0  0  0  0  0  0
    5.3307    1.7985  -19.9085 H   0  0  0  0  0  0
   -1.5236    3.5910  -26.9583 H   0  0  0  0  0  0
    0.3382    2.3162  -20.8304 H   0  0  0  0  0  0
    7.1421    0.8881  -21.7411 H   0  0  0  0  0  0
   -2.9593    3.6729  -28.3955 H   0  0  0  0  0  0
    7.4230    8.0650  -20.3670 N   0  0  0  0  0  0
    8.8940    9.7530  -23.8130 N   0  0  0  0  0  0
    5.1120    8.7950  -20.7940 C   0  0  0  0  0  0
    3.5680    7.5510  -22.4060 C   0  0  0  0  0  0
    4.3120    7.5010  -21.0560 C   0  0  0  0  0  0
    6.5740    8.7280  -21.2100 C   0  0  0  0  0  0
    7.0410    9.2900  -22.3510 C   0  0  0  0  0  0
    8.4000    9.1900  -22.6610 C   0  0  3  0  0  0
    9.2530    8.5120  -21.7870 C   0  0  0  0  0  0
    8.7530    7.9610  -20.6550 C   0  0  0  0  0  0
    7.0608    7.6378  -19.5026 H   0  0  0  0  0  0
    9.8968    9.6750  -24.0350 H   0  0  0  0  0  0
    8.2615   10.2524  -24.4545 H   0  0  0  0  0  0
    5.0480    9.0531  -19.7266 H   0  0  0  0  0  0
    4.6253    9.6354  -21.3106 H   0  0  0  0  0  0
    4.2372    7.9601  -23.1772 H   0  0  0  0  0  0
    2.7331    8.2639  -22.3370 H   0  0  0  0  0  0
    3.5859    7.3490  -20.2438 H   0  0  0  0  0  0
    4.9956    6.6392  -21.0470 H   0  0  0  0  0  0
    6.3627    9.8132  -23.0153 H   0  0  0  0  0  0
   10.3094    8.4280  -22.0151 H   0  0  0  0  0  0
    9.4141    7.4349  -19.9759 H   0  0  0  0  0  0
  1  2  2  0  0  0
  1  3  1  0  0  0
  1 34  1  0  0  0
  2  6  1  0  0  0
  2 35  1  0  0  0
  3  5  2  0  0  0
  3 27  1  0  0  0
  4  5  1  0  0  0
  4  6  2  0  0  0
  4 18  1  0  0  0
  5 24  1  0  0  0
  6 10  1  0  0  0
  7 10  2  0  0  0
  7 23  1  0  0  0
  7 33  1  0  0  0
  8 21  1  0  0  0
  8 22  1  0  0  0
  8 36  1  0  0  0
  8 37  1  0  0  0
  9 21  1  0  0  0
  9 31  1  0  0  0
  9 38  1  0  0  0
  9 39  1  0  0  0
 10 40  1  0  0  0
 11 12  2  0  0  0
 11 14  1  0  0  0
 11 15  1  0  0  0
 12 17  1  0  0  0
 12 28  1  0  0  0
 13 28  2  0  0  0
 13 29  1  0  0  0
 13 55  1  0  0  0
 14 29  2  0  0  0
 14 31  1  0  0  0
 15 30  2  0  0  0
 15 41  1  0  0  0
 16 17  2  0  0  0
 16 18  1  0  0  0
 16 30  1  0  0  0
 17 26  1  0  0  0
 18 23  2  0  0  0
 19 20  1  0  0  0
 19 31  1  0  0  0
 19 42  1  0  0  0
 19 43  1  0  0  0
 20 22  1  0  0  0
 20 32  1  0  0  0
 20 44  1  0  0  0
 21 32  1  0  0  0
 21 45  1  0  0  0
 22 46  1  0  0  0
 22 47  1  0  0  0
 23 48  1  0  0  0
 24 25  3  0  0  0
 25 49  1  0  0  0
 32 50  1  0  0  0
 33 51  1  0  0  0
 52 57  1  0  0  0
 52 61  1  0  0  0
 52 62  1  0  0  0
 53 59  1  0  0  0
 53 63  1  0  0  0
 53 64  1  0  0  0
 54 56  1  0  0  0
 54 57  1  0  0  0
 54 65  1  0  0  0
 54 66  1  0  0  0
 55 56  1  0  0  0
 55 67  1  0  0  0
 55 68  1  0  0  0
 56 69  1  0  0  0
 56 70  1  0  0  0
 57 58  2  0  0  0
 58 59  1  0  0  0
 58 71  1  0  0  0
 59 60  1  0  0  0
 60 61  2  0  0  0
 60 72  1  0  0  0
 61 73  1  0  0  0
M  END
> <s_m_entry_id>
79

> <s_m_entry_name>
000000079.1

> <s_m_Source_Path>
/Users/zaksoul/Documents/2

> <s_m_Source_File>
000000079.mol2

> <i_m_Source_File_Index>
1

$$$$
No_0_89
                    3D
 Schrodinger Suite 2022-4.
 73 79  0  0  1  0            999 V2000
   -5.3860    3.4110  -22.2580 C   0  0  0  0  0  0
   -5.5960    3.5510  -23.6090 C   0  0  0  0  0  0
   -4.1590    3.1980  -21.8540 C   0  0  0  0  0  0
   -3.1740    3.2790  -23.9810 C   0  0  0  0  0  0
   -3.0720    3.0820  -22.5470 C   0  0  0  0  0  0
   -4.5020    3.4920  -24.5700 C   0  0  0  0  0  0
   -3.6490    3.4640  -26.7310 C   0  0  0  0  0  0
    5.8460    3.1290  -21.0170 C   0  0  0  0  0  0
    5.8200    3.1890  -23.5730 C   0  0  0  0  0  0
   -4.6950    3.5720  -25.9180 C   0  0  0  0  0  0
    2.0280    3.6440  -23.7770 C   0  0  0  0  0  0
    1.1700    4.7410  -23.5500 C   0  0  0  0  0  0
    2.9080    6.0010  -22.8300 C   0  0  0  0  0  0
    3.4080    3.8790  -23.4080 C   0  0  0  0  0  0
    1.5380    2.4940  -24.4250 C   0  0  0  0  0  0
   -0.6100    3.2590  -24.4360 C   0  0  0  0  0  0
   -0.1390    4.5100  -23.8540 C   0  0  0  0  0  0
   -2.0450    3.2190  -24.8550 C   0  0  0  0  0  0
    4.0570    1.4060  -23.0090 C   0  0  0  0  0  0
    4.9460    1.1090  -21.8110 C   0  0  2  0  0  0
    6.5260    2.6700  -22.3250 C   0  0  2  0  0  0
    4.8520    2.1460  -20.6790 C   0  0  0  0  0  0
   -2.3090    3.3260  -26.3000 C   0  0  0  0  0  0
   -1.7470    2.7210  -21.8770 C   0  0  0  0  0  0
   -0.7330    2.4140  -21.3140 C   0  0  0  0  0  0
   -1.0190    5.5440  -23.5810 F   0  0  0  0  0  0
   -4.0060    3.0040  -20.4570 F   0  0  0  0  0  0
    1.5960    5.9280  -23.0360 N   0  0  0  0  0  0
    3.8350    5.0540  -22.9790 N   0  0  0  0  0  0
    0.2490    2.3640  -24.7850 N   0  0  0  0  0  0
    4.3570    2.8480  -23.5100 N   0  0  0  0  0  0
    6.3710    1.1950  -22.2320 N   0  0  1  0  0  0
   -3.7590    3.4310  -28.1270 O   0  0  0  0  0  0
   -6.2213    3.4773  -21.5703 H   0  0  0  0  0  0
   -6.5987    3.7116  -23.9884 H   0  0  0  0  0  0
    5.3587    4.1017  -21.1794 H   0  0  0  0  0  0
    6.5957    3.1825  -20.2138 H   0  0  0  0  0  0
    6.2662    2.7257  -24.4653 H   0  0  0  0  0  0
    5.9391    4.2808  -23.6346 H   0  0  0  0  0  0
   -5.6927    3.7216  -26.3145 H   0  0  0  0  0  0
    2.2085    1.6730  -24.6518 H   0  0  0  0  0  0
    3.0013    1.3353  -22.7082 H   0  0  0  0  0  0
    4.2730    0.6864  -23.8124 H   0  0  0  0  0  0
    4.7280    0.1040  -21.4205 H   0  0  0  0  0  0
    7.5893    2.9517  -22.3331 H   0  0  0  0  0  0
    3.8564    2.6135  -20.6952 H   0  0  0  0  0  0
    5.1215    1.6686  -19.7253 H   0  0  0  0  0  0
   -1.5050    3.3009  -27.0267 H   0  0  0  0  0  0
    0.1599    2.1440  -20.8191 H   0  0  0  0  0  0
    6.9970    0.7348  -21.4818 H   0  0  0  0  0  0
   -2.8943    3.3499  -28.5119 H   0  0  0  0  0  0
    7.5530    8.0940  -21.1040 N   0  0  0  0  0  0
    8.1670   10.1180  -24.6260 N   0  0  0  0  0  0
    5.1550    8.6410  -21.0100 C   0  0  0  0  0  0
    3.4150    7.3670  -22.3810 C   0  0  0  0  0  0
    4.4180    7.3000  -21.2110 C   0  0  0  0  0  0
    6.5040    8.7300  -21.7080 C   0  0  0  0  0  0
    6.6880    9.4020  -22.8710 C   0  0  0  0  0  0
    7.9600    9.4430  -23.4480 C   0  0  3  0  0  0
    9.0200    8.7900  -22.8150 C   0  0  0  0  0  0
    8.8010    8.1270  -21.6540 C   0  0  0  0  0  0
    7.4060    7.5829  -20.2219 H   0  0  0  0  0  0
    9.1071   10.1440  -25.0460 H   0  0  0  0  0  0
    7.3825   10.5983  -25.0893 H   0  0  0  0  0  0
    5.2900    8.8250  -19.9339 H   0  0  0  0  0  0
    4.5127    9.4654  -21.3532 H   0  0  0  0  0  0
    3.8823    7.8814  -23.2336 H   0  0  0  0  0  0
    2.5603    7.9968  -22.0931 H   0  0  0  0  0  0
    3.8848    7.0329  -20.2867 H   0  0  0  0  0  0
    5.1516    6.5034  -21.4039 H   0  0  0  0  0  0
    5.8515    9.9023  -23.3453 H   0  0  0  0  0  0
   10.0116    8.8150  -23.2523 H   0  0  0  0  0  0
    9.6235    7.6203  -21.1623 H   0  0  0  0  0  0
  1  2  2  0  0  0
  1  3  1  0  0  0
  1 34  1  0  0  0
  2  6  1  0  0  0
  2 35  1  0  0  0
  3  5  2  0  0  0
  3 27  1  0  0  0
  4  5  1  0  0  0
  4  6  2  0  0  0
  4 18  1  0  0  0
  5 24  1  0  0  0
  6 10  1  0  0  0
  7 10  2  0  0  0
  7 23  1  0  0  0
  7 33  1  0  0  0
  8 21  1  0  0  0
  8 22  1  0  0  0
  8 36  1  0  0  0
  8 37  1  0  0  0
  9 21  1  0  0  0
  9 31  1  0  0  0
  9 38  1  0  0  0
  9 39  1  0  0  0
 10 40  1  0  0  0
 11 12  2  0  0  0
 11 14  1  0  0  0
 11 15  1  0  0  0
 12 17  1  0  0  0
 12 28  1  0  0  0
 13 28  2  0  0  0
 13 29  1  0  0  0
 13 55  1  0  0  0
 14 29  2  0  0  0
 14 31  1  0  0  0
 15 30  2  0  0  0
 15 41  1  0  0  0
 16 17  2  0  0  0
 16 18  1  0  0  0
 16 30  1  0  0  0
 17 26  1  0  0  0
 18 23  2  0  0  0
 19 20  1  0  0  0
 19 31  1  0  0  0
 19 42  1  0  0  0
 19 43  1  0  0  0
 20 22  1  0  0  0
 20 32  1  0  0  0
 20 44  1  0  0  0
 21 32  1  0  0  0
 21 45  1  0  0  0
 22 46  1  0  0  0
 22 47  1  0  0  0
 23 48  1  0  0  0
 24 25  3  0  0  0
 25 49  1  0  0  0
 32 50  1  0  0  0
 33 51  1  0  0  0
 52 57  1  0  0  0
 52 61  1  0  0  0
 52 62  1  0  0  0
 53 59  1  0  0  0
 53 63  1  0  0  0
 53 64  1  0  0  0
 54 56  1  0  0  0
 54 57  1  0  0  0
 54 65  1  0  0  0
 54 66  1  0  0  0
 55 56  1  0  0  0
 55 67  1  0  0  0
 55 68  1  0  0  0
 56 69  1  0  0  0
 56 70  1  0  0  0
 57 58  2  0  0  0
 58 59  1  0  0  0
 58 71  1  0  0  0
 59 60  1  0  0  0
 60 61  2  0  0  0
 60 72  1  0  0  0
 61 73  1  0  0  0
M  END
> <s_m_entry_id>
80

> <s_m_entry_name>
000000080.1

> <s_m_Source_Path>
/Users/zaksoul/Documents/2

> <s_m_Source_File>
000000080.mol2

> <i_m_Source_File_Index>
1

$$$$
No_0_90
                    3D
 Schrodinger Suite 2022-4.
 73 79  0  0  1  0            999 V2000
   -5.3400    3.2650  -22.1940 C   0  0  0  0  0  0
   -5.5860    3.4550  -23.5330 C   0  0  0  0  0  0
   -4.1000    3.0550  -21.8300 C   0  0  0  0  0  0
   -3.1700    3.2340  -23.9750 C   0  0  0  0  0  0
   -3.0290    2.9830  -22.5540 C   0  0  0  0  0  0
   -4.5160    3.4500  -24.5220 C   0  0  0  0  0  0
   -3.7180    3.5190  -26.7040 C   0  0  0  0  0  0
    5.9230    3.1030  -21.2450 C   0  0  0  0  0  0
    5.8310    3.2620  -23.7950 C   0  0  0  0  0  0
   -4.7440    3.5800  -25.8610 C   0  0  0  0  0  0
    2.0300    3.6680  -23.8860 C   0  0  0  0  0  0
    1.1620    4.7430  -23.5960 C   0  0  0  0  0  0
    2.9000    5.9990  -22.8690 C   0  0  0  0  0  0
    3.4150    3.9090  -23.5430 C   0  0  0  0  0  0
    1.5390    2.5370  -24.5680 C   0  0  0  0  0  0
   -0.6190    3.2700  -24.4950 C   0  0  0  0  0  0
   -0.1500    4.5040  -23.8750 C   0  0  0  0  0  0
   -2.0630    3.2250  -24.8790 C   0  0  0  0  0  0
    4.1080    1.4330  -23.2580 C   0  0  0  0  0  0
    5.0310    1.1020  -22.0960 C   0  0  2  0  0  0
    6.5760    2.7050  -22.5870 C   0  0  2  0  0  0
    4.9520    2.0920  -20.9210 C   0  0  0  0  0  0
   -2.3660    3.3850  -26.3120 C   0  0  0  0  0  0
   -1.6830    2.6150  -21.9310 C   0  0  0  0  0  0
   -0.6500    2.3020  -21.4070 C   0  0  0  0  0  0
   -1.0380    5.5140  -23.5400 F   0  0  0  0  0  0
   -3.9090    2.8090  -20.4460 F   0  0  0  0  0  0
    1.5840    5.9140  -23.0450 N   0  0  0  0  0  0
    3.8360    5.0720  -23.0780 N   0  0  0  0  0  0
    0.2440    2.4020  -24.9000 N   0  0  0  0  0  0
    4.3760    2.8970  -23.7090 N   0  0  0  0  0  0
    6.4440    1.2260  -22.5480 N   0  0  1  0  0  0
   -3.8620    3.5400  -28.0970 O   0  0  0  0  0  0
   -6.1581    3.2921  -21.4833 H   0  0  0  0  0  0
   -6.6002    3.6157  -23.8804 H   0  0  0  0  0  0
    5.4179    4.0738  -21.3561 H   0  0  0  0  0  0
    6.6929    3.1353  -20.4600 H   0  0  0  0  0  0
    6.2606    2.8405  -24.7157 H   0  0  0  0  0  0
    5.9339    4.3569  -23.8172 H   0  0  0  0  0  0
   -5.7535    3.7305  -26.2262 H   0  0  0  0  0  0
    2.2145    1.7350  -24.8430 H   0  0  0  0  0  0
    3.0612    1.3341  -22.9350 H   0  0  0  0  0  0
    4.3129    0.7488  -24.0946 H   0  0  0  0  0  0
    4.8374    0.0794  -21.7400 H   0  0  0  0  0  0
    7.6347    3.0027  -22.6092 H   0  0  0  0  0  0
    3.9500    2.5451  -20.8938 H   0  0  0  0  0  0
    5.2528    1.5812  -19.9944 H   0  0  0  0  0  0
   -1.5803    3.4001  -27.0586 H   0  0  0  0  0  0
    0.2584    2.0259  -20.9448 H   0  0  0  0  0  0
    7.0952    0.7459  -21.8326 H   0  0  0  0  0  0
   -3.0061    3.4866  -28.5057 H   0  0  0  0  0  0
    7.6580    8.3840  -22.0860 N   0  0  0  0  0  0
    7.1740   10.8420  -25.3420 N   0  0  0  0  0  0
    5.3330    8.6500  -21.3250 C   0  0  0  0  0  0
    3.3990    7.3540  -22.3790 C   0  0  0  0  0  0
    4.6750    7.2670  -21.5160 C   0  0  0  0  0  0
    6.4420    8.9640  -22.3180 C   0  0  0  0  0  0
    6.2640    9.7770  -23.3870 C   0  0  0  0  0  0
    7.3340   10.0220  -24.2530 C   0  0  3  0  0  0
    8.5700    9.4220  -23.9970 C   0  0  0  0  0  0
    8.7130    8.6140  -22.9200 C   0  0  0  0  0  0
    7.7859    7.7642  -21.2733 H   0  0  0  0  0  0
    7.9671   11.0180  -25.9751 H   0  0  0  0  0  0
    6.2613   11.2829  -25.5249 H   0  0  0  0  0  0
    5.7288    8.7270  -20.3016 H   0  0  0  0  0  0
    4.5617    9.4323  -21.3810 H   0  0  0  0  0  0
    3.5870    8.0081  -23.2432 H   0  0  0  0  0  0
    2.6031    7.8499  -21.8041 H   0  0  0  0  0  0
    4.4240    6.8420  -20.5330 H   0  0  0  0  0  0
    5.3922    6.5829  -21.9931 H   0  0  0  0  0  0
    5.2970   10.2330  -23.5660 H   0  0  0  0  0  0
    9.4079    9.6050  -24.6599 H   0  0  0  0  0  0
    9.6720    8.1490  -22.7220 H   0  0  0  0  0  0
  1  2  2  0  0  0
  1  3  1  0  0  0
  1 34  1  0  0  0
  2  6  1  0  0  0
  2 35  1  0  0  0
  3  5  2  0  0  0
  3 27  1  0  0  0
  4  5  1  0  0  0
  4  6  2  0  0  0
  4 18  1  0  0  0
  5 24  1  0  0  0
  6 10  1  0  0  0
  7 10  2  0  0  0
  7 23  1  0  0  0
  7 33  1  0  0  0
  8 21  1  0  0  0
  8 22  1  0  0  0
  8 36  1  0  0  0
  8 37  1  0  0  0
  9 21  1  0  0  0
  9 31  1  0  0  0
  9 38  1  0  0  0
  9 39  1  0  0  0
 10 40  1  0  0  0
 11 12  2  0  0  0
 11 14  1  0  0  0
 11 15  1  0  0  0
 12 17  1  0  0  0
 12 28  1  0  0  0
 13 28  2  0  0  0
 13 29  1  0  0  0
 13 55  1  0  0  0
 14 29  2  0  0  0
 14 31  1  0  0  0
 15 30  2  0  0  0
 15 41  1  0  0  0
 16 17  2  0  0  0
 16 18  1  0  0  0
 16 30  1  0  0  0
 17 26  1  0  0  0
 18 23  2  0  0  0
 19 20  1  0  0  0
 19 31  1  0  0  0
 19 42  1  0  0  0
 19 43  1  0  0  0
 20 22  1  0  0  0
 20 32  1  0  0  0
 20 44  1  0  0  0
 21 32  1  0  0  0
 21 45  1  0  0  0
 22 46  1  0  0  0
 22 47  1  0  0  0
 23 48  1  0  0  0
 24 25  3  0  0  0
 25 49  1  0  0  0
 32 50  1  0  0  0
 33 51  1  0  0  0
 52 57  1  0  0  0
 52 61  1  0  0  0
 52 62  1  0  0  0
 53 59  1  0  0  0
 53 63  1  0  0  0
 53 64  1  0  0  0
 54 56  1  0  0  0
 54 57  1  0  0  0
 54 65  1  0  0  0
 54 66  1  0  0  0
 55 56  1  0  0  0
 55 67  1  0  0  0
 55 68  1  0  0  0
 56 69  1  0  0  0
 56 70  1  0  0  0
 57 58  2  0  0  0
 58 59  1  0  0  0
 58 71  1  0  0  0
 59 60  1  0  0  0
 60 61  2  0  0  0
 60 72  1  0  0  0
 61 73  1  0  0  0
M  END
> <s_m_entry_id>
81

> <s_m_entry_name>
000000081.1

> <s_m_Source_Path>
/Users/zaksoul/Documents/2

> <s_m_Source_File>
000000081.mol2

> <i_m_Source_File_Index>
1

$$$$
No_0_92
                    3D
 Schrodinger Suite 2022-4.
 74 80  0  0  1  0            999 V2000
   -5.1310    3.5920  -22.0640 C   0  0  0  0  0  0
   -5.3970    3.7270  -23.4060 C   0  0  0  0  0  0
   -3.8890    3.3730  -21.7120 C   0  0  0  0  0  0
   -2.9950    3.4350  -23.8790 C   0  0  0  0  0  0
   -2.8330    3.2450  -22.4500 C   0  0  0  0  0  0
   -4.3450    3.6550  -24.4120 C   0  0  0  0  0  0
   -3.5850    3.6100  -26.6080 C   0  0  0  0  0  0
    6.1420    3.2350  -21.3010 C   0  0  0  0  0  0
    6.0070    3.2820  -23.8540 C   0  0  0  0  0  0
   -4.5950    3.7290  -25.7510 C   0  0  0  0  0  0
    2.2140    3.7640  -23.8980 C   0  0  0  0  0  0
    1.3730    4.8680  -23.6410 C   0  0  0  0  0  0
    3.1490    6.1190  -23.0020 C   0  0  0  0  0  0
    3.6100    3.9900  -23.5900 C   0  0  0  0  0  0
    1.6890    2.6140  -24.5190 C   0  0  0  0  0  0
   -0.4530    3.3940  -24.4420 C   0  0  0  0  0  0
    0.0520    4.6450  -23.8870 C   0  0  0  0  0  0
   -1.9050    3.3630  -24.8000 C   0  0  0  0  0  0
    4.2580    1.5150  -23.2050 C   0  0  0  0  0  0
    5.1940    1.2180  -22.0450 C   0  0  2  0  0  0
    6.7620    2.7650  -22.6340 C   0  0  2  0  0  0
    5.1560    2.2610  -20.9150 C   0  0  0  0  0  0
   -2.2290    3.4640  -26.2330 C   0  0  0  0  0  0
   -1.4840    2.8770  -21.8340 C   0  0  0  0  0  0
   -0.4480    2.5660  -21.3140 C   0  0  0  0  0  0
   -0.8090    5.6870  -23.5830 F   0  0  0  0  0  0
   -3.6780    3.1840  -20.3210 F   0  0  0  0  0  0
    1.8290    6.0540  -23.1520 N   0  0  0  0  0  0
    4.0620    5.1640  -23.1850 N   0  0  0  0  0  0
    0.3850    2.4910  -24.8230 N   0  0  0  0  0  0
    4.5460    2.9520  -23.7270 N   0  0  0  0  0  0
    6.6010    1.2910  -22.5270 N   0  0  1  0  0  0
   -3.7550    3.5710  -27.9970 O   0  0  0  0  0  0
   -5.9352    3.6673  -21.3411 H   0  0  0  0  0  0
   -6.4138    3.8926  -23.7433 H   0  0  0  0  0  0
    5.6548    4.2103  -21.4472 H   0  0  0  0  0  0
    6.9260    3.2875  -20.5312 H   0  0  0  0  0  0
    6.4119    2.8105  -24.7616 H   0  0  0  0  0  0
    6.1321    4.3724  -23.9266 H   0  0  0  0  0  0
   -5.6073    3.8845  -26.1062 H   0  0  0  0  0  0
    2.3427    1.7865  -24.7700 H   0  0  0  0  0  0
    3.2154    1.4534  -22.8598 H   0  0  0  0  0  0
    4.4336    0.7902  -24.0136 H   0  0  0  0  0  0
    4.9862    0.2164  -21.6405 H   0  0  0  0  0  0
    7.8260    3.0386  -22.6885 H   0  0  0  0  0  0
    4.1640    2.7358  -20.8918 H   0  0  0  0  0  0
    5.4629    1.7866  -19.9712 H   0  0  0  0  0  0
   -1.4574    3.4299  -26.9936 H   0  0  0  0  0  0
    0.4632    2.2920  -20.8559 H   0  0  0  0  0  0
    7.2553    0.8313  -21.8011 H   0  0  0  0  0  0
   -2.9077    3.4820  -28.4172 H   0  0  0  0  0  0
    8.4480    8.5850  -24.6380 N   0  3  0  0  0  0
    6.1050    8.9330  -21.0680 N   0  0  0  0  0  0
    6.5760    9.2530  -22.2960 N   0  0  0  0  0  0
    4.0350    7.5480  -21.0830 C   0  0  0  0  0  0
    3.6850    7.4840  -22.5820 C   0  0  0  0  0  0
    4.6860    8.8870  -20.7010 C   0  0  0  0  0  0
    7.8860    9.2190  -22.3000 C   0  0  0  0  0  0
    8.7310    9.5420  -23.5150 C   0  0  0  0  0  0
    8.3280    8.8500  -21.0250 C   0  0  0  0  0  0
    7.2070    8.6880  -20.3190 C   0  0  0  0  0  0
    9.0210    8.8210  -25.4330 H   0  0  0  0  0  0
    8.6570    7.6450  -24.3400 H   0  0  0  0  0  0
    7.4755    8.6470  -24.8959 H   0  0  0  0  0  0
    4.7177    6.7232  -20.8307 H   0  0  0  0  0  0
    3.1212    7.4030  -20.4881 H   0  0  0  0  0  0
    4.5782    7.7250  -23.1771 H   0  0  0  0  0  0
    2.9382    8.2568  -22.8169 H   0  0  0  0  0  0
    4.1517    9.7094  -21.1992 H   0  0  0  0  0  0
    4.5831    9.0469  -19.6176 H   0  0  0  0  0  0
    8.5180   10.5689  -23.8470 H   0  0  0  0  0  0
    9.7961    9.4850  -23.2460 H   0  0  0  0  0  0
    9.3896    8.7620  -20.8241 H   0  0  0  0  0  0
    7.1030    8.4000  -19.2791 H   0  0  0  0  0  0
  1  2  2  0  0  0
  1  3  1  0  0  0
  1 34  1  0  0  0
  2  6  1  0  0  0
  2 35  1  0  0  0
  3  5  2  0  0  0
  3 27  1  0  0  0
  4  5  1  0  0  0
  4  6  2  0  0  0
  4 18  1  0  0  0
  5 24  1  0  0  0
  6 10  1  0  0  0
  7 10  2  0  0  0
  7 23  1  0  0  0
  7 33  1  0  0  0
  8 21  1  0  0  0
  8 22  1  0  0  0
  8 36  1  0  0  0
  8 37  1  0  0  0
  9 21  1  0  0  0
  9 31  1  0  0  0
  9 38  1  0  0  0
  9 39  1  0  0  0
 10 40  1  0  0  0
 11 12  1  0  0  0
 11 14  2  0  0  0
 11 15  1  0  0  0
 12 17  1  0  0  0
 12 28  2  0  0  0
 13 28  1  0  0  0
 13 29  2  0  0  0
 13 56  1  0  0  0
 14 29  1  0  0  0
 14 31  1  0  0  0
 15 30  2  0  0  0
 15 41  1  0  0  0
 16 17  2  0  0  0
 16 18  1  0  0  0
 16 30  1  0  0  0
 17 26  1  0  0  0
 18 23  2  0  0  0
 19 20  1  0  0  0
 19 31  1  0  0  0
 19 42  1  0  0  0
 19 43  1  0  0  0
 20 22  1  0  0  0
 20 32  1  0  0  0
 20 44  1  0  0  0
 21 32  1  0  0  0
 21 45  1  0  0  0
 22 46  1  0  0  0
 22 47  1  0  0  0
 23 48  1  0  0  0
 24 25  3  0  0  0
 25 49  1  0  0  0
 32 50  1  0  0  0
 33 51  1  0  0  0
 52 59  1  0  0  0
 52 62  1  0  0  0
 52 63  1  0  0  0
 52 64  1  0  0  0
 53 54  1  0  0  0
 53 57  1  0  0  0
 53 61  1  0  0  0
 54 58  2  0  0  0
 55 56  1  0  0  0
 55 57  1  0  0  0
 55 65  1  0  0  0
 55 66  1  0  0  0
 56 67  1  0  0  0
 56 68  1  0  0  0
 57 69  1  0  0  0
 57 70  1  0  0  0
 58 59  1  0  0  0
 58 60  1  0  0  0
 59 71  1  0  0  0
 59 72  1  0  0  0
 60 61  2  0  0  0
 60 73  1  0  0  0
 61 74  1  0  0  0
M  CHG  1  52   1
M  END
> <s_m_entry_id>
82

> <s_m_entry_name>
000000082.1

> <s_m_Source_Path>
/Users/zaksoul/Documents/2

> <s_m_Source_File>
000000082.mol2

> <i_m_Source_File_Index>
1

$$$$
No_0_93
                    3D
 Schrodinger Suite 2022-4.
 74 80  0  0  1  0            999 V2000
   -5.1540    3.4360  -22.3030 C   0  0  0  0  0  0
   -5.3950    3.6190  -23.6430 C   0  0  0  0  0  0
   -3.9160    3.2220  -21.9340 C   0  0  0  0  0  0
   -2.9800    3.3800  -24.0790 C   0  0  0  0  0  0
   -2.8440    3.1380  -22.6550 C   0  0  0  0  0  0
   -4.3230    3.6010  -24.6300 C   0  0  0  0  0  0
   -3.5200    3.6510  -26.8100 C   0  0  0  0  0  0
    6.1060    3.2110  -21.3270 C   0  0  0  0  0  0
    6.0210    3.3540  -23.8780 C   0  0  0  0  0  0
   -4.5480    3.7230  -25.9700 C   0  0  0  0  0  0
    2.2220    3.7830  -23.9810 C   0  0  0  0  0  0
    1.3600    4.8650  -23.6990 C   0  0  0  0  0  0
    3.1040    6.1150  -22.9770 C   0  0  0  0  0  0
    3.6080    4.0170  -23.6360 C   0  0  0  0  0  0
    1.7260    2.6510  -24.6560 C   0  0  0  0  0  0
   -0.4280    3.3970  -24.5920 C   0  0  0  0  0  0
    0.0470    4.6320  -23.9800 C   0  0  0  0  0  0
   -1.8720    3.3580  -24.9800 C   0  0  0  0  0  0
    4.2850    1.5390  -23.3330 C   0  0  0  0  0  0
    5.2030    1.2100  -22.1660 C   0  0  2  0  0  0
    6.7590    2.8010  -22.6650 C   0  0  2  0  0  0
    5.1280    2.2080  -20.9990 C   0  0  0  0  0  0
   -2.1700    3.5100  -26.4140 C   0  0  0  0  0  0
   -1.5010    2.7660  -22.0270 C   0  0  0  0  0  0
   -0.4720    2.4490  -21.4980 C   0  0  0  0  0  0
   -0.8350    5.6500  -23.6530 F   0  0  0  0  0  0
   -3.7290    2.9830  -20.5480 F   0  0  0  0  0  0
    1.7890    6.0370  -23.1550 N   0  0  0  0  0  0
    4.0350    5.1810  -23.1780 N   0  0  0  0  0  0
    0.4300    2.5210  -24.9910 N   0  0  0  0  0  0
    4.5630    2.9990  -23.7930 N   0  0  0  0  0  0
    6.6180    1.3220  -22.6170 N   0  0  1  0  0  0
   -3.6610    3.6630  -28.2040 O   0  0  0  0  0  0
   -5.9733    3.4731  -21.5942 H   0  0  0  0  0  0
   -6.4073    3.7835  -23.9941 H   0  0  0  0  0  0
    5.6073    4.1842  -21.4461 H   0  0  0  0  0  0
    6.8738    3.2443  -20.5400 H   0  0  0  0  0  0
    6.4497    2.9233  -24.7949 H   0  0  0  0  0  0
    6.1300    4.4482  -23.9073 H   0  0  0  0  0  0
   -5.5554    3.8775  -26.3392 H   0  0  0  0  0  0
    2.3973    1.8432  -24.9239 H   0  0  0  0  0  0
    3.2370    1.4491  -23.0109 H   0  0  0  0  0  0
    4.4878    0.8479  -24.1644 H   0  0  0  0  0  0
    5.0022    0.1906  -21.8047 H   0  0  0  0  0  0
    7.8197    3.0917  -22.6872 H   0  0  0  0  0  0
    4.1291    2.6681  -20.9768 H   0  0  0  0  0  0
    5.4227    1.7024  -20.0676 H   0  0  0  0  0  0
   -1.3827    3.5160  -27.1591 H   0  0  0  0  0  0
    0.4343    2.1709  -21.0328 H   0  0  0  0  0  0
    7.2646    0.8432  -21.8966 H   0  0  0  0  0  0
   -2.8043    3.6016  -28.6100 H   0  0  0  0  0  0
    7.8710    9.1780  -25.1520 N   0  3  0  0  0  0
    6.1510    8.9570  -21.2350 N   0  0  0  0  0  0
    6.3840    9.4400  -22.4780 N   0  0  0  0  0  0
    4.2050    7.4100  -21.0750 C   0  0  0  0  0  0
    3.6110    7.4700  -22.4950 C   0  0  0  0  0  0
    4.8220    8.7530  -20.6510 C   0  0  0  0  0  0
    7.6730    9.5180  -22.6970 C   0  0  0  0  0  0
    8.2760   10.0350  -23.9870 C   0  0  0  0  0  0
    8.3500    9.0600  -21.5610 C   0  0  0  0  0  0
    7.3790    8.7310  -20.7070 C   0  0  0  0  0  0
    8.2839    9.5409  -25.9969 H   0  0  0  0  0  0
    8.1898    8.2336  -25.0021 H   0  0  0  0  0  0
    6.8669    9.1830  -25.2400 H   0  0  0  0  0  0
    4.9747    6.6253  -21.0330 H   0  0  0  0  0  0
    3.4187    7.1269  -20.3597 H   0  0  0  0  0  0
    4.3723    7.8461  -23.1943 H   0  0  0  0  0  0
    2.7858    8.1971  -22.5150 H   0  0  0  0  0  0
    4.1571    9.5738  -20.9579 H   0  0  0  0  0  0
    4.8940    8.7920  -19.5541 H   0  0  0  0  0  0
    7.9420   11.0689  -24.1590 H   0  0  0  0  0  0
    9.3727   10.0420  -23.9020 H   0  0  0  0  0  0
    9.4337    9.0420  -21.5460 H   0  0  0  0  0  0
    7.4720    8.3301  -19.7042 H   0  0  0  0  0  0
  1  2  2  0  0  0
  1  3  1  0  0  0
  1 34  1  0  0  0
  2  6  1  0  0  0
  2 35  1  0  0  0
  3  5  2  0  0  0
  3 27  1  0  0  0
  4  5  1  0  0  0
  4  6  2  0  0  0
  4 18  1  0  0  0
  5 24  1  0  0  0
  6 10  1  0  0  0
  7 10  2  0  0  0
  7 23  1  0  0  0
  7 33  1  0  0  0
  8 21  1  0  0  0
  8 22  1  0  0  0
  8 36  1  0  0  0
  8 37  1  0  0  0
  9 21  1  0  0  0
  9 31  1  0  0  0
  9 38  1  0  0  0
  9 39  1  0  0  0
 10 40  1  0  0  0
 11 12  1  0  0  0
 11 14  2  0  0  0
 11 15  1  0  0  0
 12 17  1  0  0  0
 12 28  2  0  0  0
 13 28  1  0  0  0
 13 29  2  0  0  0
 13 56  1  0  0  0
 14 29  1  0  0  0
 14 31  1  0  0  0
 15 30  2  0  0  0
 15 41  1  0  0  0
 16 17  2  0  0  0
 16 18  1  0  0  0
 16 30  1  0  0  0
 17 26  1  0  0  0
 18 23  2  0  0  0
 19 20  1  0  0  0
 19 31  1  0  0  0
 19 42  1  0  0  0
 19 43  1  0  0  0
 20 22  1  0  0  0
 20 32  1  0  0  0
 20 44  1  0  0  0
 21 32  1  0  0  0
 21 45  1  0  0  0
 22 46  1  0  0  0
 22 47  1  0  0  0
 23 48  1  0  0  0
 24 25  3  0  0  0
 25 49  1  0  0  0
 32 50  1  0  0  0
 33 51  1  0  0  0
 52 59  1  0  0  0
 52 62  1  0  0  0
 52 63  1  0  0  0
 52 64  1  0  0  0
 53 54  1  0  0  0
 53 57  1  0  0  0
 53 61  1  0  0  0
 54 58  2  0  0  0
 55 56  1  0  0  0
 55 57  1  0  0  0
 55 65  1  0  0  0
 55 66  1  0  0  0
 56 67  1  0  0  0
 56 68  1  0  0  0
 57 69  1  0  0  0
 57 70  1  0  0  0
 58 59  1  0  0  0
 58 60  1  0  0  0
 59 71  1  0  0  0
 59 72  1  0  0  0
 60 61  2  0  0  0
 60 73  1  0  0  0
 61 74  1  0  0  0
M  CHG  1  52   1
M  END
> <s_m_entry_id>
83

> <s_m_entry_name>
000000083.1

> <s_m_Source_Path>
/Users/zaksoul/Documents/2

> <s_m_Source_File>
000000083.mol2

> <i_m_Source_File_Index>
1

$$$$
No_0_94
                    3D
 Schrodinger Suite 2022-4.
 71 77  0  0  1  0            999 V2000
   -5.2640    3.2070  -22.2640 C   0  0  0  0  0  0
   -5.5060    3.3480  -23.6100 C   0  0  0  0  0  0
   -4.0220    3.0380  -21.8870 C   0  0  0  0  0  0
   -3.0840    3.1700  -24.0320 C   0  0  0  0  0  0
   -2.9460    2.9680  -22.6030 C   0  0  0  0  0  0
   -4.4310    3.3370  -24.5930 C   0  0  0  0  0  0
   -3.6220    3.3550  -26.7710 C   0  0  0  0  0  0
    5.9940    3.3410  -21.2520 C   0  0  0  0  0  0
    5.9130    3.4160  -23.8070 C   0  0  0  0  0  0
   -4.6550    3.4180  -25.9360 C   0  0  0  0  0  0
    2.1040    3.7300  -23.9310 C   0  0  0  0  0  0
    1.2090    4.7920  -23.6790 C   0  0  0  0  0  0
    2.9130    6.1120  -22.9840 C   0  0  0  0  0  0
    3.4810    4.0140  -23.5880 C   0  0  0  0  0  0
    1.6440    2.5660  -24.5780 C   0  0  0  0  0  0
   -0.5310    3.2500  -24.5390 C   0  0  0  0  0  0
   -0.0960    4.5130  -23.9570 C   0  0  0  0  0  0
   -1.9720    3.1580  -24.9290 C   0  0  0  0  0  0
    4.2300    1.5650  -23.2200 C   0  0  0  0  0  0
    5.1540    1.2940  -22.0430 C   0  0  2  0  0  0
    6.6630    2.9170  -22.5770 C   0  0  2  0  0  0
    5.0440    2.3180  -20.9010 C   0  0  0  0  0  0
   -2.2690    3.2650  -26.3680 C   0  0  0  0  0  0
   -1.5950    2.6520  -21.9610 C   0  0  0  0  0  0
   -0.5580    2.3800  -21.4220 C   0  0  0  0  0  0
   -1.0080    5.5120  -23.6590 F   0  0  0  0  0  0
   -3.8330    2.8410  -20.4940 F   0  0  0  0  0  0
    1.6010    5.9900  -23.1640 N   0  0  0  0  0  0
    3.8720    5.2010  -23.1590 N   0  0  0  0  0  0
    0.3540    2.3900  -24.9130 N   0  0  0  0  0  0
    4.4660    3.0200  -23.7170 N   0  0  0  0  0  0
    6.5660    1.4360  -22.4920 N   0  0  1  0  0  0
   -3.7590    3.3270  -28.1650 O   0  0  0  0  0  0
   -6.0871    3.2371  -21.5593 H   0  0  0  0  0  0
   -6.5218    3.4725  -23.9673 H   0  0  0  0  0  0
    5.4664    4.2952  -21.3973 H   0  0  0  0  0  0
    6.7577    3.4177  -20.4641 H   0  0  0  0  0  0
    6.3582    2.9759  -24.7115 H   0  0  0  0  0  0
    5.9897    4.5119  -23.8625 H   0  0  0  0  0  0
   -5.6655    3.5324  -26.3113 H   0  0  0  0  0  0
    2.3397    1.7719  -24.8240 H   0  0  0  0  0  0
    3.1840    1.4519  -22.8989 H   0  0  0  0  0  0
    4.4560    0.8597  -24.0333 H   0  0  0  0  0  0
    4.9825    0.2789  -21.6555 H   0  0  0  0  0  0
    7.7148    3.2380  -22.6043 H   0  0  0  0  0  0
    4.0316    2.7480  -20.8939 H   0  0  0  0  0  0
    5.3509    1.8456  -19.9562 H   0  0  0  0  0  0
   -1.4803    3.2750  -27.1116 H   0  0  0  0  0  0
    0.3543    2.1409  -20.9469 H   0  0  0  0  0  0
    7.2241    0.9951  -21.7579 H   0  0  0  0  0  0
   -2.8998    3.2815  -28.5679 H   0  0  0  0  0  0
    4.8720    8.6680  -20.9720 N   0  0  0  0  0  0
    4.9920   10.5510  -19.8890 N   0  3  0  0  0  0
    3.3770    7.4930  -22.5350 C   0  0  0  0  0  0
    6.0720   10.6780  -20.8560 C   0  0  0  0  0  0
    5.9990    9.3210  -21.6200 C   0  0  0  0  0  0
    4.3470    9.4000  -19.9980 C   0  0  0  0  0  0
    3.1840    9.0140  -19.1160 C   0  0  0  0  0  0
    4.3970    7.3620  -21.3920 C   0  0  0  0  0  0
    4.7069   11.2362  -19.1748 H   0  0  0  0  0  0
    3.8428    8.0168  -23.3827 H   0  0  0  0  0  0
    2.5108    8.0761  -22.1889 H   0  0  0  0  0  0
    7.0314   10.7420  -20.3218 H   0  0  0  0  0  0
    5.8401   11.4978  -21.5518 H   0  0  0  0  0  0
    5.7490    9.5130  -22.6739 H   0  0  0  0  0  0
    6.9148    8.7451  -21.4210 H   0  0  0  0  0  0
    2.9801    9.8257  -18.4022 H   0  0  0  0  0  0
    2.2928    8.8410  -19.7371 H   0  0  0  0  0  0
    3.4310    8.0951  -18.5641 H   0  0  0  0  0  0
    3.9269    6.8509  -20.5389 H   0  0  0  0  0  0
    5.2489    6.7531  -21.7290 H   0  0  0  0  0  0
  1  2  2  0  0  0
  1  3  1  0  0  0
  1 34  1  0  0  0
  2  6  1  0  0  0
  2 35  1  0  0  0
  3  5  2  0  0  0
  3 27  1  0  0  0
  4  5  1  0  0  0
  4  6  2  0  0  0
  4 18  1  0  0  0
  5 24  1  0  0  0
  6 10  1  0  0  0
  7 10  2  0  0  0
  7 23  1  0  0  0
  7 33  1  0  0  0
  8 21  1  0  0  0
  8 22  1  0  0  0
  8 36  1  0  0  0
  8 37  1  0  0  0
  9 21  1  0  0  0
  9 31  1  0  0  0
  9 38  1  0  0  0
  9 39  1  0  0  0
 10 40  1  0  0  0
 11 12  1  0  0  0
 11 14  2  0  0  0
 11 15  1  0  0  0
 12 17  1  0  0  0
 12 28  2  0  0  0
 13 28  1  0  0  0
 13 29  2  0  0  0
 13 54  1  0  0  0
 14 29  1  0  0  0
 14 31  1  0  0  0
 15 30  2  0  0  0
 15 41  1  0  0  0
 16 17  2  0  0  0
 16 18  1  0  0  0
 16 30  1  0  0  0
 17 26  1  0  0  0
 18 23  2  0  0  0
 19 20  1  0  0  0
 19 31  1  0  0  0
 19 42  1  0  0  0
 19 43  1  0  0  0
 20 22  1  0  0  0
 20 32  1  0  0  0
 20 44  1  0  0  0
 21 32  1  0  0  0
 21 45  1  0  0  0
 22 46  1  0  0  0
 22 47  1  0  0  0
 23 48  1  0  0  0
 24 25  3  0  0  0
 25 49  1  0  0  0
 32 50  1  0  0  0
 33 51  1  0  0  0
 52 56  1  0  0  0
 52 57  1  0  0  0
 52 59  1  0  0  0
 53 55  1  0  0  0
 53 57  2  0  0  0
 53 60  1  0  0  0
 54 59  1  0  0  0
 54 61  1  0  0  0
 54 62  1  0  0  0
 55 56  1  0  0  0
 55 63  1  0  0  0
 55 64  1  0  0  0
 56 65  1  0  0  0
 56 66  1  0  0  0
 57 58  1  0  0  0
 58 67  1  0  0  0
 58 68  1  0  0  0
 58 69  1  0  0  0
 59 70  1  0  0  0
 59 71  1  0  0  0
M  CHG  1  53   1
M  END
> <s_m_entry_id>
84

> <s_m_entry_name>
000000084.1

> <s_m_Source_Path>
/Users/zaksoul/Documents/2

> <s_m_Source_File>
000000084.mol2

> <i_m_Source_File_Index>
1

$$$$
No_0_95
                    3D
 Schrodinger Suite 2022-4.
 71 77  0  0  1  0            999 V2000
   -5.1610    3.2090  -22.5010 C   0  0  0  0  0  0
   -5.3940    3.3560  -23.8470 C   0  0  0  0  0  0
   -3.9220    3.0310  -22.1170 C   0  0  0  0  0  0
   -2.9710    3.1640  -24.2570 C   0  0  0  0  0  0
   -2.8420    2.9560  -22.8270 C   0  0  0  0  0  0
   -4.3140    3.3410  -24.8240 C   0  0  0  0  0  0
   -3.4920    3.3620  -26.9980 C   0  0  0  0  0  0
    6.0920    3.2690  -21.4250 C   0  0  0  0  0  0
    6.0260    3.3530  -23.9790 C   0  0  0  0  0  0
   -4.5290    3.4280  -26.1690 C   0  0  0  0  0  0
    2.2200    3.6910  -24.1240 C   0  0  0  0  0  0
    1.3300    4.7580  -23.8730 C   0  0  0  0  0  0
    3.0380    6.0640  -23.1650 C   0  0  0  0  0  0
    3.5970    3.9650  -23.7720 C   0  0  0  0  0  0
    1.7560    2.5330  -24.7770 C   0  0  0  0  0  0
   -0.4150    3.2290  -24.7490 C   0  0  0  0  0  0
    0.0260    4.4880  -24.1600 C   0  0  0  0  0  0
   -1.8540    3.1480  -25.1470 C   0  0  0  0  0  0
    4.3280    1.5100  -23.4090 C   0  0  0  0  0  0
    5.2430    1.2290  -22.2270 C   0  0  2  0  0  0
    6.7660    2.8440  -22.7470 C   0  0  2  0  0  0
    5.1340    2.2510  -21.0830 C   0  0  0  0  0  0
   -2.1420    3.2620  -26.5880 C   0  0  0  0  0  0
   -1.4970    2.6300  -22.1790 C   0  0  0  0  0  0
   -0.4650    2.3490  -21.6350 C   0  0  0  0  0  0
   -0.8820    5.4920  -23.8640 F   0  0  0  0  0  0
   -3.7420    2.8280  -20.7240 F   0  0  0  0  0  0
    1.7270    5.9520  -23.3520 N   0  0  0  0  0  0
    3.9920    5.1480  -23.3370 N   0  0  0  0  0  0
    0.4670    2.3650  -25.1200 N   0  0  0  0  0  0
    4.5760    2.9660  -23.8990 N   0  0  0  0  0  0
    6.6590    1.3640  -22.6680 N   0  0  1  0  0  0
   -3.6210    3.3390  -28.3920 O   0  0  0  0  0  0
   -5.9873    3.2421  -21.8002 H   0  0  0  0  0  0
   -6.4068    3.4884  -24.2100 H   0  0  0  0  0  0
    5.5711    4.2270  -21.5694 H   0  0  0  0  0  0
    6.8515    3.3376  -20.6322 H   0  0  0  0  0  0
    6.4729    2.9132  -24.8828 H   0  0  0  0  0  0
    6.1107    4.4485  -24.0315 H   0  0  0  0  0  0
   -5.5367    3.5504  -26.5494 H   0  0  0  0  0  0
    2.4482    1.7355  -25.0218 H   0  0  0  0  0  0
    3.2795    1.4030  -23.0941 H   0  0  0  0  0  0
    4.5551    0.8065  -24.2235 H   0  0  0  0  0  0
    5.0633    0.2135  -21.8444 H   0  0  0  0  0  0
    7.8198    3.1589  -22.7672 H   0  0  0  0  0  0
    4.1242    2.6872  -21.0790 H   0  0  0  0  0  0
    5.4327    1.7727  -20.1385 H   0  0  0  0  0  0
   -1.3489    3.2690  -27.3269 H   0  0  0  0  0  0
    0.4433    2.1029  -21.1558 H   0  0  0  0  0  0
    7.3101    0.9171  -21.9313 H   0  0  0  0  0  0
   -2.7598    3.2895  -28.7899 H   0  0  0  0  0  0
    5.2510    8.6130  -21.4220 N   0  0  0  0  0  0
    5.5030   10.4140  -20.2280 N   0  3  0  0  0  0
    3.5090    7.4410  -22.7080 C   0  0  0  0  0  0
    6.3190   10.6980  -21.3980 C   0  0  0  0  0  0
    6.1550    9.4010  -22.2460 C   0  0  0  0  0  0
    4.9220    9.2250  -20.2930 C   0  0  0  0  0  0
    4.0210    8.6830  -19.2090 C   0  0  0  0  0  0
    4.7720    7.3080  -21.8410 C   0  0  0  0  0  0
    5.3490   11.0180  -19.4080 H   0  0  0  0  0  0
    3.7330    8.0619  -23.5879 H   0  0  0  0  0  0
    2.7126    7.9252  -22.1237 H   0  0  0  0  0  0
    7.3704   10.7990  -21.0909 H   0  0  0  0  0  0
    5.8841   11.5469  -21.9459 H   0  0  0  0  0  0
    5.6558    9.6491  -23.1943 H   0  0  0  0  0  0
    7.1252    8.8869  -22.3120 H   0  0  0  0  0  0
    3.9380    9.4207  -18.3973 H   0  0  0  0  0  0
    3.0228    8.4852  -19.6267 H   0  0  0  0  0  0
    4.4440    7.7480  -18.8130 H   0  0  0  0  0  0
    4.5440    6.6989  -20.9539 H   0  0  0  0  0  0
    5.5578    6.7961  -22.4159 H   0  0  0  0  0  0
  1  2  2  0  0  0
  1  3  1  0  0  0
  1 34  1  0  0  0
  2  6  1  0  0  0
  2 35  1  0  0  0
  3  5  2  0  0  0
  3 27  1  0  0  0
  4  5  1  0  0  0
  4  6  2  0  0  0
  4 18  1  0  0  0
  5 24  1  0  0  0
  6 10  1  0  0  0
  7 10  2  0  0  0
  7 23  1  0  0  0
  7 33  1  0  0  0
  8 21  1  0  0  0
  8 22  1  0  0  0
  8 36  1  0  0  0
  8 37  1  0  0  0
  9 21  1  0  0  0
  9 31  1  0  0  0
  9 38  1  0  0  0
  9 39  1  0  0  0
 10 40  1  0  0  0
 11 12  1  0  0  0
 11 14  2  0  0  0
 11 15  1  0  0  0
 12 17  1  0  0  0
 12 28  2  0  0  0
 13 28  1  0  0  0
 13 29  2  0  0  0
 13 54  1  0  0  0
 14 29  1  0  0  0
 14 31  1  0  0  0
 15 30  2  0  0  0
 15 41  1  0  0  0
 16 17  2  0  0  0
 16 18  1  0  0  0
 16 30  1  0  0  0
 17 26  1  0  0  0
 18 23  2  0  0  0
 19 20  1  0  0  0
 19 31  1  0  0  0
 19 42  1  0  0  0
 19 43  1  0  0  0
 20 22  1  0  0  0
 20 32  1  0  0  0
 20 44  1  0  0  0
 21 32  1  0  0  0
 21 45  1  0  0  0
 22 46  1  0  0  0
 22 47  1  0  0  0
 23 48  1  0  0  0
 24 25  3  0  0  0
 25 49  1  0  0  0
 32 50  1  0  0  0
 33 51  1  0  0  0
 52 56  1  0  0  0
 52 57  1  0  0  0
 52 59  1  0  0  0
 53 55  1  0  0  0
 53 57  2  0  0  0
 53 60  1  0  0  0
 54 59  1  0  0  0
 54 61  1  0  0  0
 54 62  1  0  0  0
 55 56  1  0  0  0
 55 63  1  0  0  0
 55 64  1  0  0  0
 56 65  1  0  0  0
 56 66  1  0  0  0
 57 58  1  0  0  0
 58 67  1  0  0  0
 58 68  1  0  0  0
 58 69  1  0  0  0
 59 70  1  0  0  0
 59 71  1  0  0  0
M  CHG  1  53   1
M  END
> <s_m_entry_id>
85

> <s_m_entry_name>
000000085.1

> <s_m_Source_Path>
/Users/zaksoul/Documents/2

> <s_m_Source_File>
000000085.mol2

> <i_m_Source_File_Index>
1

$$$$
No_0_96
                    3D
 Schrodinger Suite 2022-4.
 71 77  0  0  1  0            999 V2000
   -5.2280    3.0250  -21.7750 C   0  0  0  0  0  0
   -5.5320    3.2050  -23.1040 C   0  0  0  0  0  0
   -3.9730    2.8150  -21.4650 C   0  0  0  0  0  0
   -3.1400    2.9720  -23.6510 C   0  0  0  0  0  0
   -2.9360    2.7330  -22.2350 C   0  0  0  0  0  0
   -4.5080    3.1880  -24.1390 C   0  0  0  0  0  0
   -3.8080    3.2370  -26.3550 C   0  0  0  0  0  0
    6.0660    2.8380  -21.3280 C   0  0  0  0  0  0
    5.8610    2.9760  -23.8730 C   0  0  0  0  0  0
   -4.7960    3.3070  -25.4680 C   0  0  0  0  0  0
    2.0600    3.3930  -23.7980 C   0  0  0  0  0  0
    1.2090    4.4720  -23.4780 C   0  0  0  0  0  0
    2.9800    5.7290  -22.8400 C   0  0  0  0  0  0
    3.4600    3.6320  -23.5190 C   0  0  0  0  0  0
    1.5370    2.2580  -24.4470 C   0  0  0  0  0  0
   -0.6140    2.9970  -24.2840 C   0  0  0  0  0  0
   -0.1150    4.2350  -23.6970 C   0  0  0  0  0  0
   -2.0750    2.9530  -24.6030 C   0  0  0  0  0  0
    4.1590    1.1570  -23.2450 C   0  0  0  0  0  0
    5.1320    0.8330  -22.1210 C   0  0  2  0  0  0
    6.6570    2.4280  -22.6950 C   0  0  2  0  0  0
    5.1080    1.8330  -20.9530 C   0  0  0  0  0  0
   -2.4400    3.1010  -26.0230 C   0  0  0  0  0  0
   -1.5640    2.3660  -21.6700 C   0  0  0  0  0  0
   -0.5100    2.0540  -21.1900 C   0  0  0  0  0  0
   -0.9840    5.2500  -23.3310 F   0  0  0  0  0  0
   -3.7210    2.5790  -20.0890 F   0  0  0  0  0  0
    1.6580    5.6470  -22.9570 N   0  0  0  0  0  0
    3.9040    4.7980  -23.0830 N   0  0  0  0  0  0
    0.2270    2.1230  -24.7210 N   0  0  0  0  0  0
    4.4090    2.6160  -23.7190 N   0  0  0  0  0  0
    6.5230    0.9490  -22.6380 N   0  0  1  0  0  0
   -4.0150    3.2460  -27.7400 O   0  0  0  0  0  0
   -6.0134    3.0602  -21.0287 H   0  0  0  0  0  0
   -6.5605    3.3645  -23.4070 H   0  0  0  0  0  0
    5.5591    3.8094  -21.4249 H   0  0  0  0  0  0
    6.8701    2.8753  -20.5783 H   0  0  0  0  0  0
    6.2476    2.5460  -24.8087 H   0  0  0  0  0  0
    5.9649    4.0705  -23.9083 H   0  0  0  0  0  0
   -5.8203    3.4576  -25.7893 H   0  0  0  0  0  0
    2.1971    1.4514  -24.7449 H   0  0  0  0  0  0
    3.1277    1.0642  -22.8737 H   0  0  0  0  0  0
    4.3245    0.4647  -24.0836 H   0  0  0  0  0  0
    4.9514   -0.1862  -21.7486 H   0  0  0  0  0  0
    7.7146    2.7217  -22.7667 H   0  0  0  0  0  0
    4.1093    2.2890  -20.8854 H   0  0  0  0  0  0
    5.4480    1.3296  -20.0359 H   0  0  0  0  0  0
   -1.6887    3.1090  -26.8044 H   0  0  0  0  0  0
    0.4180    1.7800  -20.7670 H   0  0  0  0  0  0
    7.2042    0.4731  -21.9482 H   0  0  0  0  0  0
   -3.1783    3.1876  -28.1861 H   0  0  0  0  0  0
    5.5410    8.4540  -22.1710 N   0  0  0  0  0  0
    6.3550   10.0330  -20.9170 N   0  3  0  0  0  0
    3.5040    7.0870  -22.3840 C   0  0  0  0  0  0
    6.1530   10.7150  -22.1850 C   0  0  0  0  0  0
    5.5870    9.5800  -23.0910 C   0  0  0  0  0  0
    5.9930    8.7600  -20.9630 C   0  0  0  0  0  0
    6.0990    7.8250  -19.7820 C   0  0  0  0  0  0
    5.0290    7.1560  -22.5740 C   0  0  0  0  0  0
    6.7318   10.4298  -20.0444 H   0  0  0  0  0  0
    3.0260    7.8821  -22.9751 H   0  0  0  0  0  0
    3.2600    7.2360  -21.3218 H   0  0  0  0  0  0
    7.1263   11.0418  -22.5797 H   0  0  0  0  0  0
    5.3868   11.4943  -22.0600 H   0  0  0  0  0  0
    4.5630    9.8390  -23.3980 H   0  0  0  0  0  0
    6.3090    9.3630  -23.8920 H   0  0  0  0  0  0
    6.5102    8.3683  -18.9185 H   0  0  0  0  0  0
    5.1007    7.4383  -19.5292 H   0  0  0  0  0  0
    6.7630    6.9859  -20.0370 H   0  0  0  0  0  0
    5.5078    6.3703  -21.9712 H   0  0  0  0  0  0
    5.2752    6.9759  -23.6308 H   0  0  0  0  0  0
  1  2  2  0  0  0
  1  3  1  0  0  0
  1 34  1  0  0  0
  2  6  1  0  0  0
  2 35  1  0  0  0
  3  5  2  0  0  0
  3 27  1  0  0  0
  4  5  1  0  0  0
  4  6  2  0  0  0
  4 18  1  0  0  0
  5 24  1  0  0  0
  6 10  1  0  0  0
  7 10  2  0  0  0
  7 23  1  0  0  0
  7 33  1  0  0  0
  8 21  1  0  0  0
  8 22  1  0  0  0
  8 36  1  0  0  0
  8 37  1  0  0  0
  9 21  1  0  0  0
  9 31  1  0  0  0
  9 38  1  0  0  0
  9 39  1  0  0  0
 10 40  1  0  0  0
 11 12  1  0  0  0
 11 14  2  0  0  0
 11 15  1  0  0  0
 12 17  1  0  0  0
 12 28  2  0  0  0
 13 28  1  0  0  0
 13 29  2  0  0  0
 13 54  1  0  0  0
 14 29  1  0  0  0
 14 31  1  0  0  0
 15 30  2  0  0  0
 15 41  1  0  0  0
 16 17  2  0  0  0
 16 18  1  0  0  0
 16 30  1  0  0  0
 17 26  1  0  0  0
 18 23  2  0  0  0
 19 20  1  0  0  0
 19 31  1  0  0  0
 19 42  1  0  0  0
 19 43  1  0  0  0
 20 22  1  0  0  0
 20 32  1  0  0  0
 20 44  1  0  0  0
 21 32  1  0  0  0
 21 45  1  0  0  0
 22 46  1  0  0  0
 22 47  1  0  0  0
 23 48  1  0  0  0
 24 25  3  0  0  0
 25 49  1  0  0  0
 32 50  1  0  0  0
 33 51  1  0  0  0
 52 56  1  0  0  0
 52 57  1  0  0  0
 52 59  1  0  0  0
 53 55  1  0  0  0
 53 57  2  0  0  0
 53 60  1  0  0  0
 54 59  1  0  0  0
 54 61  1  0  0  0
 54 62  1  0  0  0
 55 56  1  0  0  0
 55 63  1  0  0  0
 55 64  1  0  0  0
 56 65  1  0  0  0
 56 66  1  0  0  0
 57 58  1  0  0  0
 58 67  1  0  0  0
 58 68  1  0  0  0
 58 69  1  0  0  0
 59 70  1  0  0  0
 59 71  1  0  0  0
M  CHG  1  53   1
M  END
> <s_m_entry_id>
86

> <s_m_entry_name>
000000086.1

> <s_m_Source_Path>
/Users/zaksoul/Documents/2

> <s_m_Source_File>
000000086.mol2

> <i_m_Source_File_Index>
1

$$$$
No_0_97
                    3D
 Schrodinger Suite 2022-4.
 71 77  0  0  1  0            999 V2000
   -5.4200    3.3200  -21.7450 C   0  0  0  0  0  0
   -5.6810    3.4980  -23.0830 C   0  0  0  0  0  0
   -4.1810    3.0820  -21.3960 C   0  0  0  0  0  0
   -3.2790    3.2070  -23.5570 C   0  0  0  0  0  0
   -3.1240    2.9720  -22.1340 C   0  0  0  0  0  0
   -4.6260    3.4520  -24.0870 C   0  0  0  0  0  0
   -3.8580    3.4700  -26.2810 C   0  0  0  0  0  0
    5.8470    2.8710  -20.9550 C   0  0  0  0  0  0
    5.7220    2.9980  -23.5060 C   0  0  0  0  0  0
   -4.8710    3.5690  -25.4240 C   0  0  0  0  0  0
    1.9320    3.5040  -23.5480 C   0  0  0  0  0  0
    1.0970    4.6050  -23.2600 C   0  0  0  0  0  0
    2.8780    5.8250  -22.5760 C   0  0  0  0  0  0
    3.3280    3.7120  -23.2280 C   0  0  0  0  0  0
    1.4020    2.3780  -24.2070 C   0  0  0  0  0  0
   -0.7350    3.1680  -24.1130 C   0  0  0  0  0  0
   -0.2250    4.3970  -23.5170 C   0  0  0  0  0  0
   -2.1860    3.1560  -24.4760 C   0  0  0  0  0  0
    3.9590    1.2230  -22.9190 C   0  0  0  0  0  0
    4.8900    0.8840  -21.7650 C   0  0  2  0  0  0
    6.4690    2.4390  -22.3010 C   0  0  2  0  0  0
    4.8540    1.8910  -20.6040 C   0  0  0  0  0  0
   -2.5050    3.3050  -25.9060 C   0  0  0  0  0  0
   -1.7780    2.5760  -21.5250 C   0  0  0  0  0  0
   -0.7470    2.2430  -21.0120 C   0  0  0  0  0  0
   -1.0810    5.4350  -23.1830 F   0  0  0  0  0  0
   -3.9760    2.8490  -20.0110 F   0  0  0  0  0  0
    1.5580    5.7720  -22.7320 N   0  0  0  0  0  0
    3.7860    4.8710  -22.7860 N   0  0  0  0  0  0
    0.0980    2.2720  -24.5190 N   0  0  0  0  0  0
    4.2590    2.6740  -23.3940 N   0  0  0  0  0  0
    6.2990    0.9640  -22.2400 N   0  0  1  0  0  0
   -4.0230    3.4750  -27.6720 O   0  0  0  0  0  0
   -6.2269    3.3782  -21.0234 H   0  0  0  0  0  0
   -6.6956    3.6806  -23.4182 H   0  0  0  0  0  0
    5.3664    3.8534  -21.0731 H   0  0  0  0  0  0
    6.6292    2.8942  -20.1819 H   0  0  0  0  0  0
    6.1266    2.5531  -24.4271 H   0  0  0  0  0  0
    5.8531    4.0895  -23.5443 H   0  0  0  0  0  0
   -5.8812    3.7416  -25.7771 H   0  0  0  0  0  0
    2.0516    1.5547  -24.4811 H   0  0  0  0  0  0
    2.9148    1.1563  -22.5797 H   0  0  0  0  0  0
    4.1335    0.5229  -23.7493 H   0  0  0  0  0  0
    4.6752   -0.1286  -21.3928 H   0  0  0  0  0  0
    7.5349    2.7075  -22.3434 H   0  0  0  0  0  0
    3.8651    2.3713  -20.5687 H   0  0  0  0  0  0
    5.1547    1.3854  -19.6745 H   0  0  0  0  0  0
   -1.7311    3.2899  -26.6649 H   0  0  0  0  0  0
    0.1610    1.9490  -20.5600 H   0  0  0  0  0  0
    6.9477    0.4767  -21.5272 H   0  0  0  0  0  0
   -3.1746    3.3948  -28.0918 H   0  0  0  0  0  0
    5.3910    8.6450  -22.1830 N   0  0  0  0  0  0
    6.3690   10.1680  -20.9770 N   0  3  0  0  0  0
    3.4200    7.1720  -22.1120 C   0  0  0  0  0  0
    5.8820   10.9350  -22.1130 C   0  0  0  0  0  0
    5.1980    9.8410  -22.9880 C   0  0  0  0  0  0
    6.0640    8.8820  -21.0650 C   0  0  0  0  0  0
    6.4500    7.8650  -20.0190 C   0  0  0  0  0  0
    4.8690    7.3530  -22.5920 C   0  0  0  0  0  0
    6.8959   10.5180  -20.1641 H   0  0  0  0  0  0
    2.7950    7.9790  -22.5220 H   0  0  0  0  0  0
    3.3890    7.2210  -21.0135 H   0  0  0  0  0  0
    6.7388   11.3529  -22.6619 H   0  0  0  0  0  0
    5.1218   11.6512  -21.7679 H   0  0  0  0  0  0
    4.1222   10.0580  -23.0620 H   0  0  0  0  0  0
    5.7517    9.7351  -23.9325 H   0  0  0  0  0  0
    7.0019    8.3629  -19.2081 H   0  0  0  0  0  0
    5.5429    7.3970  -19.6090 H   0  0  0  0  0  0
    7.0871    7.0929  -20.4751 H   0  0  0  0  0  0
    5.4968    6.5543  -22.1702 H   0  0  0  0  0  0
    4.9040    7.2730  -23.6885 H   0  0  0  0  0  0
  1  2  2  0  0  0
  1  3  1  0  0  0
  1 34  1  0  0  0
  2  6  1  0  0  0
  2 35  1  0  0  0
  3  5  2  0  0  0
  3 27  1  0  0  0
  4  5  1  0  0  0
  4  6  2  0  0  0
  4 18  1  0  0  0
  5 24  1  0  0  0
  6 10  1  0  0  0
  7 10  2  0  0  0
  7 23  1  0  0  0
  7 33  1  0  0  0
  8 21  1  0  0  0
  8 22  1  0  0  0
  8 36  1  0  0  0
  8 37  1  0  0  0
  9 21  1  0  0  0
  9 31  1  0  0  0
  9 38  1  0  0  0
  9 39  1  0  0  0
 10 40  1  0  0  0
 11 12  1  0  0  0
 11 14  2  0  0  0
 11 15  1  0  0  0
 12 17  1  0  0  0
 12 28  2  0  0  0
 13 28  1  0  0  0
 13 29  2  0  0  0
 13 54  1  0  0  0
 14 29  1  0  0  0
 14 31  1  0  0  0
 15 30  2  0  0  0
 15 41  1  0  0  0
 16 17  2  0  0  0
 16 18  1  0  0  0
 16 30  1  0  0  0
 17 26  1  0  0  0
 18 23  2  0  0  0
 19 20  1  0  0  0
 19 31  1  0  0  0
 19 42  1  0  0  0
 19 43  1  0  0  0
 20 22  1  0  0  0
 20 32  1  0  0  0
 20 44  1  0  0  0
 21 32  1  0  0  0
 21 45  1  0  0  0
 22 46  1  0  0  0
 22 47  1  0  0  0
 23 48  1  0  0  0
 24 25  3  0  0  0
 25 49  1  0  0  0
 32 50  1  0  0  0
 33 51  1  0  0  0
 52 56  1  0  0  0
 52 57  1  0  0  0
 52 59  1  0  0  0
 53 55  1  0  0  0
 53 57  2  0  0  0
 53 60  1  0  0  0
 54 59  1  0  0  0
 54 61  1  0  0  0
 54 62  1  0  0  0
 55 56  1  0  0  0
 55 63  1  0  0  0
 55 64  1  0  0  0
 56 65  1  0  0  0
 56 66  1  0  0  0
 57 58  1  0  0  0
 58 67  1  0  0  0
 58 68  1  0  0  0
 58 69  1  0  0  0
 59 70  1  0  0  0
 59 71  1  0  0  0
M  CHG  1  53   1
M  END
> <s_m_entry_id>
87

> <s_m_entry_name>
000000087.1

> <s_m_Source_Path>
/Users/zaksoul/Documents/2

> <s_m_Source_File>
000000087.mol2

> <i_m_Source_File_Index>
1

$$$$
No_0_98
                    3D
 Schrodinger Suite 2022-4.
 71 77  0  0  1  0            999 V2000
   -5.2850    3.1860  -21.8610 C   0  0  0  0  0  0
   -5.5360    3.4140  -23.1930 C   0  0  0  0  0  0
   -4.0450    2.9600  -21.5080 C   0  0  0  0  0  0
   -3.1240    3.1920  -23.6520 C   0  0  0  0  0  0
   -2.9780    2.9020  -22.2390 C   0  0  0  0  0  0
   -4.4710    3.4310  -24.1870 C   0  0  0  0  0  0
   -3.6820    3.5550  -26.3690 C   0  0  0  0  0  0
    5.9810    2.9420  -20.9690 C   0  0  0  0  0  0
    5.8780    3.1710  -23.5140 C   0  0  0  0  0  0
   -4.7050    3.5980  -25.5210 C   0  0  0  0  0  0
    2.0790    3.5990  -23.5760 C   0  0  0  0  0  0
    1.2180    4.6690  -23.2520 C   0  0  0  0  0  0
    2.9650    5.8960  -22.5000 C   0  0  0  0  0  0
    3.4670    3.8220  -23.2330 C   0  0  0  0  0  0
    1.5790    2.4890  -24.2850 C   0  0  0  0  0  0
   -0.5750    3.2300  -24.1820 C   0  0  0  0  0  0
   -0.0970    4.4440  -23.5320 C   0  0  0  0  0  0
   -2.0210    3.2030  -24.5610 C   0  0  0  0  0  0
    4.1480    1.3360  -23.0190 C   0  0  0  0  0  0
    5.0750    0.9690  -21.8700 C   0  0  2  0  0  0
    6.6250    2.5780  -22.3250 C   0  0  2  0  0  0
    5.0060    1.9270  -20.6690 C   0  0  0  0  0  0
   -2.3290    3.4030  -25.9880 C   0  0  0  0  0  0
   -1.6310    2.5110  -21.6330 C   0  0  0  0  0  0
   -0.5970    2.1780  -21.1220 C   0  0  0  0  0  0
   -0.9780    5.4490  -23.1650 F   0  0  0  0  0  0
   -3.8480    2.6750  -20.1320 F   0  0  0  0  0  0
    1.6490    5.8230  -22.6720 N   0  0  0  0  0  0
    3.8960    4.9710  -22.7390 N   0  0  0  0  0  0
    0.2810    2.3690  -24.6160 N   0  0  0  0  0  0
    4.4210    2.8110  -23.4310 N   0  0  0  0  0  0
    6.4860    1.0980  -22.3260 N   0  0  1  0  0  0
   -3.8330    3.6140  -27.7610 O   0  0  0  0  0  0
   -6.1000    3.1980  -21.1464 H   0  0  0  0  0  0
   -6.5509    3.5887  -23.5313 H   0  0  0  0  0  0
    5.4804    3.9180  -21.0518 H   0  0  0  0  0  0
    6.7542    2.9491  -20.1867 H   0  0  0  0  0  0
    6.3019    2.7724  -24.4475 H   0  0  0  0  0  0
    5.9871    4.2656  -23.5059 H   0  0  0  0  0  0
   -5.7154    3.7627  -25.8775 H   0  0  0  0  0  0
    2.2489    1.6917  -24.5859 H   0  0  0  0  0  0
    3.1024    1.2341  -22.6930 H   0  0  0  0  0  0
    4.3458    0.6739  -23.8749 H   0  0  0  0  0  0
    4.8773   -0.0619  -21.5412 H   0  0  0  0  0  0
    7.6852    2.8705  -22.3442 H   0  0  0  0  0  0
    4.0066    2.3843  -20.6246 H   0  0  0  0  0  0
    5.3078    1.3901  -19.7576 H   0  0  0  0  0  0
   -1.5469    3.4351  -26.7379 H   0  0  0  0  0  0
    0.3122    1.8849  -20.6719 H   0  0  0  0  0  0
    7.1384    0.5964  -21.6266 H   0  0  0  0  0  0
   -2.9792    3.5684  -28.1750 H   0  0  0  0  0  0
    5.2800    8.8930  -22.2000 N   0  0  0  0  0  0
    6.3340   10.3700  -21.0010 N   0  3  0  0  0  0
    3.4740    7.2350  -21.9750 C   0  0  0  0  0  0
    5.5940   11.2000  -21.9390 C   0  0  0  0  0  0
    4.8530   10.1420  -22.8110 C   0  0  0  0  0  0
    6.1200    9.0770  -21.1900 C   0  0  0  0  0  0
    6.7650    7.9990  -20.3530 C   0  0  0  0  0  0
    4.7960    7.6050  -22.6660 C   0  0  0  0  0  0
    6.9669   10.6830  -20.2511 H   0  0  0  0  0  0
    2.7248    8.0152  -22.1750 H   0  0  0  0  0  0
    3.6350    7.1650  -20.8891 H   0  0  0  0  0  0
    6.3039   11.7549  -22.5699 H   0  0  0  0  0  0
    4.8528   11.7982  -21.3888 H   0  0  0  0  0  0
    3.7675   10.2591  -22.6769 H   0  0  0  0  0  0
    5.2360   10.1900  -23.8410 H   0  0  0  0  0  0
    7.4112    8.4621  -19.5928 H   0  0  0  0  0  0
    5.9843    7.4042  -19.8562 H   0  0  0  0  0  0
    7.3694    7.3446  -20.9984 H   0  0  0  0  0  0
    5.5502    6.8328  -22.4540 H   0  0  0  0  0  0
    4.6421    7.6450  -23.7544 H   0  0  0  0  0  0
  1  2  2  0  0  0
  1  3  1  0  0  0
  1 34  1  0  0  0
  2  6  1  0  0  0
  2 35  1  0  0  0
  3  5  2  0  0  0
  3 27  1  0  0  0
  4  5  1  0  0  0
  4  6  2  0  0  0
  4 18  1  0  0  0
  5 24  1  0  0  0
  6 10  1  0  0  0
  7 10  2  0  0  0
  7 23  1  0  0  0
  7 33  1  0  0  0
  8 21  1  0  0  0
  8 22  1  0  0  0
  8 36  1  0  0  0
  8 37  1  0  0  0
  9 21  1  0  0  0
  9 31  1  0  0  0
  9 38  1  0  0  0
  9 39  1  0  0  0
 10 40  1  0  0  0
 11 12  1  0  0  0
 11 14  2  0  0  0
 11 15  1  0  0  0
 12 17  1  0  0  0
 12 28  2  0  0  0
 13 28  1  0  0  0
 13 29  2  0  0  0
 13 54  1  0  0  0
 14 29  1  0  0  0
 14 31  1  0  0  0
 15 30  2  0  0  0
 15 41  1  0  0  0
 16 17  2  0  0  0
 16 18  1  0  0  0
 16 30  1  0  0  0
 17 26  1  0  0  0
 18 23  2  0  0  0
 19 20  1  0  0  0
 19 31  1  0  0  0
 19 42  1  0  0  0
 19 43  1  0  0  0
 20 22  1  0  0  0
 20 32  1  0  0  0
 20 44  1  0  0  0
 21 32  1  0  0  0
 21 45  1  0  0  0
 22 46  1  0  0  0
 22 47  1  0  0  0
 23 48  1  0  0  0
 24 25  3  0  0  0
 25 49  1  0  0  0
 32 50  1  0  0  0
 33 51  1  0  0  0
 52 56  1  0  0  0
 52 57  1  0  0  0
 52 59  1  0  0  0
 53 55  1  0  0  0
 53 57  2  0  0  0
 53 60  1  0  0  0
 54 59  1  0  0  0
 54 61  1  0  0  0
 54 62  1  0  0  0
 55 56  1  0  0  0
 55 63  1  0  0  0
 55 64  1  0  0  0
 56 65  1  0  0  0
 56 66  1  0  0  0
 57 58  1  0  0  0
 58 67  1  0  0  0
 58 68  1  0  0  0
 58 69  1  0  0  0
 59 70  1  0  0  0
 59 71  1  0  0  0
M  CHG  1  53   1
M  END
> <s_m_entry_id>
88

> <s_m_entry_name>
000000088.1

> <s_m_Source_Path>
/Users/zaksoul/Documents/2

> <s_m_Source_File>
000000088.mol2

> <i_m_Source_File_Index>
1

$$$$
No_0_99
                    3D
 Schrodinger Suite 2022-4.
 72 78  0  0  1  0            999 V2000
   -5.2050    3.2850  -22.0460 C   0  0  0  0  0  0
   -5.4820    3.4350  -23.3840 C   0  0  0  0  0  0
   -3.9560    3.0890  -21.7050 C   0  0  0  0  0  0
   -3.0770    3.2050  -23.8760 C   0  0  0  0  0  0
   -2.9030    2.9970  -22.4520 C   0  0  0  0  0  0
   -4.4360    3.4020  -24.3970 C   0  0  0  0  0  0
   -3.6890    3.4080  -26.5980 C   0  0  0  0  0  0
    6.0780    3.1720  -21.3570 C   0  0  0  0  0  0
    5.9260    3.2550  -23.9080 C   0  0  0  0  0  0
   -4.6960    3.4920  -25.7340 C   0  0  0  0  0  0
    2.1220    3.6520  -23.9220 C   0  0  0  0  0  0
    1.2590    4.7330  -23.6430 C   0  0  0  0  0  0
    3.0100    6.0130  -22.9960 C   0  0  0  0  0  0
    3.5150    3.9050  -23.6190 C   0  0  0  0  0  0
    1.6190    2.5000  -24.5580 C   0  0  0  0  0  0
   -0.5390    3.2300  -24.4560 C   0  0  0  0  0  0
   -0.0590    4.4830  -23.8850 C   0  0  0  0  0  0
   -1.9920    3.1710  -24.8050 C   0  0  0  0  0  0
    4.2200    1.4400  -23.2770 C   0  0  0  0  0  0
    5.1710    1.1460  -22.1270 C   0  0  2  0  0  0
    6.7000    2.7370  -22.7020 C   0  0  2  0  0  0
    5.1170    2.1700  -20.9810 C   0  0  0  0  0  0
   -2.3280    3.2870  -26.2340 C   0  0  0  0  0  0
   -1.5410    2.6500  -21.8500 C   0  0  0  0  0  0
   -0.4960    2.3540  -21.3410 C   0  0  0  0  0  0
   -0.9410    5.5010  -23.5590 F   0  0  0  0  0  0
   -3.7320    2.8840  -20.3190 F   0  0  0  0  0  0
    1.6910    5.9210  -23.1380 N   0  0  0  0  0  0
    3.9430    5.0830  -23.1990 N   0  0  0  0  0  0
    0.3160    2.3520  -24.8560 N   0  0  0  0  0  0
    4.4730    2.8910  -23.7770 N   0  0  0  0  0  0
    6.5720    1.2580  -22.6160 N   0  0  1  0  0  0
   -3.8670    3.3860  -27.9880 O   0  0  0  0  0  0
   -6.0066    3.3322  -21.3178 H   0  0  0  0  0  0
   -6.5046    3.5825  -23.7121 H   0  0  0  0  0  0
    5.5678    4.1380  -21.4851 H   0  0  0  0  0  0
    6.8652    3.2305  -20.5910 H   0  0  0  0  0  0
    6.3345    2.8071  -24.8259 H   0  0  0  0  0  0
    6.0249    4.3491  -23.9645 H   0  0  0  0  0  0
   -5.7142    3.6284  -26.0801 H   0  0  0  0  0  0
    2.2894    1.6911  -24.8250 H   0  0  0  0  0  0
    3.1815    1.3492  -22.9258 H   0  0  0  0  0  0
    4.4077    0.7316  -24.0974 H   0  0  0  0  0  0
    4.9884    0.1340  -21.7365 H   0  0  0  0  0  0
    7.7574    3.0349  -22.7586 H   0  0  0  0  0  0
    4.1149    2.6221  -20.9437 H   0  0  0  0  0  0
    5.4399    1.6877  -20.0466 H   0  0  0  0  0  0
   -1.5605    3.2820  -26.9995 H   0  0  0  0  0  0
    0.4242    2.0939  -20.8929 H   0  0  0  0  0  0
    7.2413    0.8015  -21.9018 H   0  0  0  0  0  0
   -3.0206    3.3226  -28.4147 H   0  0  0  0  0  0
    8.0440    8.8140  -20.2720 N   0  0  0  0  0  0
    4.4170    8.7560  -20.6640 N   0  0  0  0  0  0
    5.2350   10.2710  -22.9030 N   0  0  0  0  0  0
    3.5170    7.3830  -22.5580 C   0  0  0  0  0  0
    5.7720    9.0250  -20.9000 C   0  0  0  0  0  0
    3.8790    7.4460  -21.0610 C   0  0  0  0  0  0
    7.5200   10.0590  -22.2040 C   0  0  0  0  0  0
    6.1660    9.7940  -22.0080 C   0  0  3  0  0  0
    6.7230    8.5450  -20.0510 C   0  0  0  0  0  0
    8.4390    9.5680  -21.3360 C   0  0  0  0  0  0
    8.7586    8.4452  -19.6284 H   0  0  0  0  0  0
    3.8187    9.4683  -20.2218 H   0  0  0  0  0  0
    5.5372   10.8344  -23.7106 H   0  0  0  0  0  0
    4.2352   10.0660  -22.7640 H   0  0  0  0  0  0
    4.3974    7.6561  -23.1583 H   0  0  0  0  0  0
    2.7545    8.1435  -22.7819 H   0  0  0  0  0  0
    2.9863    7.2201  -20.4592 H   0  0  0  0  0  0
    4.6160    6.6630  -20.8290 H   0  0  0  0  0  0
    7.8379   10.6579  -23.0498 H   0  0  0  0  0  0
    6.4269    7.9469  -19.1968 H   0  0  0  0  0  0
    9.4913    9.7771  -21.4910 H   0  0  0  0  0  0
  1  2  2  0  0  0
  1  3  1  0  0  0
  1 34  1  0  0  0
  2  6  1  0  0  0
  2 35  1  0  0  0
  3  5  2  0  0  0
  3 27  1  0  0  0
  4  5  1  0  0  0
  4  6  2  0  0  0
  4 18  1  0  0  0
  5 24  1  0  0  0
  6 10  1  0  0  0
  7 10  2  0  0  0
  7 23  1  0  0  0
  7 33  1  0  0  0
  8 21  1  0  0  0
  8 22  1  0  0  0
  8 36  1  0  0  0
  8 37  1  0  0  0
  9 21  1  0  0  0
  9 31  1  0  0  0
  9 38  1  0  0  0
  9 39  1  0  0  0
 10 40  1  0  0  0
 11 12  2  0  0  0
 11 14  1  0  0  0
 11 15  1  0  0  0
 12 17  1  0  0  0
 12 28  1  0  0  0
 13 28  2  0  0  0
 13 29  1  0  0  0
 13 55  1  0  0  0
 14 29  2  0  0  0
 14 31  1  0  0  0
 15 30  2  0  0  0
 15 41  1  0  0  0
 16 17  2  0  0  0
 16 18  1  0  0  0
 16 30  1  0  0  0
 17 26  1  0  0  0
 18 23  2  0  0  0
 19 20  1  0  0  0
 19 31  1  0  0  0
 19 42  1  0  0  0
 19 43  1  0  0  0
 20 22  1  0  0  0
 20 32  1  0  0  0
 20 44  1  0  0  0
 21 32  1  0  0  0
 21 45  1  0  0  0
 22 46  1  0  0  0
 22 47  1  0  0  0
 23 48  1  0  0  0
 24 25  3  0  0  0
 25 49  1  0  0  0
 32 50  1  0  0  0
 33 51  1  0  0  0
 52 60  1  0  0  0
 52 61  1  0  0  0
 52 62  1  0  0  0
 53 56  1  0  0  0
 53 57  1  0  0  0
 53 63  1  0  0  0
 54 59  1  0  0  0
 54 64  1  0  0  0
 54 65  1  0  0  0
 55 57  1  0  0  0
 55 66  1  0  0  0
 55 67  1  0  0  0
 56 59  1  0  0  0
 56 60  2  0  0  0
 57 68  1  0  0  0
 57 69  1  0  0  0
 58 59  1  0  0  0
 58 61  2  0  0  0
 58 70  1  0  0  0
 60 71  1  0  0  0
 61 72  1  0  0  0
M  END
> <s_m_entry_id>
89

> <s_m_entry_name>
000000089.1

> <s_m_Source_Path>
/Users/zaksoul/Documents/2

> <s_m_Source_File>
000000089.mol2

> <i_m_Source_File_Index>
1

$$$$
No_0_100
                    3D
 Schrodinger Suite 2022-4.
 72 78  0  0  1  0            999 V2000
   -5.4090    3.5660  -22.2470 C   0  0  0  0  0  0
   -5.6180    3.7210  -23.5970 C   0  0  0  0  0  0
   -4.1860    3.3250  -21.8470 C   0  0  0  0  0  0
   -3.2030    3.4010  -23.9750 C   0  0  0  0  0  0
   -3.1030    3.1920  -22.5430 C   0  0  0  0  0  0
   -4.5270    3.6470  -24.5590 C   0  0  0  0  0  0
   -3.6780    3.6170  -26.7230 C   0  0  0  0  0  0
    5.8170    3.0400  -21.0290 C   0  0  0  0  0  0
    5.7880    3.1200  -23.5840 C   0  0  0  0  0  0
   -4.7210    3.7410  -25.9070 C   0  0  0  0  0  0
    2.0060    3.6560  -23.7770 C   0  0  0  0  0  0
    1.1710    4.7690  -23.5410 C   0  0  0  0  0  0
    2.9360    5.9870  -22.8140 C   0  0  0  0  0  0
    3.3920    3.8590  -23.4090 C   0  0  0  0  0  0
    1.4910    2.5220  -24.4340 C   0  0  0  0  0  0
   -0.6400    3.3310  -24.4350 C   0  0  0  0  0  0
   -0.1420    4.5670  -23.8440 C   0  0  0  0  0  0
   -2.0770    3.3240  -24.8510 C   0  0  0  0  0  0
    3.9890    1.3710  -23.0310 C   0  0  0  0  0  0
    4.8730    1.0450  -21.8370 C   0  0  2  0  0  0
    6.4850    2.5770  -22.3420 C   0  0  2  0  0  0
    4.8030    2.0750  -20.6960 C   0  0  0  0  0  0
   -2.3410    3.4480  -26.2950 C   0  0  0  0  0  0
   -1.7840    2.7970  -21.8770 C   0  0  0  0  0  0
   -0.7760    2.4650  -21.3200 C   0  0  0  0  0  0
   -1.0000    5.6180  -23.5610 F   0  0  0  0  0  0
   -4.0350    3.1160  -20.4510 F   0  0  0  0  0  0
    1.6230    5.9420  -23.0180 N   0  0  0  0  0  0
    3.8430    5.0210  -22.9720 N   0  0  0  0  0  0
    0.1990    2.4210  -24.7930 N   0  0  0  0  0  0
    4.3190    2.8100  -23.5210 N   0  0  0  0  0  0
    6.2990    1.1050  -22.2600 N   0  0  1  0  0  0
   -3.7910    3.5980  -28.1190 O   0  0  0  0  0  0
   -6.2410    3.6443  -21.5565 H   0  0  0  0  0  0
   -6.6181    3.9048  -23.9725 H   0  0  0  0  0  0
    5.3498    4.0239  -21.1824 H   0  0  0  0  0  0
    6.5694    3.0713  -20.2272 H   0  0  0  0  0  0
    6.2229    2.6549  -24.4810 H   0  0  0  0  0  0
    5.9302    4.2095  -23.6375 H   0  0  0  0  0  0
   -5.7160    3.9147  -26.3006 H   0  0  0  0  0  0
    2.1431    1.6883  -24.6678 H   0  0  0  0  0  0
    2.9324    1.3195  -22.7293 H   0  0  0  0  0  0
    4.1879    0.6533  -23.8406 H   0  0  0  0  0  0
    4.6358    0.0417  -21.4534 H   0  0  0  0  0  0
    7.5540    2.8364  -22.3491 H   0  0  0  0  0  0
    3.8176    2.5637  -20.7071 H   0  0  0  0  0  0
    5.0643    1.5847  -19.7466 H   0  0  0  0  0  0
   -1.5392    3.4119  -27.0236 H   0  0  0  0  0  0
    0.1115    2.1722  -20.8283 H   0  0  0  0  0  0
    6.9169    0.6261  -21.5149 H   0  0  0  0  0  0
   -2.9284    3.5019  -28.5052 H   0  0  0  0  0  0
    8.4000    8.9530  -21.4150 N   0  0  0  0  0  0
    4.8530    8.5550  -20.6540 N   0  0  0  0  0  0
    4.8020   10.4140  -22.7790 N   0  0  0  0  0  0
    3.4720    7.3380  -22.3550 C   0  0  0  0  0  0
    6.0390    8.9950  -21.2600 C   0  0  0  0  0  0
    4.2980    7.2540  -21.0550 C   0  0  0  0  0  0
    7.1990   10.3640  -22.8730 C   0  0  0  0  0  0
    6.0020    9.9330  -22.3050 C   0  0  3  0  0  0
    7.2420    8.5190  -20.8350 C   0  0  0  0  0  0
    8.3790    9.8710  -22.4220 C   0  0  0  0  0  0
    9.3067    8.5861  -21.0921 H   0  0  0  0  0  0
    4.3897    9.1394  -19.9435 H   0  0  0  0  0  0
    4.7900   11.1017  -23.5457 H   0  0  0  0  0  0
    3.9166   10.0868  -22.3668 H   0  0  0  0  0  0
    4.0905    7.7757  -23.1524 H   0  0  0  0  0  0
    2.6328    8.0342  -22.2100 H   0  0  0  0  0  0
    3.6660    6.8610  -20.2450 H   0  0  0  0  0  0
    5.1170    6.5320  -21.1890 H   0  0  0  0  0  0
    7.1870   11.0931  -23.6751 H   0  0  0  0  0  0
    7.2780    7.7919  -20.0319 H   0  0  0  0  0  0
    9.3083   10.2091  -22.8661 H   0  0  0  0  0  0
  1  2  2  0  0  0
  1  3  1  0  0  0
  1 34  1  0  0  0
  2  6  1  0  0  0
  2 35  1  0  0  0
  3  5  2  0  0  0
  3 27  1  0  0  0
  4  5  1  0  0  0
  4  6  2  0  0  0
  4 18  1  0  0  0
  5 24  1  0  0  0
  6 10  1  0  0  0
  7 10  2  0  0  0
  7 23  1  0  0  0
  7 33  1  0  0  0
  8 21  1  0  0  0
  8 22  1  0  0  0
  8 36  1  0  0  0
  8 37  1  0  0  0
  9 21  1  0  0  0
  9 31  1  0  0  0
  9 38  1  0  0  0
  9 39  1  0  0  0
 10 40  1  0  0  0
 11 12  2  0  0  0
 11 14  1  0  0  0
 11 15  1  0  0  0
 12 17  1  0  0  0
 12 28  1  0  0  0
 13 28  2  0  0  0
 13 29  1  0  0  0
 13 55  1  0  0  0
 14 29  2  0  0  0
 14 31  1  0  0  0
 15 30  2  0  0  0
 15 41  1  0  0  0
 16 17  2  0  0  0
 16 18  1  0  0  0
 16 30  1  0  0  0
 17 26  1  0  0  0
 18 23  2  0  0  0
 19 20  1  0  0  0
 19 31  1  0  0  0
 19 42  1  0  0  0
 19 43  1  0  0  0
 20 22  1  0  0  0
 20 32  1  0  0  0
 20 44  1  0  0  0
 21 32  1  0  0  0
 21 45  1  0  0  0
 22 46  1  0  0  0
 22 47  1  0  0  0
 23 48  1  0  0  0
 24 25  3  0  0  0
 25 49  1  0  0  0
 32 50  1  0  0  0
 33 51  1  0  0  0
 52 60  1  0  0  0
 52 61  1  0  0  0
 52 62  1  0  0  0
 53 56  1  0  0  0
 53 57  1  0  0  0
 53 63  1  0  0  0
 54 59  1  0  0  0
 54 64  1  0  0  0
 54 65  1  0  0  0
 55 57  1  0  0  0
 55 66  1  0  0  0
 55 67  1  0  0  0
 56 59  1  0  0  0
 56 60  2  0  0  0
 57 68  1  0  0  0
 57 69  1  0  0  0
 58 59  1  0  0  0
 58 61  2  0  0  0
 58 70  1  0  0  0
 60 71  1  0  0  0
 61 72  1  0  0  0
M  END
> <s_m_entry_id>
90

> <s_m_entry_name>
000000090.1

> <s_m_Source_Path>
/Users/zaksoul/Documents/2

> <s_m_Source_File>
000000090.mol2

> <i_m_Source_File_Index>
1

$$$$
No_0_101
                    3D
 Schrodinger Suite 2022-4.
 72 78  0  0  1  0            999 V2000
   -5.1160    3.5070  -22.3090 C   0  0  0  0  0  0
   -5.3630    3.6880  -23.6500 C   0  0  0  0  0  0
   -3.8770    3.2950  -21.9440 C   0  0  0  0  0  0
   -2.9490    3.4510  -24.0930 C   0  0  0  0  0  0
   -2.8080    3.2110  -22.6690 C   0  0  0  0  0  0
   -4.2940    3.6700  -24.6390 C   0  0  0  0  0  0
   -3.4980    3.7180  -26.8230 C   0  0  0  0  0  0
    6.1470    3.2990  -21.3710 C   0  0  0  0  0  0
    6.0530    3.4380  -23.9220 C   0  0  0  0  0  0
   -4.5240    3.7900  -25.9790 C   0  0  0  0  0  0
    2.2530    3.8620  -24.0130 C   0  0  0  0  0  0
    1.3910    4.9430  -23.7290 C   0  0  0  0  0  0
    3.1360    6.1960  -23.0150 C   0  0  0  0  0  0
    3.6400    4.0980  -23.6720 C   0  0  0  0  0  0
    1.7570    2.7280  -24.6840 C   0  0  0  0  0  0
   -0.3980    3.4710  -24.6150 C   0  0  0  0  0  0
    0.0770    4.7080  -24.0060 C   0  0  0  0  0  0
   -1.8430    3.4300  -24.9970 C   0  0  0  0  0  0
    4.3220    1.6210  -23.3690 C   0  0  0  0  0  0
    5.2440    1.2960  -22.2050 C   0  0  2  0  0  0
    6.7960    2.8880  -22.7100 C   0  0  2  0  0  0
    5.1710    2.2950  -21.0380 C   0  0  0  0  0  0
   -2.1460    3.5800  -26.4310 C   0  0  0  0  0  0
   -1.4620    2.8420  -22.0450 C   0  0  0  0  0  0
   -0.4310    2.5280  -21.5190 C   0  0  0  0  0  0
   -0.8050    5.7250  -23.6770 F   0  0  0  0  0  0
   -3.6860    3.0580  -20.5590 F   0  0  0  0  0  0
    1.8190    6.1170  -23.1890 N   0  0  0  0  0  0
    4.0670    5.2640  -23.2180 N   0  0  0  0  0  0
    0.4600    2.5960  -25.0150 N   0  0  0  0  0  0
    4.5950    3.0810  -23.8320 N   0  0  0  0  0  0
    6.6570    1.4090  -22.6600 N   0  0  1  0  0  0
   -3.6440    3.7280  -28.2150 O   0  0  0  0  0  0
   -5.9339    3.5441  -21.5985 H   0  0  0  0  0  0
   -6.3769    3.8506  -23.9973 H   0  0  0  0  0  0
    5.6462    4.2713  -21.4891 H   0  0  0  0  0  0
    6.9173    3.3343  -20.5865 H   0  0  0  0  0  0
    6.4788    3.0072  -24.8402 H   0  0  0  0  0  0
    6.1610    4.5323  -23.9523 H   0  0  0  0  0  0
   -5.5327    3.9426  -26.3454 H   0  0  0  0  0  0
    2.4279    1.9205  -24.9542 H   0  0  0  0  0  0
    3.2752    1.5312  -23.0433 H   0  0  0  0  0  0
    4.5229    0.9296  -24.2007 H   0  0  0  0  0  0
    5.0463    0.2770  -21.8408 H   0  0  0  0  0  0
    7.8563    3.1798  -22.7363 H   0  0  0  0  0  0
    4.1712    2.7530  -21.0138 H   0  0  0  0  0  0
    5.4698    1.7903  -20.1074 H   0  0  0  0  0  0
   -1.3616    3.5860  -27.1792 H   0  0  0  0  0  0
    0.4772    2.2509  -21.0569 H   0  0  0  0  0  0
    7.3071    0.9321  -21.9414 H   0  0  0  0  0  0
   -2.7890    3.6676  -28.6247 H   0  0  0  0  0  0
    8.3280    8.0230  -20.2040 N   0  0  0  0  0  0
    4.7960    8.7950  -20.7420 N   0  0  0  0  0  0
   10.2530    8.4290  -21.5180 N   0  0  0  0  0  0
    3.6420    7.5530  -22.5360 C   0  0  0  0  0  0
    6.1820    8.7120  -20.9330 C   0  0  0  0  0  0
    3.9780    7.6070  -21.0310 C   0  0  0  0  0  0
    8.1070    9.1560  -22.2860 C   0  0  0  0  0  0
    6.9740    8.1060  -20.0070 C   0  0  0  0  0  0
    6.7650    9.2520  -22.0900 C   0  0  0  0  0  0
    8.9000    8.5300  -21.3270 C   0  0  0  0  0  0
    8.9240    7.5710  -19.4960 H   0  0  0  0  0  0
    4.3738    9.6723  -20.4059 H   0  0  0  0  0  0
   10.6830    8.8140  -22.3711 H   0  0  0  0  0  0
   10.8391    7.9659  -20.8088 H   0  0  0  0  0  0
    4.5307    7.8369  -23.1188 H   0  0  0  0  0  0
    2.8941    8.3249  -22.7700 H   0  0  0  0  0  0
    3.0458    7.6530  -20.4489 H   0  0  0  0  0  0
    4.5339    6.7012  -20.7471 H   0  0  0  0  0  0
    8.5550    9.5660  -23.1839 H   0  0  0  0  0  0
    6.5299    7.6879  -19.1109 H   0  0  0  0  0  0
    6.1449    9.7461  -22.8292 H   0  0  0  0  0  0
  1  2  2  0  0  0
  1  3  1  0  0  0
  1 34  1  0  0  0
  2  6  1  0  0  0
  2 35  1  0  0  0
  3  5  2  0  0  0
  3 27  1  0  0  0
  4  5  1  0  0  0
  4  6  2  0  0  0
  4 18  1  0  0  0
  5 24  1  0  0  0
  6 10  1  0  0  0
  7 10  2  0  0  0
  7 23  1  0  0  0
  7 33  1  0  0  0
  8 21  1  0  0  0
  8 22  1  0  0  0
  8 36  1  0  0  0
  8 37  1  0  0  0
  9 21  1  0  0  0
  9 31  1  0  0  0
  9 38  1  0  0  0
  9 39  1  0  0  0
 10 40  1  0  0  0
 11 12  2  0  0  0
 11 14  1  0  0  0
 11 15  1  0  0  0
 12 17  1  0  0  0
 12 28  1  0  0  0
 13 28  2  0  0  0
 13 29  1  0  0  0
 13 55  1  0  0  0
 14 29  2  0  0  0
 14 31  1  0  0  0
 15 30  2  0  0  0
 15 41  1  0  0  0
 16 17  2  0  0  0
 16 18  1  0  0  0
 16 30  1  0  0  0
 17 26  1  0  0  0
 18 23  2  0  0  0
 19 20  1  0  0  0
 19 31  1  0  0  0
 19 42  1  0  0  0
 19 43  1  0  0  0
 20 22  1  0  0  0
 20 32  1  0  0  0
 20 44  1  0  0  0
 21 32  1  0  0  0
 21 45  1  0  0  0
 22 46  1  0  0  0
 22 47  1  0  0  0
 23 48  1  0  0  0
 24 25  3  0  0  0
 25 49  1  0  0  0
 32 50  1  0  0  0
 33 51  1  0  0  0
 52 59  1  0  0  0
 52 61  1  0  0  0
 52 62  1  0  0  0
 53 56  1  0  0  0
 53 57  1  0  0  0
 53 63  1  0  0  0
 54 61  1  0  0  0
 54 64  1  0  0  0
 54 65  1  0  0  0
 55 57  1  0  0  0
 55 66  1  0  0  0
 55 67  1  0  0  0
 56 59  2  0  0  0
 56 60  1  0  0  0
 57 68  1  0  0  0
 57 69  1  0  0  0
 58 60  1  0  0  0
 58 61  2  0  0  0
 58 70  1  0  0  0
 59 71  1  0  0  0
 60 72  1  0  0  0
M  END
> <s_m_entry_id>
91

> <s_m_entry_name>
000000091.1

> <s_m_Source_Path>
/Users/zaksoul/Documents/2

> <s_m_Source_File>
000000091.mol2

> <i_m_Source_File_Index>
1

$$$$
No_0_102
                    3D
 Schrodinger Suite 2022-4.
 72 78  0  0  1  0            999 V2000
   -5.2850    3.6130  -22.0180 C   0  0  0  0  0  0
   -5.5320    3.7930  -23.3590 C   0  0  0  0  0  0
   -4.0470    3.3930  -21.6550 C   0  0  0  0  0  0
   -3.1200    3.5390  -23.8040 C   0  0  0  0  0  0
   -2.9790    3.3010  -22.3800 C   0  0  0  0  0  0
   -4.4650    3.7660  -24.3500 C   0  0  0  0  0  0
   -3.6710    3.8030  -26.5340 C   0  0  0  0  0  0
    5.9780    3.3310  -21.0930 C   0  0  0  0  0  0
    5.8810    3.4660  -23.6450 C   0  0  0  0  0  0
   -4.6950    3.8840  -25.6900 C   0  0  0  0  0  0
    2.0850    3.9150  -23.7310 C   0  0  0  0  0  0
    1.2300    5.0020  -23.4490 C   0  0  0  0  0  0
    2.9840    6.2460  -22.7400 C   0  0  0  0  0  0
    3.4740    4.1430  -23.3930 C   0  0  0  0  0  0
    1.5800    2.7830  -24.4000 C   0  0  0  0  0  0
   -0.5700    3.5410  -24.3290 C   0  0  0  0  0  0
   -0.0860    4.7750  -23.7230 C   0  0  0  0  0  0
   -2.0160    3.5080  -24.7100 C   0  0  0  0  0  0
    4.1390    1.6620  -23.0860 C   0  0  0  0  0  0
    5.0600    1.3320  -21.9220 C   0  0  2  0  0  0
    6.6220    2.9130  -22.4330 C   0  0  2  0  0  0
    4.9950    2.3350  -20.7570 C   0  0  0  0  0  0
   -2.3200    3.6570  -26.1440 C   0  0  0  0  0  0
   -1.6350    2.9240  -21.7570 C   0  0  0  0  0  0
   -0.6050    2.6040  -21.2320 C   0  0  0  0  0  0
   -0.9610    5.7990  -23.3960 F   0  0  0  0  0  0
   -3.8550    3.1580  -20.2680 F   0  0  0  0  0  0
    1.6670    6.1740  -22.9120 N   0  0  0  0  0  0
    3.9090    5.3060  -22.9420 N   0  0  0  0  0  0
    0.2820    2.6590  -24.7280 N   0  0  0  0  0  0
    4.4220    3.1190  -23.5520 N   0  0  0  0  0  0
    6.4730    1.4350  -22.3790 N   0  0  1  0  0  0
   -3.8190    3.8110  -27.9270 O   0  0  0  0  0  0
   -6.1013    3.6562  -21.3061 H   0  0  0  0  0  0
   -6.5453    3.9607  -23.7055 H   0  0  0  0  0  0
    5.4838    4.3064  -21.2130 H   0  0  0  0  0  0
    6.7494    3.3633  -20.3095 H   0  0  0  0  0  0
    6.3038    3.0301  -24.5622 H   0  0  0  0  0  0
    5.9961    4.5595  -23.6773 H   0  0  0  0  0  0
   -5.7036    4.0426  -26.0543 H   0  0  0  0  0  0
    2.2450    1.9704  -24.6692 H   0  0  0  0  0  0
    3.0919    1.5793  -22.7592 H   0  0  0  0  0  0
    4.3338    0.9665  -23.9157 H   0  0  0  0  0  0
    4.8560    0.3151  -21.5554 H   0  0  0  0  0  0
    7.6840    3.1984  -22.4602 H   0  0  0  0  0  0
    3.9986    2.8004  -20.7318 H   0  0  0  0  0  0
    5.2926    1.8306  -19.8259 H   0  0  0  0  0  0
   -1.5361    3.6560  -26.8927 H   0  0  0  0  0  0
    0.3018    2.3221  -20.7701 H   0  0  0  0  0  0
    7.1208    0.9561  -21.6596 H   0  0  0  0  0  0
   -2.9646    3.7447  -28.3369 H   0  0  0  0  0  0
    8.5090    8.2270  -20.8070 N   0  0  0  0  0  0
    4.9040    8.8000  -20.6270 N   0  0  0  0  0  0
   10.1290    8.8370  -22.4190 N   0  0  0  0  0  0
    3.5000    7.6000  -22.2640 C   0  0  0  0  0  0
    6.2320    8.8200  -21.0760 C   0  0  0  0  0  0
    4.1090    7.5820  -20.8470 C   0  0  0  0  0  0
    7.8430    9.4700  -22.7230 C   0  0  0  0  0  0
    7.2140    8.2090  -20.3580 C   0  0  0  0  0  0
    6.5580    9.4670  -22.2770 C   0  0  0  0  0  0
    8.8330    8.8390  -21.9760 C   0  0  0  0  0  0
    9.2509    7.7721  -20.2561 H   0  0  0  0  0  0
    4.5070    9.6260  -20.1570 H   0  0  0  0  0  0
   10.3709    9.3019  -23.3057 H   0  0  0  0  0  0
   10.8619    8.3701  -21.8661 H   0  0  0  0  0  0
    4.2473    7.9761  -22.9782 H   0  0  0  0  0  0
    2.6817    8.3342  -22.3000 H   0  0  0  0  0  0
    3.3016    7.5320  -20.1016 H   0  0  0  0  0  0
    4.7548    6.6983  -20.7370 H   0  0  0  0  0  0
    8.0908    9.9626  -23.6563 H   0  0  0  0  0  0
    6.9689    7.7078  -19.4286 H   0  0  0  0  0  0
    5.7850    9.9650  -22.8510 H   0  0  0  0  0  0
  1  2  2  0  0  0
  1  3  1  0  0  0
  1 34  1  0  0  0
  2  6  1  0  0  0
  2 35  1  0  0  0
  3  5  2  0  0  0
  3 27  1  0  0  0
  4  5  1  0  0  0
  4  6  2  0  0  0
  4 18  1  0  0  0
  5 24  1  0  0  0
  6 10  1  0  0  0
  7 10  2  0  0  0
  7 23  1  0  0  0
  7 33  1  0  0  0
  8 21  1  0  0  0
  8 22  1  0  0  0
  8 36  1  0  0  0
  8 37  1  0  0  0
  9 21  1  0  0  0
  9 31  1  0  0  0
  9 38  1  0  0  0
  9 39  1  0  0  0
 10 40  1  0  0  0
 11 12  2  0  0  0
 11 14  1  0  0  0
 11 15  1  0  0  0
 12 17  1  0  0  0
 12 28  1  0  0  0
 13 28  2  0  0  0
 13 29  1  0  0  0
 13 55  1  0  0  0
 14 29  2  0  0  0
 14 31  1  0  0  0
 15 30  2  0  0  0
 15 41  1  0  0  0
 16 17  2  0  0  0
 16 18  1  0  0  0
 16 30  1  0  0  0
 17 26  1  0  0  0
 18 23  2  0  0  0
 19 20  1  0  0  0
 19 31  1  0  0  0
 19 42  1  0  0  0
 19 43  1  0  0  0
 20 22  1  0  0  0
 20 32  1  0  0  0
 20 44  1  0  0  0
 21 32  1  0  0  0
 21 45  1  0  0  0
 22 46  1  0  0  0
 22 47  1  0  0  0
 23 48  1  0  0  0
 24 25  3  0  0  0
 25 49  1  0  0  0
 32 50  1  0  0  0
 33 51  1  0  0  0
 52 59  1  0  0  0
 52 61  1  0  0  0
 52 62  1  0  0  0
 53 56  1  0  0  0
 53 57  1  0  0  0
 53 63  1  0  0  0
 54 61  1  0  0  0
 54 64  1  0  0  0
 54 65  1  0  0  0
 55 57  1  0  0  0
 55 66  1  0  0  0
 55 67  1  0  0  0
 56 59  2  0  0  0
 56 60  1  0  0  0
 57 68  1  0  0  0
 57 69  1  0  0  0
 58 60  1  0  0  0
 58 61  2  0  0  0
 58 70  1  0  0  0
 59 71  1  0  0  0
 60 72  1  0  0  0
M  END
> <s_m_entry_id>
92

> <s_m_entry_name>
000000092.1

> <s_m_Source_Path>
/Users/zaksoul/Documents/2

> <s_m_Source_File>
000000092.mol2

> <i_m_Source_File_Index>
1

$$$$
No_0_103
                    3D
 Schrodinger Suite 2022-4.
 72 78  0  0  1  0            999 V2000
   -5.1710    3.4990  -22.3920 C   0  0  0  0  0  0
   -5.4110    3.6530  -23.7370 C   0  0  0  0  0  0
   -3.9330    3.2920  -22.0180 C   0  0  0  0  0  0
   -2.9960    3.4030  -24.1650 C   0  0  0  0  0  0
   -2.8610    3.1920  -22.7360 C   0  0  0  0  0  0
   -4.3390    3.6130  -24.7220 C   0  0  0  0  0  0
   -3.5330    3.6140  -26.9020 C   0  0  0  0  0  0
    6.0880    3.2900  -21.4030 C   0  0  0  0  0  0
    6.0050    3.3770  -23.9570 C   0  0  0  0  0  0
   -4.5620    3.7050  -26.0650 C   0  0  0  0  0  0
    2.2060    3.8060  -24.0720 C   0  0  0  0  0  0
    1.3450    4.8940  -23.8150 C   0  0  0  0  0  0
    3.0890    6.1580  -23.1190 C   0  0  0  0  0  0
    3.5930    4.0460  -23.7310 C   0  0  0  0  0  0
    1.7100    2.6590  -24.7220 C   0  0  0  0  0  0
   -0.4430    3.4070  -24.6770 C   0  0  0  0  0  0
    0.0320    4.6550  -24.0910 C   0  0  0  0  0  0
   -1.8870    3.3610  -25.0640 C   0  0  0  0  0  0
    4.2680    1.5750  -23.3740 C   0  0  0  0  0  0
    5.1850    1.2720  -22.1990 C   0  0  2  0  0  0
    6.7420    2.8500  -22.7310 C   0  0  2  0  0  0
    5.1090    2.2950  -21.0540 C   0  0  0  0  0  0
   -2.1840    3.4820  -26.5020 C   0  0  0  0  0  0
   -1.5190    2.8330  -22.0990 C   0  0  0  0  0  0
   -0.4900    2.5280  -21.5630 C   0  0  0  0  0  0
   -0.8500    5.6800  -23.7880 F   0  0  0  0  0  0
   -3.7480    3.0840  -20.6270 F   0  0  0  0  0  0
    1.7740    6.0770  -23.2970 N   0  0  0  0  0  0
    4.0200    5.2200  -23.2990 N   0  0  0  0  0  0
    0.4150    2.5220  -25.0550 N   0  0  0  0  0  0
    4.5460    3.0240  -23.8660 N   0  0  0  0  0  0
    6.6000    1.3730  -22.6510 N   0  0  1  0  0  0
   -3.6740    3.5960  -28.2960 O   0  0  0  0  0  0
   -5.9912    3.5522  -21.6852 H   0  0  0  0  0  0
   -6.4232    3.8095  -24.0921 H   0  0  0  0  0  0
    5.5893    4.2602  -21.5443 H   0  0  0  0  0  0
    6.8559    3.3405  -20.6170 H   0  0  0  0  0  0
    6.4338    2.9260  -24.8640 H   0  0  0  0  0  0
    6.1150    4.4702  -24.0095 H   0  0  0  0  0  0
   -5.5695    3.8515  -26.4373 H   0  0  0  0  0  0
    2.3812    1.8453  -24.9718 H   0  0  0  0  0  0
    3.2196    1.4933  -23.0511 H   0  0  0  0  0  0
    4.4708    0.8658  -24.1901 H   0  0  0  0  0  0
    4.9832    0.2609  -21.8156 H   0  0  0  0  0  0
    7.8028    3.1397  -22.7593 H   0  0  0  0  0  0
    4.1099    2.7552  -21.0429 H   0  0  0  0  0  0
    5.4036    1.8098  -20.1118 H   0  0  0  0  0  0
   -1.3963    3.4710  -27.2466 H   0  0  0  0  0  0
    0.4154    2.2589  -21.0908 H   0  0  0  0  0  0
    7.2458    0.9100  -21.9196 H   0  0  0  0  0  0
   -2.8170    3.5257  -28.6998 H   0  0  0  0  0  0
    8.6890    8.3150  -21.6420 N   0  0  0  0  0  0
    5.0960    8.7510  -21.1370 N   0  0  0  0  0  0
   10.1370    9.0100  -23.3790 N   0  0  0  0  0  0
    3.5960    7.5240  -22.6660 C   0  0  0  0  0  0
    6.3770    8.8270  -21.7000 C   0  0  0  0  0  0
    4.3290    7.5080  -21.3090 C   0  0  0  0  0  0
    7.8120    9.5620  -23.4700 C   0  0  0  0  0  0
    7.4400    8.2430  -21.0820 C   0  0  0  0  0  0
    6.5720    9.5040  -22.9130 C   0  0  0  0  0  0
    8.8860    8.9570  -22.8240 C   0  0  0  0  0  0
    9.4929    7.8801  -21.1671 H   0  0  0  0  0  0
    4.7130    9.5540  -20.6180 H   0  0  0  0  0  0
   10.2830    9.4969  -24.2748 H   0  0  0  0  0  0
   10.9322    8.5629  -22.9009 H   0  0  0  0  0  0
    4.2632    7.9381  -23.4363 H   0  0  0  0  0  0
    2.7521    8.2279  -22.6170 H   0  0  0  0  0  0
    3.5933    7.4160  -20.4964 H   0  0  0  0  0  0
    5.0128    6.6472  -21.2720 H   0  0  0  0  0  0
    7.9591   10.0772  -24.4123 H   0  0  0  0  0  0
    7.2960    7.7190  -20.1440 H   0  0  0  0  0  0
    5.7339    9.9811  -23.4081 H   0  0  0  0  0  0
  1  2  2  0  0  0
  1  3  1  0  0  0
  1 34  1  0  0  0
  2  6  1  0  0  0
  2 35  1  0  0  0
  3  5  2  0  0  0
  3 27  1  0  0  0
  4  5  1  0  0  0
  4  6  2  0  0  0
  4 18  1  0  0  0
  5 24  1  0  0  0
  6 10  1  0  0  0
  7 10  2  0  0  0
  7 23  1  0  0  0
  7 33  1  0  0  0
  8 21  1  0  0  0
  8 22  1  0  0  0
  8 36  1  0  0  0
  8 37  1  0  0  0
  9 21  1  0  0  0
  9 31  1  0  0  0
  9 38  1  0  0  0
  9 39  1  0  0  0
 10 40  1  0  0  0
 11 12  2  0  0  0
 11 14  1  0  0  0
 11 15  1  0  0  0
 12 17  1  0  0  0
 12 28  1  0  0  0
 13 28  2  0  0  0
 13 29  1  0  0  0
 13 55  1  0  0  0
 14 29  2  0  0  0
 14 31  1  0  0  0
 15 30  2  0  0  0
 15 41  1  0  0  0
 16 17  2  0  0  0
 16 18  1  0  0  0
 16 30  1  0  0  0
 17 26  1  0  0  0
 18 23  2  0  0  0
 19 20  1  0  0  0
 19 31  1  0  0  0
 19 42  1  0  0  0
 19 43  1  0  0  0
 20 22  1  0  0  0
 20 32  1  0  0  0
 20 44  1  0  0  0
 21 32  1  0  0  0
 21 45  1  0  0  0
 22 46  1  0  0  0
 22 47  1  0  0  0
 23 48  1  0  0  0
 24 25  3  0  0  0
 25 49  1  0  0  0
 32 50  1  0  0  0
 33 51  1  0  0  0
 52 59  1  0  0  0
 52 61  1  0  0  0
 52 62  1  0  0  0
 53 56  1  0  0  0
 53 57  1  0  0  0
 53 63  1  0  0  0
 54 61  1  0  0  0
 54 64  1  0  0  0
 54 65  1  0  0  0
 55 57  1  0  0  0
 55 66  1  0  0  0
 55 67  1  0  0  0
 56 59  2  0  0  0
 56 60  1  0  0  0
 57 68  1  0  0  0
 57 69  1  0  0  0
 58 60  1  0  0  0
 58 61  2  0  0  0
 58 70  1  0  0  0
 59 71  1  0  0  0
 60 72  1  0  0  0
M  END
> <s_m_entry_id>
93

> <s_m_entry_name>
000000093.1

> <s_m_Source_Path>
/Users/zaksoul/Documents/2

> <s_m_Source_File>
000000093.mol2

> <i_m_Source_File_Index>
1

$$$$
No_0_104
                    3D
 Schrodinger Suite 2022-4.
 72 78  0  0  1  0            999 V2000
   -5.1460    3.5190  -21.7500 C   0  0  0  0  0  0
   -5.4320    3.7030  -23.0820 C   0  0  0  0  0  0
   -3.9010    3.2830  -21.4240 C   0  0  0  0  0  0
   -3.0380    3.4180  -23.6010 C   0  0  0  0  0  0
   -2.8560    3.1780  -22.1820 C   0  0  0  0  0  0
   -4.3960    3.6620  -24.1050 C   0  0  0  0  0  0
   -3.6690    3.6920  -26.3130 C   0  0  0  0  0  0
    6.1350    3.0930  -21.1700 C   0  0  0  0  0  0
    5.9620    3.2310  -23.7180 C   0  0  0  0  0  0
   -4.6660    3.7850  -25.4370 C   0  0  0  0  0  0
    2.1710    3.7280  -23.6880 C   0  0  0  0  0  0
    1.3390    4.8260  -23.3790 C   0  0  0  0  0  0
    3.1290    6.0460  -22.7230 C   0  0  0  0  0  0
    3.5720    3.9380  -23.3920 C   0  0  0  0  0  0
    1.6310    2.6030  -24.3410 C   0  0  0  0  0  0
   -0.5050    3.3880  -24.2040 C   0  0  0  0  0  0
    0.0130    4.6160  -23.6130 C   0  0  0  0  0  0
   -1.9630    3.3740  -24.5400 C   0  0  0  0  0  0
    4.2150    1.4490  -23.1060 C   0  0  0  0  0  0
    5.1670    1.1070  -21.9710 C   0  0  2  0  0  0
    6.7330    2.6680  -22.5290 C   0  0  2  0  0  0
    5.1510    2.1090  -20.8040 C   0  0  0  0  0  0
   -2.3080    3.5280  -25.9640 C   0  0  0  0  0  0
   -1.4990    2.7830  -21.6010 C   0  0  0  0  0  0
   -0.4580    2.4500  -21.1070 C   0  0  0  0  0  0
   -0.8390    5.6500  -23.2590 F   0  0  0  0  0  0
   -3.6690    3.0450  -20.0450 F   0  0  0  0  0  0
    1.8070    5.9920  -22.8550 N   0  0  0  0  0  0
    4.0360    5.0950  -22.9540 N   0  0  0  0  0  0
    0.3220    2.4960  -24.6290 N   0  0  0  0  0  0
    4.5020    2.9020  -23.5800 N   0  0  0  0  0  0
    6.5670    1.1920  -22.4710 N   0  0  1  0  0  0
   -3.8590    3.7030  -27.7000 O   0  0  0  0  0  0
   -5.9396    3.5722  -21.0135 H   0  0  0  0  0  0
   -6.4533    3.8838  -23.3973 H   0  0  0  0  0  0
    5.6498    4.0746  -21.2749 H   0  0  0  0  0  0
    6.9306    3.1152  -20.4107 H   0  0  0  0  0  0
    6.3506    2.7899  -24.6477 H   0  0  0  0  0  0
    6.0902    4.3229  -23.7533 H   0  0  0  0  0  0
   -5.6828    3.9566  -25.7712 H   0  0  0  0  0  0
    2.2773    1.7821  -24.6300 H   0  0  0  0  0  0
    3.1777    1.3784  -22.7468 H   0  0  0  0  0  0
    4.3754    0.7517  -23.9415 H   0  0  0  0  0  0
    4.9613    0.0925  -21.5989 H   0  0  0  0  0  0
    7.7972    2.9396  -22.5896 H   0  0  0  0  0  0
    4.1616    2.5865  -20.7485 H   0  0  0  0  0  0
    5.4700    1.6002  -19.8824 H   0  0  0  0  0  0
   -1.5481    3.5180  -26.7370 H   0  0  0  0  0  0
    0.4588    2.1561  -20.6731 H   0  0  0  0  0  0
    7.2297    0.7035  -21.7720 H   0  0  0  0  0  0
   -3.0188    3.6248  -28.1364 H   0  0  0  0  0  0
    8.8170    8.4560  -22.5220 N   0  0  0  0  0  0
    5.4740    8.5700  -21.0480 N   0  0  0  0  0  0
    9.7140    9.4260  -24.4840 N   0  0  0  0  0  0
    3.6770    7.3930  -22.2640 C   0  0  0  0  0  0
    6.5540    8.7970  -21.9130 C   0  0  0  0  0  0
    4.7470    7.2970  -21.1560 C   0  0  0  0  0  0
    7.4260    9.8100  -23.8990 C   0  0  0  0  0  0
    7.7680    8.2350  -21.6670 C   0  0  0  0  0  0
    6.3850    9.6040  -23.0490 C   0  0  0  0  0  0
    8.6610    9.2250  -23.6310 C   0  0  0  0  0  0
    9.7369    8.0361  -22.3260 H   0  0  0  0  0  0
    5.2080    9.2870  -20.3580 H   0  0  0  0  0  0
    9.5920   10.0091  -25.3242 H   0  0  0  0  0  0
   10.6276    8.9937  -24.2859 H   0  0  0  0  0  0
    4.0943    7.9314  -23.1277 H   0  0  0  0  0  0
    2.8464    8.0237  -21.9142 H   0  0  0  0  0  0
    4.2601    7.0700  -20.1961 H   0  0  0  0  0  0
    5.4540    6.4900  -21.3990 H   0  0  0  0  0  0
    7.2920   10.4259  -24.7809 H   0  0  0  0  0  0
    7.9040    7.6111  -20.7911 H   0  0  0  0  0  0
    5.4246   10.0652  -23.2491 H   0  0  0  0  0  0
  1  2  2  0  0  0
  1  3  1  0  0  0
  1 34  1  0  0  0
  2  6  1  0  0  0
  2 35  1  0  0  0
  3  5  2  0  0  0
  3 27  1  0  0  0
  4  5  1  0  0  0
  4  6  2  0  0  0
  4 18  1  0  0  0
  5 24  1  0  0  0
  6 10  1  0  0  0
  7 10  2  0  0  0
  7 23  1  0  0  0
  7 33  1  0  0  0
  8 21  1  0  0  0
  8 22  1  0  0  0
  8 36  1  0  0  0
  8 37  1  0  0  0
  9 21  1  0  0  0
  9 31  1  0  0  0
  9 38  1  0  0  0
  9 39  1  0  0  0
 10 40  1  0  0  0
 11 12  2  0  0  0
 11 14  1  0  0  0
 11 15  1  0  0  0
 12 17  1  0  0  0
 12 28  1  0  0  0
 13 28  2  0  0  0
 13 29  1  0  0  0
 13 55  1  0  0  0
 14 29  2  0  0  0
 14 31  1  0  0  0
 15 30  2  0  0  0
 15 41  1  0  0  0
 16 17  2  0  0  0
 16 18  1  0  0  0
 16 30  1  0  0  0
 17 26  1  0  0  0
 18 23  2  0  0  0
 19 20  1  0  0  0
 19 31  1  0  0  0
 19 42  1  0  0  0
 19 43  1  0  0  0
 20 22  1  0  0  0
 20 32  1  0  0  0
 20 44  1  0  0  0
 21 32  1  0  0  0
 21 45  1  0  0  0
 22 46  1  0  0  0
 22 47  1  0  0  0
 23 48  1  0  0  0
 24 25  3  0  0  0
 25 49  1  0  0  0
 32 50  1  0  0  0
 33 51  1  0  0  0
 52 59  1  0  0  0
 52 61  1  0  0  0
 52 62  1  0  0  0
 53 56  1  0  0  0
 53 57  1  0  0  0
 53 63  1  0  0  0
 54 61  1  0  0  0
 54 64  1  0  0  0
 54 65  1  0  0  0
 55 57  1  0  0  0
 55 66  1  0  0  0
 55 67  1  0  0  0
 56 59  2  0  0  0
 56 60  1  0  0  0
 57 68  1  0  0  0
 57 69  1  0  0  0
 58 60  1  0  0  0
 58 61  2  0  0  0
 58 70  1  0  0  0
 59 71  1  0  0  0
 60 72  1  0  0  0
M  END
> <s_m_entry_id>
94

> <s_m_entry_name>
000000094.1

> <s_m_Source_Path>
/Users/zaksoul/Documents/2

> <s_m_Source_File>
000000094.mol2

> <i_m_Source_File_Index>
1

$$$$
No_0_105
                    3D
 Schrodinger Suite 2022-4.
 72 78  0  0  1  0            999 V2000
   -5.3010    3.3520  -22.1210 C   0  0  0  0  0  0
   -5.5430    3.5390  -23.4610 C   0  0  0  0  0  0
   -4.0640    3.1320  -21.7540 C   0  0  0  0  0  0
   -3.1300    3.2950  -23.8990 C   0  0  0  0  0  0
   -2.9930    3.0480  -22.4760 C   0  0  0  0  0  0
   -4.4720    3.5210  -24.4480 C   0  0  0  0  0  0
   -3.6700    3.5760  -26.6290 C   0  0  0  0  0  0
    5.9580    3.0920  -21.1540 C   0  0  0  0  0  0
    5.8720    3.2430  -23.7050 C   0  0  0  0  0  0
   -4.6980    3.6480  -25.7880 C   0  0  0  0  0  0
    2.0740    3.6830  -23.8030 C   0  0  0  0  0  0
    1.2150    4.7660  -23.5180 C   0  0  0  0  0  0
    2.9640    6.0090  -22.7930 C   0  0  0  0  0  0
    3.4610    3.9120  -23.4590 C   0  0  0  0  0  0
    1.5740    2.5540  -24.4810 C   0  0  0  0  0  0
   -0.5770    3.3060  -24.4140 C   0  0  0  0  0  0
   -0.0990    4.5380  -23.7980 C   0  0  0  0  0  0
   -2.0220    3.2730  -24.8000 C   0  0  0  0  0  0
    4.1310    1.4310  -23.1650 C   0  0  0  0  0  0
    5.0490    1.0960  -21.9990 C   0  0  2  0  0  0
    6.6090    2.6840  -22.4940 C   0  0  2  0  0  0
    4.9770    2.0900  -20.8280 C   0  0  0  0  0  0
   -2.3200    3.4300  -26.2340 C   0  0  0  0  0  0
   -1.6510    2.6700  -21.8500 C   0  0  0  0  0  0
   -0.6220    2.3490  -21.3230 C   0  0  0  0  0  0
   -0.9770    5.5570  -23.4680 F   0  0  0  0  0  0
   -3.8770    2.8890  -20.3680 F   0  0  0  0  0  0
    1.6480    5.9360  -22.9700 N   0  0  0  0  0  0
    3.8920    5.0730  -22.9980 N   0  0  0  0  0  0
    0.2780    2.4290  -24.8160 N   0  0  0  0  0  0
    4.4130    2.8910  -23.6200 N   0  0  0  0  0  0
    6.4640    1.2050  -22.4500 N   0  0  1  0  0  0
   -3.8130    3.5920  -28.0220 O   0  0  0  0  0  0
   -6.1198    3.3881  -21.4116 H   0  0  0  0  0  0
   -6.5553    3.7075  -23.8101 H   0  0  0  0  0  0
    5.4620    4.0669  -21.2702 H   0  0  0  0  0  0
    6.7269    3.1203  -20.3679 H   0  0  0  0  0  0
    6.2986    2.8143  -24.6238 H   0  0  0  0  0  0
    5.9840    4.3370  -23.7302 H   0  0  0  0  0  0
   -5.7055    3.8065  -26.1553 H   0  0  0  0  0  0
    2.2424    1.7451  -24.7530 H   0  0  0  0  0  0
    3.0832    1.3432  -22.8420 H   0  0  0  0  0  0
    4.3318    0.7418  -23.9985 H   0  0  0  0  0  0
    4.8462    0.0759  -21.6408 H   0  0  0  0  0  0
    7.6705    2.9716  -22.5162 H   0  0  0  0  0  0
    3.9796    2.5533  -20.8038 H   0  0  0  0  0  0
    5.2719    1.5801  -19.8990 H   0  0  0  0  0  0
   -1.5342    3.4360  -26.9807 H   0  0  0  0  0  0
    0.2836    2.0661  -20.8592 H   0  0  0  0  0  0
    7.1104    0.7224  -21.7319 H   0  0  0  0  0  0
   -2.9571    3.5307  -28.4297 H   0  0  0  0  0  0
    8.3480    8.9750  -23.4270 N   0  0  0  0  0  0
    5.3710    8.6110  -21.3390 N   0  0  0  0  0  0
    8.7480   10.2000  -25.4110 N   0  0  0  0  0  0
    3.4740    7.3610  -22.3070 C   0  0  0  0  0  0
    6.2320    9.0230  -22.3650 C   0  0  0  0  0  0
    4.7480    7.2820  -21.4400 C   0  0  0  0  0  0
    6.5990   10.2900  -24.3640 C   0  0  0  0  0  0
    7.5140    8.5730  -22.4160 C   0  0  0  0  0  0
    5.7710    9.9030  -23.3570 C   0  0  0  0  0  0
    7.9080    9.8170  -24.3990 C   0  0  0  0  0  0
    9.3213    8.6392  -23.4560 H   0  0  0  0  0  0
    5.1880    9.2332  -20.5388 H   0  0  0  0  0  0
    8.4101   10.8378  -26.1458 H   0  0  0  0  0  0
    9.7166    9.8508  -25.4370 H   0  0  0  0  0  0
    3.6629    8.0128  -23.1727 H   0  0  0  0  0  0
    2.6791    7.8689  -21.7411 H   0  0  0  0  0  0
    4.4850    6.9230  -20.4340 H   0  0  0  0  0  0
    5.4590    6.5780  -21.8970 H   0  0  0  0  0  0
    6.2391   10.9629  -25.1339 H   0  0  0  0  0  0
    7.8759    7.8932  -21.6532 H   0  0  0  0  0  0
    4.7539   10.2760  -23.3200 H   0  0  0  0  0  0
  1  2  2  0  0  0
  1  3  1  0  0  0
  1 34  1  0  0  0
  2  6  1  0  0  0
  2 35  1  0  0  0
  3  5  2  0  0  0
  3 27  1  0  0  0
  4  5  1  0  0  0
  4  6  2  0  0  0
  4 18  1  0  0  0
  5 24  1  0  0  0
  6 10  1  0  0  0
  7 10  2  0  0  0
  7 23  1  0  0  0
  7 33  1  0  0  0
  8 21  1  0  0  0
  8 22  1  0  0  0
  8 36  1  0  0  0
  8 37  1  0  0  0
  9 21  1  0  0  0
  9 31  1  0  0  0
  9 38  1  0  0  0
  9 39  1  0  0  0
 10 40  1  0  0  0
 11 12  2  0  0  0
 11 14  1  0  0  0
 11 15  1  0  0  0
 12 17  1  0  0  0
 12 28  1  0  0  0
 13 28  2  0  0  0
 13 29  1  0  0  0
 13 55  1  0  0  0
 14 29  2  0  0  0
 14 31  1  0  0  0
 15 30  2  0  0  0
 15 41  1  0  0  0
 16 17  2  0  0  0
 16 18  1  0  0  0
 16 30  1  0  0  0
 17 26  1  0  0  0
 18 23  2  0  0  0
 19 20  1  0  0  0
 19 31  1  0  0  0
 19 42  1  0  0  0
 19 43  1  0  0  0
 20 22  1  0  0  0
 20 32  1  0  0  0
 20 44  1  0  0  0
 21 32  1  0  0  0
 21 45  1  0  0  0
 22 46  1  0  0  0
 22 47  1  0  0  0
 23 48  1  0  0  0
 24 25  3  0  0  0
 25 49  1  0  0  0
 32 50  1  0  0  0
 33 51  1  0  0  0
 52 59  1  0  0  0
 52 61  1  0  0  0
 52 62  1  0  0  0
 53 56  1  0  0  0
 53 57  1  0  0  0
 53 63  1  0  0  0
 54 61  1  0  0  0
 54 64  1  0  0  0
 54 65  1  0  0  0
 55 57  1  0  0  0
 55 66  1  0  0  0
 55 67  1  0  0  0
 56 59  2  0  0  0
 56 60  1  0  0  0
 57 68  1  0  0  0
 57 69  1  0  0  0
 58 60  1  0  0  0
 58 61  2  0  0  0
 58 70  1  0  0  0
 59 71  1  0  0  0
 60 72  1  0  0  0
M  END
> <s_m_entry_id>
95

> <s_m_entry_name>
000000095.1

> <s_m_Source_Path>
/Users/zaksoul/Documents/2

> <s_m_Source_File>
000000095.mol2

> <i_m_Source_File_Index>
1

$$$$
No_0_106
                    3D
 Schrodinger Suite 2022-4.
 71 77  0  0  1  0            999 V2000
   -5.2240    3.2880  -22.3270 C   0  0  0  0  0  0
   -5.4860    3.4440  -23.6680 C   0  0  0  0  0  0
   -3.9790    3.1000  -21.9710 C   0  0  0  0  0  0
   -3.0730    3.2360  -24.1310 C   0  0  0  0  0  0
   -2.9150    3.0210  -22.7050 C   0  0  0  0  0  0
   -4.4270    3.4260  -24.6680 C   0  0  0  0  0  0
   -3.6520    3.4510  -26.8590 C   0  0  0  0  0  0
    6.0490    3.2620  -21.4960 C   0  0  0  0  0  0
    5.9290    3.3600  -24.0490 C   0  0  0  0  0  0
   -4.6710    3.5220  -26.0070 C   0  0  0  0  0  0
    2.1230    3.7260  -24.1080 C   0  0  0  0  0  0
    1.2470    4.7980  -23.8340 C   0  0  0  0  0  0
    2.9790    6.0880  -23.1560 C   0  0  0  0  0  0
    3.5090    3.9880  -23.7860 C   0  0  0  0  0  0
    1.6370    2.5740  -24.7570 C   0  0  0  0  0  0
   -0.5280    3.2860  -24.6780 C   0  0  0  0  0  0
   -0.0660    4.5390  -24.0930 C   0  0  0  0  0  0
   -1.9760    3.2170  -25.0450 C   0  0  0  0  0  0
    4.2300    1.5270  -23.4500 C   0  0  0  0  0  0
    5.1690    1.2330  -22.2900 C   0  0  2  0  0  0
    6.6920    2.8400  -22.8360 C   0  0  2  0  0  0
    5.0920    2.2500  -21.1380 C   0  0  0  0  0  0
   -2.2950    3.3400  -26.4780 C   0  0  0  0  0  0
   -1.5580    2.6820  -22.0880 C   0  0  0  0  0  0
   -0.5170    2.3910  -21.5680 C   0  0  0  0  0  0
   -0.9600    5.5480  -23.7720 F   0  0  0  0  0  0
   -3.7700    2.8880  -20.5840 F   0  0  0  0  0  0
    1.6630    5.9860  -23.3160 N   0  0  0  0  0  0
    3.9230    5.1670  -23.3530 N   0  0  0  0  0  0
    0.3390    2.4170  -25.0730 N   0  0  0  0  0  0
    4.4780    2.9830  -23.9380 N   0  0  0  0  0  0
    6.5750    1.3600  -22.7610 N   0  0  1  0  0  0
   -3.8120    3.4370  -28.2500 O   0  0  0  0  0  0
   -6.0348    3.3241  -21.6085 H   0  0  0  0  0  0
   -6.5055    3.5855  -24.0082 H   0  0  0  0  0  0
    5.5332    4.2249  -21.6252 H   0  0  0  0  0  0
    6.8267    3.3215  -20.7203 H   0  0  0  0  0  0
    6.3528    2.9210  -24.9643 H   0  0  0  0  0  0
    6.0198    4.4552  -24.0975 H   0  0  0  0  0  0
   -5.6857    3.6525  -26.3653 H   0  0  0  0  0  0
    2.3173    1.7723  -25.0209 H   0  0  0  0  0  0
    3.1880    1.4250  -23.1127 H   0  0  0  0  0  0
    4.4337    0.8250  -24.2720 H   0  0  0  0  0  0
    4.9895    0.2173  -21.9077 H   0  0  0  0  0  0
    7.7472    3.1480  -22.8764 H   0  0  0  0  0  0
    4.0856    2.6931  -21.1107 H   0  0  0  0  0  0
    5.4078    1.7647  -20.2027 H   0  0  0  0  0  0
   -1.5185    3.3450  -27.2344 H   0  0  0  0  0  0
    0.3998    2.1361  -21.1101 H   0  0  0  0  0  0
    7.2386    0.9048  -22.0407 H   0  0  0  0  0  0
   -2.9599    3.3836  -28.6666 H   0  0  0  0  0  0
    4.3200    8.7710  -20.7390 O   0  0  0  0  0  0
    6.7070   10.6830  -22.6090 N   0  0  0  0  0  0
    6.7620    7.5930  -19.8900 N   0  0  0  0  0  0
    3.4700    7.4600  -22.7030 C   0  0  0  0  0  0
    5.5050    9.1920  -21.2160 C   0  0  0  0  0  0
    7.9130    9.0880  -21.3650 C   0  0  0  0  0  0
    6.7220    8.6100  -20.8180 C   0  0  3  0  0  0
    3.8080    7.5000  -21.1980 C   0  0  0  0  0  0
    5.5250   10.2290  -22.0980 C   0  0  0  0  0  0
    7.8910   10.1130  -22.2500 C   0  0  0  0  0  0
    6.7110   11.4679  -23.2759 H   0  0  0  0  0  0
    7.6652    7.1819  -19.6139 H   0  0  0  0  0  0
    5.8881    7.2430  -19.4720 H   0  0  0  0  0  0
    4.3595    7.7402  -23.2863 H   0  0  0  0  0  0
    2.7012    8.2148  -22.9249 H   0  0  0  0  0  0
    8.8579    8.6390  -21.0810 H   0  0  0  0  0  0
    2.9130    7.2350  -20.6160 H   0  0  0  0  0  0
    4.5360    6.7080  -20.9680 H   0  0  0  0  0  0
    4.5917   10.6941  -22.3941 H   0  0  0  0  0  0
    8.8188   10.4799  -22.6739 H   0  0  0  0  0  0
  1  2  2  0  0  0
  1  3  1  0  0  0
  1 34  1  0  0  0
  2  6  1  0  0  0
  2 35  1  0  0  0
  3  5  2  0  0  0
  3 27  1  0  0  0
  4  5  1  0  0  0
  4  6  2  0  0  0
  4 18  1  0  0  0
  5 24  1  0  0  0
  6 10  1  0  0  0
  7 10  2  0  0  0
  7 23  1  0  0  0
  7 33  1  0  0  0
  8 21  1  0  0  0
  8 22  1  0  0  0
  8 36  1  0  0  0
  8 37  1  0  0  0
  9 21  1  0  0  0
  9 31  1  0  0  0
  9 38  1  0  0  0
  9 39  1  0  0  0
 10 40  1  0  0  0
 11 12  2  0  0  0
 11 14  1  0  0  0
 11 15  1  0  0  0
 12 17  1  0  0  0
 12 28  1  0  0  0
 13 28  2  0  0  0
 13 29  1  0  0  0
 13 55  1  0  0  0
 14 29  2  0  0  0
 14 31  1  0  0  0
 15 30  2  0  0  0
 15 41  1  0  0  0
 16 17  2  0  0  0
 16 18  1  0  0  0
 16 30  1  0  0  0
 17 26  1  0  0  0
 18 23  2  0  0  0
 19 20  1  0  0  0
 19 31  1  0  0  0
 19 42  1  0  0  0
 19 43  1  0  0  0
 20 22  1  0  0  0
 20 32  1  0  0  0
 20 44  1  0  0  0
 21 32  1  0  0  0
 21 45  1  0  0  0
 22 46  1  0  0  0
 22 47  1  0  0  0
 23 48  1  0  0  0
 24 25  3  0  0  0
 25 49  1  0  0  0
 32 50  1  0  0  0
 33 51  1  0  0  0
 52 56  1  0  0  0
 52 59  1  0  0  0
 53 60  1  0  0  0
 53 61  1  0  0  0
 53 62  1  0  0  0
 54 58  1  0  0  0
 54 63  1  0  0  0
 54 64  1  0  0  0
 55 59  1  0  0  0
 55 65  1  0  0  0
 55 66  1  0  0  0
 56 58  1  0  0  0
 56 60  2  0  0  0
 57 58  1  0  0  0
 57 61  2  0  0  0
 57 67  1  0  0  0
 59 68  1  0  0  0
 59 69  1  0  0  0
 60 70  1  0  0  0
 61 71  1  0  0  0
M  END
> <s_m_entry_id>
96

> <s_m_entry_name>
000000096.1

> <s_m_Source_Path>
/Users/zaksoul/Documents/2

> <s_m_Source_File>
000000096.mol2

> <i_m_Source_File_Index>
1

$$$$
No_0_107
                    3D
 Schrodinger Suite 2022-4.
 71 77  0  0  1  0            999 V2000
   -5.1260    3.5060  -22.2120 C   0  0  0  0  0  0
   -5.3730    3.6880  -23.5520 C   0  0  0  0  0  0
   -3.8860    3.2990  -21.8470 C   0  0  0  0  0  0
   -2.9580    3.4640  -23.9940 C   0  0  0  0  0  0
   -2.8160    3.2220  -22.5710 C   0  0  0  0  0  0
   -4.3030    3.6770  -24.5420 C   0  0  0  0  0  0
   -3.5060    3.7340  -26.7240 C   0  0  0  0  0  0
    6.1370    3.3530  -21.2680 C   0  0  0  0  0  0
    6.0440    3.4970  -23.8190 C   0  0  0  0  0  0
   -4.5330    3.7990  -25.8820 C   0  0  0  0  0  0
    2.2420    3.9010  -23.9110 C   0  0  0  0  0  0
    1.3740    4.9770  -23.6260 C   0  0  0  0  0  0
    3.1120    6.2380  -22.9080 C   0  0  0  0  0  0
    3.6280    4.1440  -23.5690 C   0  0  0  0  0  0
    1.7520    2.7660  -24.5850 C   0  0  0  0  0  0
   -0.4060    3.4980  -24.5150 C   0  0  0  0  0  0
    0.0620    4.7360  -23.9030 C   0  0  0  0  0  0
   -1.8510    3.4510  -24.8980 C   0  0  0  0  0  0
    4.3220    1.6700  -23.2700 C   0  0  0  0  0  0
    5.2450    1.3470  -22.1060 C   0  0  2  0  0  0
    6.7890    2.9480  -22.6080 C   0  0  2  0  0  0
    5.1660    2.3430  -20.9380 C   0  0  0  0  0  0
   -2.1540    3.6020  -26.3320 C   0  0  0  0  0  0
   -1.4690    2.8580  -21.9470 C   0  0  0  0  0  0
   -0.4360    2.5480  -21.4220 C   0  0  0  0  0  0
   -0.8250    5.7480  -23.5730 F   0  0  0  0  0  0
   -3.6940    3.0600  -20.4620 F   0  0  0  0  0  0
    1.7970    6.1520  -23.0820 N   0  0  0  0  0  0
    4.0490    5.3110  -23.1120 N   0  0  0  0  0  0
    0.4560    2.6280  -24.9160 N   0  0  0  0  0  0
    4.5880    3.1320  -23.7300 N   0  0  0  0  0  0
    6.6580    1.4680  -22.5600 N   0  0  1  0  0  0
   -3.6520    3.7460  -28.1170 O   0  0  0  0  0  0
   -5.9440    3.5371  -21.5014 H   0  0  0  0  0  0
   -6.3873    3.8457  -23.9005 H   0  0  0  0  0  0
    5.6314    4.3229  -21.3851 H   0  0  0  0  0  0
    6.9068    3.3903  -20.4831 H   0  0  0  0  0  0
    6.4730    3.0700  -24.7375 H   0  0  0  0  0  0
    6.1460    4.5919  -23.8473 H   0  0  0  0  0  0
   -5.5428    3.9466  -26.2474 H   0  0  0  0  0  0
    2.4277    1.9628  -24.8561 H   0  0  0  0  0  0
    3.2753    1.5731  -22.9460 H   0  0  0  0  0  0
    4.5268    0.9808  -24.1025 H   0  0  0  0  0  0
    5.0523    0.3260  -21.7448 H   0  0  0  0  0  0
    7.8479    3.2448  -22.6322 H   0  0  0  0  0  0
    4.1640    2.7961  -20.9128 H   0  0  0  0  0  0
    5.4676    1.8387  -20.0081 H   0  0  0  0  0  0
   -1.3692    3.6130  -27.0797 H   0  0  0  0  0  0
    0.4732    2.2759  -20.9589 H   0  0  0  0  0  0
    7.3098    0.9928  -21.8418 H   0  0  0  0  0  0
   -2.7962    3.6906  -28.5256 H   0  0  0  0  0  0
    4.7370    8.7960  -20.5290 O   0  0  0  0  0  0
    6.6610   10.9940  -22.6060 N   0  0  0  0  0  0
    7.3430    7.7050  -20.2270 N   0  0  0  0  0  0
    3.6110    7.5960  -22.4260 C   0  0  0  0  0  0
    5.7970    9.3250  -21.1650 C   0  0  0  0  0  0
    8.1420    9.3820  -21.7380 C   0  0  0  0  0  0
    7.0910    8.7890  -21.0380 C   0  0  3  0  0  0
    4.2110    7.5360  -21.0050 C   0  0  0  0  0  0
    5.6120   10.4290  -21.9400 C   0  0  0  0  0  0
    7.9150   10.4720  -22.5110 C   0  0  0  0  0  0
    6.5100   11.8289  -23.1900 H   0  0  0  0  0  0
    8.2992    7.3299  -20.1500 H   0  0  0  0  0  0
    6.5745    7.2693  -19.6974 H   0  0  0  0  0  0
    4.3691    7.9770  -23.1261 H   0  0  0  0  0  0
    2.7812    8.3179  -22.4420 H   0  0  0  0  0  0
    9.1423    8.9709  -21.6650 H   0  0  0  0  0  0
    3.4469    7.1710  -20.3029 H   0  0  0  0  0  0
    5.0044    6.7746  -20.9760 H   0  0  0  0  0  0
    4.6203   10.8579  -22.0270 H   0  0  0  0  0  0
    8.7345   10.9283  -23.0543 H   0  0  0  0  0  0
  1  2  2  0  0  0
  1  3  1  0  0  0
  1 34  1  0  0  0
  2  6  1  0  0  0
  2 35  1  0  0  0
  3  5  2  0  0  0
  3 27  1  0  0  0
  4  5  1  0  0  0
  4  6  2  0  0  0
  4 18  1  0  0  0
  5 24  1  0  0  0
  6 10  1  0  0  0
  7 10  2  0  0  0
  7 23  1  0  0  0
  7 33  1  0  0  0
  8 21  1  0  0  0
  8 22  1  0  0  0
  8 36  1  0  0  0
  8 37  1  0  0  0
  9 21  1  0  0  0
  9 31  1  0  0  0
  9 38  1  0  0  0
  9 39  1  0  0  0
 10 40  1  0  0  0
 11 12  2  0  0  0
 11 14  1  0  0  0
 11 15  1  0  0  0
 12 17  1  0  0  0
 12 28  1  0  0  0
 13 28  2  0  0  0
 13 29  1  0  0  0
 13 55  1  0  0  0
 14 29  2  0  0  0
 14 31  1  0  0  0
 15 30  2  0  0  0
 15 41  1  0  0  0
 16 17  2  0  0  0
 16 18  1  0  0  0
 16 30  1  0  0  0
 17 26  1  0  0  0
 18 23  2  0  0  0
 19 20  1  0  0  0
 19 31  1  0  0  0
 19 42  1  0  0  0
 19 43  1  0  0  0
 20 22  1  0  0  0
 20 32  1  0  0  0
 20 44  1  0  0  0
 21 32  1  0  0  0
 21 45  1  0  0  0
 22 46  1  0  0  0
 22 47  1  0  0  0
 23 48  1  0  0  0
 24 25  3  0  0  0
 25 49  1  0  0  0
 32 50  1  0  0  0
 33 51  1  0  0  0
 52 56  1  0  0  0
 52 59  1  0  0  0
 53 60  1  0  0  0
 53 61  1  0  0  0
 53 62  1  0  0  0
 54 58  1  0  0  0
 54 63  1  0  0  0
 54 64  1  0  0  0
 55 59  1  0  0  0
 55 65  1  0  0  0
 55 66  1  0  0  0
 56 58  1  0  0  0
 56 60  2  0  0  0
 57 58  1  0  0  0
 57 61  2  0  0  0
 57 67  1  0  0  0
 59 68  1  0  0  0
 59 69  1  0  0  0
 60 70  1  0  0  0
 61 71  1  0  0  0
M  END
> <s_m_entry_id>
97

> <s_m_entry_name>
000000097.1

> <s_m_Source_Path>
/Users/zaksoul/Documents/2

> <s_m_Source_File>
000000097.mol2

> <i_m_Source_File_Index>
1

$$$$
No_0_108
                    3D
 Schrodinger Suite 2022-4.
 71 77  0  0  1  0            999 V2000
   -5.3400    3.5430  -22.0320 C   0  0  0  0  0  0
   -5.5920    3.7020  -23.3740 C   0  0  0  0  0  0
   -4.1030    3.3140  -21.6710 C   0  0  0  0  0  0
   -3.1870    3.4110  -23.8270 C   0  0  0  0  0  0
   -3.0400    3.1960  -22.4010 C   0  0  0  0  0  0
   -4.5310    3.6450  -24.3700 C   0  0  0  0  0  0
   -3.7490    3.6350  -26.5590 C   0  0  0  0  0  0
    5.9230    3.1400  -21.1610 C   0  0  0  0  0  0
    5.8140    3.2320  -23.7140 C   0  0  0  0  0  0
   -4.7670    3.7430  -25.7110 C   0  0  0  0  0  0
    2.0230    3.7260  -23.7890 C   0  0  0  0  0  0
    1.1830    4.8280  -23.5210 C   0  0  0  0  0  0
    2.9550    6.0620  -22.8420 C   0  0  0  0  0  0
    3.4160    3.9420  -23.4620 C   0  0  0  0  0  0
    1.5010    2.5880  -24.4350 C   0  0  0  0  0  0
   -0.6390    3.3730  -24.3660 C   0  0  0  0  0  0
   -0.1370    4.6120  -23.7840 C   0  0  0  0  0  0
   -2.0880    3.3520  -24.7380 C   0  0  0  0  0  0
    4.0530    1.4590  -23.1140 C   0  0  0  0  0  0
    4.9770    1.1390  -21.9500 C   0  0  2  0  0  0
    6.5550    2.6920  -22.4960 C   0  0  2  0  0  0
    4.9310    2.1620  -20.8020 C   0  0  0  0  0  0
   -2.3970    3.4790  -26.1730 C   0  0  0  0  0  0
   -1.6980    2.8140  -21.7780 C   0  0  0  0  0  0
   -0.6690    2.4910  -21.2530 C   0  0  0  0  0  0
   -0.9980    5.6510  -23.4700 F   0  0  0  0  0  0
   -3.9070    3.1010  -20.2820 F   0  0  0  0  0  0
    1.6370    6.0030  -23.0060 N   0  0  0  0  0  0
    3.8680    5.1080  -23.0330 N   0  0  0  0  0  0
    0.2000    2.4740  -24.7540 N   0  0  0  0  0  0
    4.3510    2.9040  -23.6070 N   0  0  0  0  0  0
    6.3890    1.2170  -22.4160 N   0  0  1  0  0  0
   -3.9040    3.6210  -27.9510 O   0  0  0  0  0  0
   -6.1518    3.6082  -21.3166 H   0  0  0  0  0  0
   -6.6052    3.8755  -23.7181 H   0  0  0  0  0  0
    5.4400    4.1191  -21.2951 H   0  0  0  0  0  0
    6.6989    3.1763  -20.3821 H   0  0  0  0  0  0
    6.2266    2.7760  -24.6260 H   0  0  0  0  0  0
    5.9422    4.3232  -23.7665 H   0  0  0  0  0  0
   -5.7758    3.9066  -26.0724 H   0  0  0  0  0  0
    2.1547    1.7626  -24.6930 H   0  0  0  0  0  0
    3.0066    1.3944  -22.7810 H   0  0  0  0  0  0
    4.2356    0.7478  -23.9331 H   0  0  0  0  0  0
    4.7631    0.1312  -21.5646 H   0  0  0  0  0  0
    7.6203    2.9634  -22.5343 H   0  0  0  0  0  0
    3.9402    2.6393  -20.7808 H   0  0  0  0  0  0
    5.2267    1.6705  -19.8634 H   0  0  0  0  0  0
   -1.6177    3.4559  -26.9262 H   0  0  0  0  0  0
    0.2365    2.2062  -20.7903 H   0  0  0  0  0  0
    7.0348    0.7423  -21.6921 H   0  0  0  0  0  0
   -3.0525    3.5368  -28.3639 H   0  0  0  0  0  0
    5.4990    8.6110  -21.4750 O   0  0  0  0  0  0
    5.0250   11.6050  -23.3890 N   0  0  0  0  0  0
    7.5950    8.3890  -23.3790 N   0  0  0  0  0  0
    3.4900    7.4180  -22.3930 C   0  0  0  0  0  0
    5.6860    9.5460  -22.4230 C   0  0  0  0  0  0
    6.8380   10.4450  -24.3460 C   0  0  0  0  0  0
    6.7100    9.4440  -23.3830 C   0  0  3  0  0  0
    4.9390    7.3370  -21.8680 C   0  0  0  0  0  0
    4.8700   10.6350  -22.4400 C   0  0  0  0  0  0
    5.9970   11.5080  -24.3380 C   0  0  0  0  0  0
    4.4013   12.4247  -23.3930 H   0  0  0  0  0  0
    8.3372    8.3360  -24.0912 H   0  0  0  0  0  0
    7.5160    7.6529  -22.6629 H   0  0  0  0  0  0
    3.4440    8.1252  -23.2343 H   0  0  0  0  0  0
    2.8380    7.8250  -21.6060 H   0  0  0  0  0  0
    7.6108   10.3740  -25.1028 H   0  0  0  0  0  0
    4.9800    6.6417  -21.0166 H   0  0  0  0  0  0
    5.5799    6.8791  -22.6359 H   0  0  0  0  0  0
    4.0920   10.7280  -21.6910 H   0  0  0  0  0  0
    6.0990   12.2820  -25.0900 H   0  0  0  0  0  0
  1  2  2  0  0  0
  1  3  1  0  0  0
  1 34  1  0  0  0
  2  6  1  0  0  0
  2 35  1  0  0  0
  3  5  2  0  0  0
  3 27  1  0  0  0
  4  5  1  0  0  0
  4  6  2  0  0  0
  4 18  1  0  0  0
  5 24  1  0  0  0
  6 10  1  0  0  0
  7 10  2  0  0  0
  7 23  1  0  0  0
  7 33  1  0  0  0
  8 21  1  0  0  0
  8 22  1  0  0  0
  8 36  1  0  0  0
  8 37  1  0  0  0
  9 21  1  0  0  0
  9 31  1  0  0  0
  9 38  1  0  0  0
  9 39  1  0  0  0
 10 40  1  0  0  0
 11 12  2  0  0  0
 11 14  1  0  0  0
 11 15  1  0  0  0
 12 17  1  0  0  0
 12 28  1  0  0  0
 13 28  2  0  0  0
 13 29  1  0  0  0
 13 55  1  0  0  0
 14 29  2  0  0  0
 14 31  1  0  0  0
 15 30  2  0  0  0
 15 41  1  0  0  0
 16 17  2  0  0  0
 16 18  1  0  0  0
 16 30  1  0  0  0
 17 26  1  0  0  0
 18 23  2  0  0  0
 19 20  1  0  0  0
 19 31  1  0  0  0
 19 42  1  0  0  0
 19 43  1  0  0  0
 20 22  1  0  0  0
 20 32  1  0  0  0
 20 44  1  0  0  0
 21 32  1  0  0  0
 21 45  1  0  0  0
 22 46  1  0  0  0
 22 47  1  0  0  0
 23 48  1  0  0  0
 24 25  3  0  0  0
 25 49  1  0  0  0
 32 50  1  0  0  0
 33 51  1  0  0  0
 52 56  1  0  0  0
 52 59  1  0  0  0
 53 60  1  0  0  0
 53 61  1  0  0  0
 53 62  1  0  0  0
 54 58  1  0  0  0
 54 63  1  0  0  0
 54 64  1  0  0  0
 55 59  1  0  0  0
 55 65  1  0  0  0
 55 66  1  0  0  0
 56 58  1  0  0  0
 56 60  2  0  0  0
 57 58  1  0  0  0
 57 61  2  0  0  0
 57 67  1  0  0  0
 59 68  1  0  0  0
 59 69  1  0  0  0
 60 70  1  0  0  0
 61 71  1  0  0  0
M  END
> <s_m_entry_id>
98

> <s_m_entry_name>
000000098.1

> <s_m_Source_Path>
/Users/zaksoul/Documents/2

> <s_m_Source_File>
000000098.mol2

> <i_m_Source_File_Index>
1

$$$$
No_0_109
                    3D
 Schrodinger Suite 2022-4.
 69 75  0  0  1  0            999 V2000
   -5.3470    3.2920  -22.2030 C   0  0  0  0  0  0
   -5.6170    3.4210  -23.5450 C   0  0  0  0  0  0
   -4.1030    3.0870  -21.8530 C   0  0  0  0  0  0
   -3.2130    3.1530  -24.0210 C   0  0  0  0  0  0
   -3.0470    2.9690  -22.5920 C   0  0  0  0  0  0
   -4.5660    3.3570  -24.5530 C   0  0  0  0  0  0
   -3.8090    3.3140  -26.7500 C   0  0  0  0  0  0
    5.9300    3.0580  -21.4580 C   0  0  0  0  0  0
    5.7900    3.0960  -24.0110 C   0  0  0  0  0  0
   -4.8190    3.4250  -25.8920 C   0  0  0  0  0  0
    1.9920    3.5370  -24.0510 C   0  0  0  0  0  0
    1.1400    4.6340  -23.7950 C   0  0  0  0  0  0
    2.9040    5.9050  -23.1630 C   0  0  0  0  0  0
    3.3860    3.7790  -23.7450 C   0  0  0  0  0  0
    1.4780    2.3800  -24.6680 C   0  0  0  0  0  0
   -0.6710    3.1380  -24.5890 C   0  0  0  0  0  0
   -0.1800    4.3950  -24.0390 C   0  0  0  0  0  0
   -2.1240    3.0900  -24.9440 C   0  0  0  0  0  0
    4.0610    1.3130  -23.3550 C   0  0  0  0  0  0
    5.0020    1.0280  -22.1950 C   0  0  2  0  0  0
    6.5530    2.5900  -22.7920 C   0  0  2  0  0  0
    4.9550    2.0740  -21.0680 C   0  0  0  0  0  0
   -2.4520    3.1840  -26.3770 C   0  0  0  0  0  0
   -1.6920    2.6170  -21.9780 C   0  0  0  0  0  0
   -0.6530    2.3190  -21.4590 C   0  0  0  0  0  0
   -1.0510    5.4290  -23.7360 F   0  0  0  0  0  0
   -3.8870    2.9050  -20.4620 F   0  0  0  0  0  0
    1.5840    5.8250  -23.3100 N   0  0  0  0  0  0
    3.8270    4.9590  -23.3450 N   0  0  0  0  0  0
    0.1750    2.2430  -24.9690 N   0  0  0  0  0  0
    4.3330    2.7510  -23.8810 N   0  0  0  0  0  0
    6.4070    1.1160  -22.6800 N   0  0  1  0  0  0
   -3.9810    3.2690  -28.1390 O   0  0  0  0  0  0
   -6.1515    3.3613  -21.4798 H   0  0  0  0  0  0
   -6.6360    3.5746  -23.8813 H   0  0  0  0  0  0
    5.4317    4.0274  -21.6063 H   0  0  0  0  0  0
    6.7146    3.1206  -20.6896 H   0  0  0  0  0  0
    6.1978    2.6266  -24.9184 H   0  0  0  0  0  0
    5.9030    4.1876  -24.0867 H   0  0  0  0  0  0
   -5.8337    3.5685  -26.2453 H   0  0  0  0  0  0
    2.1405    1.5589  -24.9169 H   0  0  0  0  0  0
    3.0197    1.2414  -23.0079 H   0  0  0  0  0  0
    4.2427    0.5873  -24.1614 H   0  0  0  0  0  0
    4.8061    0.0254  -21.7871 H   0  0  0  0  0  0
    7.6138    2.8756  -22.8485 H   0  0  0  0  0  0
    3.9580    2.5382  -21.0438 H   0  0  0  0  0  0
    5.2689    1.6057  -20.1234 H   0  0  0  0  0  0
   -1.6813    3.1559  -27.1387 H   0  0  0  0  0  0
    0.2620    2.0560  -21.0020 H   0  0  0  0  0  0
    7.0673    0.6641  -21.9546 H   0  0  0  0  0  0
   -3.1336    3.1878  -28.5607 H   0  0  0  0  0  0
    6.9900   10.3920  -22.7890 O   0  0  0  0  0  0
    5.0200    8.5040  -21.1780 N   0  3  0  0  0  0
    6.1730    9.3490  -23.3190 C   0  0  0  0  0  0
    7.1390    9.8690  -21.4710 C   0  0  0  0  0  0
    4.2450    7.2380  -21.4410 C   0  0  0  0  0  0
    6.3080    8.6550  -21.9430 C   0  0  0  0  0  0
    3.4250    7.2760  -22.7480 C   0  0  0  0  0  0
    5.2089    8.5789  -20.1907 H   0  0  0  0  0  0
    4.4291    9.2999  -21.3610 H   0  0  0  0  0  0
    6.7909    8.7821  -24.0309 H   0  0  0  0  0  0
    5.1478    9.7421  -23.3860 H   0  0  0  0  0  0
    6.4945   10.4665  -20.8095 H   0  0  0  0  0  0
    8.1810    9.5310  -21.3710 H   0  0  0  0  0  0
    3.5727    7.0379  -20.5936 H   0  0  0  0  0  0
    4.9390    6.3851  -21.4710 H   0  0  0  0  0  0
    6.8928    7.7244  -21.9870 H   0  0  0  0  0  0
    4.0449    7.6919  -23.5559 H   0  0  0  0  0  0
    2.5783    7.9677  -22.6270 H   0  0  0  0  0  0
  1  2  2  0  0  0
  1  3  1  0  0  0
  1 34  1  0  0  0
  2  6  1  0  0  0
  2 35  1  0  0  0
  3  5  2  0  0  0
  3 27  1  0  0  0
  4  5  1  0  0  0
  4  6  2  0  0  0
  4 18  1  0  0  0
  5 24  1  0  0  0
  6 10  1  0  0  0
  7 10  2  0  0  0
  7 23  1  0  0  0
  7 33  1  0  0  0
  8 21  1  0  0  0
  8 22  1  0  0  0
  8 36  1  0  0  0
  8 37  1  0  0  0
  9 21  1  0  0  0
  9 31  1  0  0  0
  9 38  1  0  0  0
  9 39  1  0  0  0
 10 40  1  0  0  0
 11 12  1  0  0  0
 11 14  2  0  0  0
 11 15  1  0  0  0
 12 17  1  0  0  0
 12 28  2  0  0  0
 13 28  1  0  0  0
 13 29  2  0  0  0
 13 58  1  0  0  0
 14 29  1  0  0  0
 14 31  1  0  0  0
 15 30  2  0  0  0
 15 41  1  0  0  0
 16 17  2  0  0  0
 16 18  1  0  0  0
 16 30  1  0  0  0
 17 26  1  0  0  0
 18 23  2  0  0  0
 19 20  1  0  0  0
 19 31  1  0  0  0
 19 42  1  0  0  0
 19 43  1  0  0  0
 20 22  1  0  0  0
 20 32  1  0  0  0
 20 44  1  0  0  0
 21 32  1  0  0  0
 21 45  1  0  0  0
 22 46  1  0  0  0
 22 47  1  0  0  0
 23 48  1  0  0  0
 24 25  3  0  0  0
 25 49  1  0  0  0
 32 50  1  0  0  0
 33 51  1  0  0  0
 52 54  1  0  0  0
 52 55  1  0  0  0
 53 56  1  0  0  0
 53 57  1  0  0  0
 53 59  1  0  0  0
 53 60  1  0  0  0
 54 57  1  0  0  0
 54 61  1  0  0  0
 54 62  1  0  0  0
 55 57  1  0  0  0
 55 63  1  0  0  0
 55 64  1  0  0  0
 56 58  1  0  0  0
 56 65  1  0  0  0
 56 66  1  0  0  0
 57 67  1  0  0  0
 58 68  1  0  0  0
 58 69  1  0  0  0
M  CHG  1  53   1
M  END
> <s_m_entry_id>
99

> <s_m_entry_name>
000000099.1

> <s_m_Source_Path>
/Users/zaksoul/Documents/2

> <s_m_Source_File>
000000099.mol2

> <i_m_Source_File_Index>
1

$$$$
No_0_110
                    3D
 Schrodinger Suite 2022-4.
 74 80  0  0  1  0            999 V2000
   -5.1780    3.4770  -21.7760 C   0  0  0  0  0  0
   -5.4540    3.6350  -23.1130 C   0  0  0  0  0  0
   -3.9320    3.2650  -21.4350 C   0  0  0  0  0  0
   -3.0520    3.3790  -23.6060 C   0  0  0  0  0  0
   -2.8800    3.1640  -22.1820 C   0  0  0  0  0  0
   -4.4080    3.5940  -24.1270 C   0  0  0  0  0  0
   -3.6610    3.5990  -26.3280 C   0  0  0  0  0  0
    6.1020    3.2310  -21.0870 C   0  0  0  0  0  0
    5.9510    3.3250  -23.6380 C   0  0  0  0  0  0
   -4.6670    3.6910  -25.4630 C   0  0  0  0  0  0
    2.1520    3.7650  -23.6510 C   0  0  0  0  0  0
    1.3010    4.8550  -23.3680 C   0  0  0  0  0  0
    3.0670    6.1130  -22.7150 C   0  0  0  0  0  0
    3.5480    4.0010  -23.3460 C   0  0  0  0  0  0
    1.6350    2.6220  -24.2900 C   0  0  0  0  0  0
   -0.5140    3.3770  -24.1860 C   0  0  0  0  0  0
   -0.0190    4.6220  -23.6100 C   0  0  0  0  0  0
   -1.9670    3.3360  -24.5350 C   0  0  0  0  0  0
    4.2250    1.5270  -23.0130 C   0  0  0  0  0  0
    5.1720    1.2170  -21.8640 C   0  0  2  0  0  0
    6.7190    2.7930  -22.4330 C   0  0  2  0  0  0
    5.1290    2.2380  -20.7140 C   0  0  0  0  0  0
   -2.3020    3.4610  -25.9640 C   0  0  0  0  0  0
   -1.5230    2.7990  -21.5820 C   0  0  0  0  0  0
   -0.4810    2.4890  -21.0740 C   0  0  0  0  0  0
   -0.8890    5.6480  -23.2810 F   0  0  0  0  0  0
   -3.7110    3.0530  -20.0500 F   0  0  0  0  0  0
    1.7470    6.0360  -22.8580 N   0  0  0  0  0  0
    3.9900    5.1720  -22.9220 N   0  0  0  0  0  0
    0.3310    2.4900  -24.5890 N   0  0  0  0  0  0
    4.4940    2.9760  -23.5080 N   0  0  0  0  0  0
    6.5740    1.3160  -22.3530 N   0  0  1  0  0  0
   -3.8390    3.5840  -27.7170 O   0  0  0  0  0  0
   -5.9789    3.5302  -21.0474 H   0  0  0  0  0  0
   -6.4746    3.7956  -23.4412 H   0  0  0  0  0  0
    5.6032    4.2034  -21.2122 H   0  0  0  0  0  0
    6.8902    3.2764  -20.3210 H   0  0  0  0  0  0
    6.3545    2.8750  -24.5571 H   0  0  0  0  0  0
    6.0630    4.4180  -23.6905 H   0  0  0  0  0  0
   -5.6835    3.8415  -25.8082 H   0  0  0  0  0  0
    2.2961    1.8064  -24.5599 H   0  0  0  0  0  0
    3.1852    1.4473  -22.6630 H   0  0  0  0  0  0
    4.4035    0.8191  -23.8358 H   0  0  0  0  0  0
    4.9772    0.2057  -21.4775 H   0  0  0  0  0  0
    7.7798    3.0786  -22.4885 H   0  0  0  0  0  0
    4.1322    2.7016  -20.6756 H   0  0  0  0  0  0
    5.4469    1.7486  -19.7816 H   0  0  0  0  0  0
   -1.5345    3.4500  -26.7295 H   0  0  0  0  0  0
    0.4362    2.2169  -20.6269 H   0  0  0  0  0  0
    7.2380    0.8487  -21.6409 H   0  0  0  0  0  0
   -2.9933    3.5127  -28.1438 H   0  0  0  0  0  0
    4.8880    8.6620  -20.4490 N   0  3  0  0  0  0
    5.7110    9.3620  -23.2610 N   0  0  0  0  0  0
    7.1310   11.0740  -23.5970 N   0  0  0  0  0  0
    3.5900    7.4750  -22.2730 C   0  0  0  0  0  0
    6.2850    8.5390  -21.0030 C   0  0  0  0  0  0
    3.9530    7.5290  -20.7760 C   0  0  0  0  0  0
    6.4630    9.4720  -22.1750 C   0  0  0  0  0  0
    7.3830   10.5810  -22.3930 C   0  0  0  0  0  0
    6.1280   10.3300  -24.0990 C   0  0  0  0  0  0
    8.4650   11.1780  -21.5290 C   0  0  0  0  0  0
    4.4811    9.5298  -20.7609 H   0  0  0  0  0  0
    4.9350    8.7760  -19.4486 H   0  0  0  0  0  0
    7.6769   11.8729  -23.9500 H   0  0  0  0  0  0
    4.4738    7.7399  -22.8719 H   0  0  0  0  0  0
    2.8366    8.2454  -22.4941 H   0  0  0  0  0  0
    6.4601    7.5032  -21.3293 H   0  0  0  0  0  0
    7.0128    8.7929  -20.2182 H   0  0  0  0  0  0
    3.0335    7.6301  -20.1807 H   0  0  0  0  0  0
    4.4140    6.5761  -20.4770 H   0  0  0  0  0  0
    5.6592   10.4459  -25.0695 H   0  0  0  0  0  0
    8.5170   10.6330  -20.5749 H   0  0  0  0  0  0
    9.4319   11.1020  -22.0480 H   0  0  0  0  0  0
    8.2371   12.2363  -21.3341 H   0  0  0  0  0  0
  1  2  2  0  0  0
  1  3  1  0  0  0
  1 34  1  0  0  0
  2  6  1  0  0  0
  2 35  1  0  0  0
  3  5  2  0  0  0
  3 27  1  0  0  0
  4  5  1  0  0  0
  4  6  2  0  0  0
  4 18  1  0  0  0
  5 24  1  0  0  0
  6 10  1  0  0  0
  7 10  2  0  0  0
  7 23  1  0  0  0
  7 33  1  0  0  0
  8 21  1  0  0  0
  8 22  1  0  0  0
  8 36  1  0  0  0
  8 37  1  0  0  0
  9 21  1  0  0  0
  9 31  1  0  0  0
  9 38  1  0  0  0
  9 39  1  0  0  0
 10 40  1  0  0  0
 11 12  1  0  0  0
 11 14  2  0  0  0
 11 15  1  0  0  0
 12 17  1  0  0  0
 12 28  2  0  0  0
 13 28  1  0  0  0
 13 29  2  0  0  0
 13 55  1  0  0  0
 14 29  1  0  0  0
 14 31  1  0  0  0
 15 30  2  0  0  0
 15 41  1  0  0  0
 16 17  2  0  0  0
 16 18  1  0  0  0
 16 30  1  0  0  0
 17 26  1  0  0  0
 18 23  2  0  0  0
 19 20  1  0  0  0
 19 31  1  0  0  0
 19 42  1  0  0  0
 19 43  1  0  0  0
 20 22  1  0  0  0
 20 32  1  0  0  0
 20 44  1  0  0  0
 21 32  1  0  0  0
 21 45  1  0  0  0
 22 46  1  0  0  0
 22 47  1  0  0  0
 23 48  1  0  0  0
 24 25  3  0  0  0
 25 49  1  0  0  0
 32 50  1  0  0  0
 33 51  1  0  0  0
 52 56  1  0  0  0
 52 57  1  0  0  0
 52 62  1  0  0  0
 52 63  1  0  0  0
 53 58  1  0  0  0
 53 60  2  0  0  0
 54 59  1  0  0  0
 54 60  1  0  0  0
 54 64  1  0  0  0
 55 57  1  0  0  0
 55 65  1  0  0  0
 55 66  1  0  0  0
 56 58  1  0  0  0
 56 67  1  0  0  0
 56 68  1  0  0  0
 57 69  1  0  0  0
 57 70  1  0  0  0
 58 59  2  0  0  0
 59 61  1  0  0  0
 60 71  1  0  0  0
 61 72  1  0  0  0
 61 73  1  0  0  0
 61 74  1  0  0  0
M  CHG  1  52   1
M  END
> <s_m_entry_id>
100

> <s_m_entry_name>
000000100.1

> <s_m_Source_Path>
/Users/zaksoul/Documents/2

> <s_m_Source_File>
000000100.mol2

> <i_m_Source_File_Index>
1

$$$$
No_0_111
                    3D
 Schrodinger Suite 2022-4.
 68 73  0  0  1  0            999 V2000
   -5.0930    3.6100  -21.9600 C   0  0  0  0  0  0
   -5.3680    3.8360  -23.2880 C   0  0  0  0  0  0
   -3.8500    3.3590  -21.6330 C   0  0  0  0  0  0
   -2.9720    3.5590  -23.7980 C   0  0  0  0  0  0
   -2.8010    3.2740  -22.3860 C   0  0  0  0  0  0
   -4.3240    3.8230  -24.3050 C   0  0  0  0  0  0
   -3.5810    3.9180  -26.5050 C   0  0  0  0  0  0
    6.1820    3.1230  -21.3110 C   0  0  0  0  0  0
    6.0290    3.3400  -23.8540 C   0  0  0  0  0  0
   -4.5840    3.9880  -25.6340 C   0  0  0  0  0  0
    2.2390    3.8510  -23.8370 C   0  0  0  0  0  0
    1.4090    4.9420  -23.5010 C   0  0  0  0  0  0
    3.1990    6.1340  -22.7940 C   0  0  0  0  0  0
    3.6390    4.0460  -23.5250 C   0  0  0  0  0  0
    1.7000    2.7490  -24.5290 C   0  0  0  0  0  0
   -0.4340    3.5370  -24.3830 C   0  0  0  0  0  0
    0.0840    4.7440  -23.7510 C   0  0  0  0  0  0
   -1.8890    3.5400  -24.7300 C   0  0  0  0  0  0
    4.2700    1.5470  -23.3110 C   0  0  0  0  0  0
    5.2130    1.1660  -22.1800 C   0  0  2  0  0  0
    6.7890    2.7380  -22.6780 C   0  0  2  0  0  0
    5.1920    2.1320  -20.9830 C   0  0  0  0  0  0
   -2.2230    3.7380  -26.1510 C   0  0  0  0  0  0
   -1.4500    2.8560  -21.8070 C   0  0  0  0  0  0
   -0.4130    2.5030  -21.3170 C   0  0  0  0  0  0
   -0.7660    5.7700  -23.3710 F   0  0  0  0  0  0
   -3.6300    3.0780  -20.2600 F   0  0  0  0  0  0
    1.8780    6.0890  -22.9370 N   0  0  0  0  0  0
    4.1040    5.1880  -23.0480 N   0  0  0  0  0  0
    0.3930    2.6550  -24.8300 N   0  0  0  0  0  0
    4.5660    3.0130  -23.7380 N   0  0  0  0  0  0
    6.6170    1.2610  -22.6670 N   0  0  1  0  0  0
   -3.7610    3.9720  -27.8930 O   0  0  0  0  0  0
   -5.8920    3.6441  -21.2282 H   0  0  0  0  0  0
   -6.3861    4.0308  -23.6053 H   0  0  0  0  0  0
    5.7014    4.1094  -21.3887 H   0  0  0  0  0  0
    6.9723    3.1180  -20.5459 H   0  0  0  0  0  0
    6.4226    2.9272  -24.7946 H   0  0  0  0  0  0
    6.1612    4.4320  -23.8560 H   0  0  0  0  0  0
   -5.5977    4.1737  -25.9702 H   0  0  0  0  0  0
    2.3455    1.9349  -24.8382 H   0  0  0  0  0  0
    3.2298    1.4693  -22.9619 H   0  0  0  0  0  0
    4.4355    0.8759  -24.1667 H   0  0  0  0  0  0
    5.0010    0.1413  -21.8408 H   0  0  0  0  0  0
    7.8548    3.0065  -22.7224 H   0  0  0  0  0  0
    4.2039    2.6114  -20.9204 H   0  0  0  0  0  0
    5.5020    1.5938  -20.0752 H   0  0  0  0  0  0
   -1.4575    3.7490  -26.9185 H   0  0  0  0  0  0
    0.4993    2.1929  -20.8849 H   0  0  0  0  0  0
    7.2725    0.7488  -21.9783 H   0  0  0  0  0  0
   -2.9174    3.9057  -28.3247 H   0  0  0  0  0  0
    6.9020    8.6100  -21.9800 O   0  0  0  0  0  0
    4.0480    8.9410  -20.2100 N   0  3  0  0  0  0
    6.0860   10.6730  -21.5090 N   0  0  0  0  0  0
    3.4260    7.7030  -20.8000 C   0  0  0  0  0  0
    5.5410    8.9150  -20.0180 C   0  0  0  0  0  0
    3.7480    7.4650  -22.2890 C   0  0  0  0  0  0
    6.2460    9.3630  -21.2750 C   0  0  0  0  0  0
    3.6029    9.1490  -19.3298 H   0  0  0  0  0  0
    3.8000    9.7380  -20.7750 H   0  0  0  0  0  0
    5.5339   11.2281  -20.8869 H   0  0  0  0  0  0
    6.5188   11.0948  -22.3057 H   0  0  0  0  0  0
    2.3350    7.7440  -20.6660 H   0  0  0  0  0  0
    3.7370    6.8249  -20.2150 H   0  0  0  0  0  0
    5.8600    7.8939  -19.7620 H   0  0  0  0  0  0
    5.8148    9.5825  -19.1876 H   0  0  0  0  0  0
    4.8378    7.4900  -22.4360 H   0  0  0  0  0  0
    3.3289    8.2853  -22.8902 H   0  0  0  0  0  0
  1  2  2  0  0  0
  1  3  1  0  0  0
  1 34  1  0  0  0
  2  6  1  0  0  0
  2 35  1  0  0  0
  3  5  2  0  0  0
  3 27  1  0  0  0
  4  5  1  0  0  0
  4  6  2  0  0  0
  4 18  1  0  0  0
  5 24  1  0  0  0
  6 10  1  0  0  0
  7 10  2  0  0  0
  7 23  1  0  0  0
  7 33  1  0  0  0
  8 21  1  0  0  0
  8 22  1  0  0  0
  8 36  1  0  0  0
  8 37  1  0  0  0
  9 21  1  0  0  0
  9 31  1  0  0  0
  9 38  1  0  0  0
  9 39  1  0  0  0
 10 40  1  0  0  0
 11 12  1  0  0  0
 11 14  2  0  0  0
 11 15  1  0  0  0
 12 17  1  0  0  0
 12 28  2  0  0  0
 13 28  1  0  0  0
 13 29  2  0  0  0
 13 57  1  0  0  0
 14 29  1  0  0  0
 14 31  1  0  0  0
 15 30  2  0  0  0
 15 41  1  0  0  0
 16 17  2  0  0  0
 16 18  1  0  0  0
 16 30  1  0  0  0
 17 26  1  0  0  0
 18 23  2  0  0  0
 19 20  1  0  0  0
 19 31  1  0  0  0
 19 42  1  0  0  0
 19 43  1  0  0  0
 20 22  1  0  0  0
 20 32  1  0  0  0
 20 44  1  0  0  0
 21 32  1  0  0  0
 21 45  1  0  0  0
 22 46  1  0  0  0
 22 47  1  0  0  0
 23 48  1  0  0  0
 24 25  3  0  0  0
 25 49  1  0  0  0
 32 50  1  0  0  0
 33 51  1  0  0  0
 52 58  2  0  0  0
 53 55  1  0  0  0
 53 56  1  0  0  0
 53 59  1  0  0  0
 53 60  1  0  0  0
 54 58  1  0  0  0
 54 61  1  0  0  0
 54 62  1  0  0  0
 55 57  1  0  0  0
 55 63  1  0  0  0
 55 64  1  0  0  0
 56 58  1  0  0  0
 56 65  1  0  0  0
 56 66  1  0  0  0
 57 67  1  0  0  0
 57 68  1  0  0  0
M  CHG  1  53   1
M  END
> <s_m_entry_id>
101

> <s_m_entry_name>
000000101.1

> <s_m_Source_Path>
/Users/zaksoul/Documents/2

> <s_m_Source_File>
000000101.mol2

> <i_m_Source_File_Index>
1

$$$$
No_0_112
                    3D
 Schrodinger Suite 2022-4.
 68 73  0  0  1  0            999 V2000
   -5.1360    3.4270  -22.3070 C   0  0  0  0  0  0
   -5.3720    3.5940  -23.6510 C   0  0  0  0  0  0
   -3.9000    3.2100  -21.9320 C   0  0  0  0  0  0
   -2.9570    3.3360  -24.0760 C   0  0  0  0  0  0
   -2.8270    3.1110  -22.6490 C   0  0  0  0  0  0
   -4.2970    3.5580  -24.6340 C   0  0  0  0  0  0
   -3.4870    3.5760  -26.8120 C   0  0  0  0  0  0
    6.1200    3.1550  -21.2940 C   0  0  0  0  0  0
    6.0430    3.2660  -23.8470 C   0  0  0  0  0  0
   -4.5180    3.6640  -25.9770 C   0  0  0  0  0  0
    2.2470    3.7140  -23.9670 C   0  0  0  0  0  0
    1.3900    4.8040  -23.7010 C   0  0  0  0  0  0
    3.1380    6.0540  -22.9900 C   0  0  0  0  0  0
    3.6330    3.9450  -23.6200 C   0  0  0  0  0  0
    1.7470    2.5760  -24.6290 C   0  0  0  0  0  0
   -0.4030    3.3340  -24.5820 C   0  0  0  0  0  0
    0.0760    4.5740  -23.9830 C   0  0  0  0  0  0
   -1.8460    3.2980  -24.9730 C   0  0  0  0  0  0
    4.2960    1.4670  -23.2850 C   0  0  0  0  0  0
    5.2090    1.1490  -22.1110 C   0  0  2  0  0  0
    6.7740    2.7250  -22.6240 C   0  0  2  0  0  0
    5.1350    2.1620  -20.9560 C   0  0  0  0  0  0
   -2.1390    3.4330  -26.4100 C   0  0  0  0  0  0
   -1.4880    2.7400  -22.0120 C   0  0  0  0  0  0
   -0.4620    2.4250  -21.4760 C   0  0  0  0  0  0
   -0.8010    5.6000  -23.6720 F   0  0  0  0  0  0
   -3.7190    2.9880  -20.5430 F   0  0  0  0  0  0
    1.8230    5.9800  -23.1710 N   0  0  0  0  0  0
    4.0650    5.1130  -23.1760 N   0  0  0  0  0  0
    0.4520    2.4480  -24.9660 N   0  0  0  0  0  0
    4.5830    2.9200  -23.7620 N   0  0  0  0  0  0
    6.6250    1.2480  -22.5580 N   0  0  1  0  0  0
   -3.6250    3.5710  -28.2060 O   0  0  0  0  0  0
   -5.9578    3.4762  -21.6018 H   0  0  0  0  0  0
   -6.3825    3.7586  -24.0072 H   0  0  0  0  0  0
    5.6264    4.1291  -21.4262 H   0  0  0  0  0  0
    6.8851    3.1944  -20.5047 H   0  0  0  0  0  0
    6.4719    2.8219  -24.7574 H   0  0  0  0  0  0
    6.1581    4.3591  -23.8894 H   0  0  0  0  0  0
   -5.5238    3.8186  -26.3504 H   0  0  0  0  0  0
    2.4144    1.7611  -24.8849 H   0  0  0  0  0  0
    3.2466    1.3873  -22.9651 H   0  0  0  0  0  0
    4.4979    0.7643  -24.1068 H   0  0  0  0  0  0
    5.0023    0.1355  -21.7368 H   0  0  0  0  0  0
    7.8363    3.0095  -22.6472 H   0  0  0  0  0  0
    4.1379    2.6263  -20.9429 H   0  0  0  0  0  0
    5.4245    1.6657  -20.0180 H   0  0  0  0  0  0
   -1.3498    3.4250  -27.1531 H   0  0  0  0  0  0
    0.4411    2.1480  -21.0040 H   0  0  0  0  0  0
    7.2673    0.7746  -21.8302 H   0  0  0  0  0  0
   -2.7674    3.5008  -28.6086 H   0  0  0  0  0  0
    6.4310    9.1450  -23.3090 O   0  0  0  0  0  0
    4.5900    8.7080  -20.5160 N   0  3  0  0  0  0
    5.6040   10.9400  -22.1980 N   0  0  0  0  0  0
    3.9630    7.4320  -21.0130 C   0  0  0  0  0  0
    6.0090    8.9710  -20.9460 C   0  0  0  0  0  0
    3.6500    7.4120  -22.5230 C   0  0  0  0  0  0
    6.0370    9.6740  -22.2810 C   0  0  0  0  0  0
    4.5380    8.7330  -19.5097 H   0  0  0  0  0  0
    4.0119    9.4891  -20.7840 H   0  0  0  0  0  0
    5.2960   11.3061  -21.3199 H   0  0  0  0  0  0
    5.5900   11.5180  -23.0139 H   0  0  0  0  0  0
    3.0404    7.2351  -20.4473 H   0  0  0  0  0  0
    4.6182    6.5837  -20.7659 H   0  0  0  0  0  0
    6.5510    8.0169  -21.0230 H   0  0  0  0  0  0
    6.5102    9.5953  -20.1917 H   0  0  0  0  0  0
    4.5566    7.6749  -23.0878 H   0  0  0  0  0  0
    2.9001    8.1839  -22.7510 H   0  0  0  0  0  0
  1  2  2  0  0  0
  1  3  1  0  0  0
  1 34  1  0  0  0
  2  6  1  0  0  0
  2 35  1  0  0  0
  3  5  2  0  0  0
  3 27  1  0  0  0
  4  5  1  0  0  0
  4  6  2  0  0  0
  4 18  1  0  0  0
  5 24  1  0  0  0
  6 10  1  0  0  0
  7 10  2  0  0  0
  7 23  1  0  0  0
  7 33  1  0  0  0
  8 21  1  0  0  0
  8 22  1  0  0  0
  8 36  1  0  0  0
  8 37  1  0  0  0
  9 21  1  0  0  0
  9 31  1  0  0  0
  9 38  1  0  0  0
  9 39  1  0  0  0
 10 40  1  0  0  0
 11 12  1  0  0  0
 11 14  2  0  0  0
 11 15  1  0  0  0
 12 17  1  0  0  0
 12 28  2  0  0  0
 13 28  1  0  0  0
 13 29  2  0  0  0
 13 57  1  0  0  0
 14 29  1  0  0  0
 14 31  1  0  0  0
 15 30  2  0  0  0
 15 41  1  0  0  0
 16 17  2  0  0  0
 16 18  1  0  0  0
 16 30  1  0  0  0
 17 26  1  0  0  0
 18 23  2  0  0  0
 19 20  1  0  0  0
 19 31  1  0  0  0
 19 42  1  0  0  0
 19 43  1  0  0  0
 20 22  1  0  0  0
 20 32  1  0  0  0
 20 44  1  0  0  0
 21 32  1  0  0  0
 21 45  1  0  0  0
 22 46  1  0  0  0
 22 47  1  0  0  0
 23 48  1  0  0  0
 24 25  3  0  0  0
 25 49  1  0  0  0
 32 50  1  0  0  0
 33 51  1  0  0  0
 52 58  2  0  0  0
 53 55  1  0  0  0
 53 56  1  0  0  0
 53 59  1  0  0  0
 53 60  1  0  0  0
 54 58  1  0  0  0
 54 61  1  0  0  0
 54 62  1  0  0  0
 55 57  1  0  0  0
 55 63  1  0  0  0
 55 64  1  0  0  0
 56 58  1  0  0  0
 56 65  1  0  0  0
 56 66  1  0  0  0
 57 67  1  0  0  0
 57 68  1  0  0  0
M  CHG  1  53   1
M  END
> <s_m_entry_id>
102

> <s_m_entry_name>
000000102.1

> <s_m_Source_Path>
/Users/zaksoul/Documents/2

> <s_m_Source_File>
000000102.mol2

> <i_m_Source_File_Index>
1

$$$$
No_0_113
                    3D
 Schrodinger Suite 2022-4.
 68 73  0  0  1  0            999 V2000
   -5.1470    3.4650  -22.3260 C   0  0  0  0  0  0
   -5.3770    3.6500  -23.6690 C   0  0  0  0  0  0
   -3.9110    3.2590  -21.9460 C   0  0  0  0  0  0
   -2.9560    3.4330  -24.0810 C   0  0  0  0  0  0
   -2.8320    3.1870  -22.6570 C   0  0  0  0  0  0
   -4.2960    3.6450  -24.6450 C   0  0  0  0  0  0
   -3.4720    3.7090  -26.8170 C   0  0  0  0  0  0
    6.1040    3.3340  -21.2420 C   0  0  0  0  0  0
    6.0420    3.4860  -23.7940 C   0  0  0  0  0  0
   -4.5090    3.7700  -25.9870 C   0  0  0  0  0  0
    2.2410    3.8820  -23.9320 C   0  0  0  0  0  0
    1.3670    4.9550  -23.6550 C   0  0  0  0  0  0
    3.0930    6.2180  -22.9120 C   0  0  0  0  0  0
    3.6220    4.1270  -23.5730 C   0  0  0  0  0  0
    1.7620    2.7480  -24.6150 C   0  0  0  0  0  0
   -0.3990    3.4750  -24.5700 C   0  0  0  0  0  0
    0.0590    4.7120  -23.9490 C   0  0  0  0  0  0
   -1.8390    3.4250  -24.9710 C   0  0  0  0  0  0
    4.3180    1.6530  -23.2720 C   0  0  0  0  0  0
    5.2270    1.3290  -22.0970 C   0  0  2  0  0  0
    6.7740    2.9350  -22.5750 C   0  0  2  0  0  0
    5.1320    2.3220  -20.9270 C   0  0  0  0  0  0
   -2.1240    3.5790  -26.4080 C   0  0  0  0  0  0
   -1.4920    2.8250  -22.0170 C   0  0  0  0  0  0
   -0.4650    2.5160  -21.4800 C   0  0  0  0  0  0
   -0.8350    5.7200  -23.6270 F   0  0  0  0  0  0
   -3.7360    3.0180  -20.5590 F   0  0  0  0  0  0
    1.7800    6.1290  -23.1030 N   0  0  0  0  0  0
    4.0340    5.2930  -23.1070 N   0  0  0  0  0  0
    0.4710    2.6080  -24.9630 N   0  0  0  0  0  0
    4.5870    3.1170  -23.7240 N   0  0  0  0  0  0
    6.6450    1.4550  -22.5340 N   0  0  1  0  0  0
   -3.6000    3.7250  -28.2120 O   0  0  0  0  0  0
   -5.9739    3.4921  -21.6256 H   0  0  0  0  0  0
   -6.3877    3.8066  -24.0283 H   0  0  0  0  0  0
    5.5986    4.3035  -21.3631 H   0  0  0  0  0  0
    6.8640    3.3713  -20.4477 H   0  0  0  0  0  0
    6.4838    3.0623  -24.7079 H   0  0  0  0  0  0
    6.1429    4.5811  -23.8182 H   0  0  0  0  0  0
   -5.5144    3.9166  -26.3647 H   0  0  0  0  0  0
    2.4421    1.9465  -24.8798 H   0  0  0  0  0  0
    3.2676    1.5531  -22.9612 H   0  0  0  0  0  0
    4.5339    0.9670  -24.1043 H   0  0  0  0  0  0
    5.0322    0.3067  -21.7407 H   0  0  0  0  0  0
    7.8323    3.2349  -22.5861 H   0  0  0  0  0  0
    4.1289    2.7731  -20.9129 H   0  0  0  0  0  0
    5.4228    1.8151  -19.9951 H   0  0  0  0  0  0
   -1.3305    3.5940  -27.1463 H   0  0  0  0  0  0
    0.4391    2.2440  -21.0070 H   0  0  0  0  0  0
    7.2887    0.9792  -21.8090 H   0  0  0  0  0  0
   -2.7389    3.6725  -28.6099 H   0  0  0  0  0  0
    5.3430   10.0070  -23.9510 O   0  0  0  0  0  0
    5.2150    8.7490  -20.8230 N   0  3  0  0  0  0
    4.9480   11.3770  -22.1880 N   0  0  0  0  0  0
    4.6010    7.4480  -21.2680 C   0  0  0  0  0  0
    6.1820    9.3970  -21.7790 C   0  0  0  0  0  0
    3.5830    7.5760  -22.4200 C   0  0  0  0  0  0
    5.4470   10.2740  -22.7630 C   0  0  0  0  0  0
    5.6690    8.6150  -19.9330 H   0  0  0  0  0  0
    4.4818    9.4031  -20.5980 H   0  0  0  0  0  0
    5.0719   11.5289  -21.2074 H   0  0  0  0  0  0
    4.4520   12.0480  -22.7390 H   0  0  0  0  0  0
    4.1180    6.9610  -20.4080 H   0  0  0  0  0  0
    5.3984    6.7497  -21.5621 H   0  0  0  0  0  0
    6.7354    8.6184  -22.3244 H   0  0  0  0  0  0
    6.9034   10.0053  -21.2137 H   0  0  0  0  0  0
    4.0434    8.1234  -23.2557 H   0  0  0  0  0  0
    2.7239    8.1751  -22.0839 H   0  0  0  0  0  0
  1  2  2  0  0  0
  1  3  1  0  0  0
  1 34  1  0  0  0
  2  6  1  0  0  0
  2 35  1  0  0  0
  3  5  2  0  0  0
  3 27  1  0  0  0
  4  5  1  0  0  0
  4  6  2  0  0  0
  4 18  1  0  0  0
  5 24  1  0  0  0
  6 10  1  0  0  0
  7 10  2  0  0  0
  7 23  1  0  0  0
  7 33  1  0  0  0
  8 21  1  0  0  0
  8 22  1  0  0  0
  8 36  1  0  0  0
  8 37  1  0  0  0
  9 21  1  0  0  0
  9 31  1  0  0  0
  9 38  1  0  0  0
  9 39  1  0  0  0
 10 40  1  0  0  0
 11 12  1  0  0  0
 11 14  2  0  0  0
 11 15  1  0  0  0
 12 17  1  0  0  0
 12 28  2  0  0  0
 13 28  1  0  0  0
 13 29  2  0  0  0
 13 57  1  0  0  0
 14 29  1  0  0  0
 14 31  1  0  0  0
 15 30  2  0  0  0
 15 41  1  0  0  0
 16 17  2  0  0  0
 16 18  1  0  0  0
 16 30  1  0  0  0
 17 26  1  0  0  0
 18 23  2  0  0  0
 19 20  1  0  0  0
 19 31  1  0  0  0
 19 42  1  0  0  0
 19 43  1  0  0  0
 20 22  1  0  0  0
 20 32  1  0  0  0
 20 44  1  0  0  0
 21 32  1  0  0  0
 21 45  1  0  0  0
 22 46  1  0  0  0
 22 47  1  0  0  0
 23 48  1  0  0  0
 24 25  3  0  0  0
 25 49  1  0  0  0
 32 50  1  0  0  0
 33 51  1  0  0  0
 52 58  2  0  0  0
 53 55  1  0  0  0
 53 56  1  0  0  0
 53 59  1  0  0  0
 53 60  1  0  0  0
 54 58  1  0  0  0
 54 61  1  0  0  0
 54 62  1  0  0  0
 55 57  1  0  0  0
 55 63  1  0  0  0
 55 64  1  0  0  0
 56 58  1  0  0  0
 56 65  1  0  0  0
 56 66  1  0  0  0
 57 67  1  0  0  0
 57 68  1  0  0  0
M  CHG  1  53   1
M  END
> <s_m_entry_id>
103

> <s_m_entry_name>
000000103.1

> <s_m_Source_Path>
/Users/zaksoul/Documents/2

> <s_m_Source_File>
000000103.mol2

> <i_m_Source_File_Index>
1

$$$$
No_0_114
                    3D
 Schrodinger Suite 2022-4.
 68 73  0  0  1  0            999 V2000
   -5.3110    3.4640  -22.0040 C   0  0  0  0  0  0
   -5.5670    3.6430  -23.3430 C   0  0  0  0  0  0
   -4.0730    3.2270  -21.6510 C   0  0  0  0  0  0
   -3.1630    3.3540  -23.8080 C   0  0  0  0  0  0
   -3.0130    3.1180  -22.3850 C   0  0  0  0  0  0
   -4.5080    3.5980  -24.3430 C   0  0  0  0  0  0
   -3.7320    3.6190  -26.5340 C   0  0  0  0  0  0
    5.9540    3.0250  -21.1720 C   0  0  0  0  0  0
    5.8380    3.1540  -23.7230 C   0  0  0  0  0  0
   -4.7480    3.7160  -25.6820 C   0  0  0  0  0  0
    2.0470    3.6570  -23.7800 C   0  0  0  0  0  0
    1.2100    4.7570  -23.4940 C   0  0  0  0  0  0
    2.9880    5.9770  -22.8020 C   0  0  0  0  0  0
    3.4420    3.8660  -23.4540 C   0  0  0  0  0  0
    1.5210    2.5300  -24.4410 C   0  0  0  0  0  0
   -0.6170    3.3180  -24.3540 C   0  0  0  0  0  0
   -0.1110    4.5480  -23.7560 C   0  0  0  0  0  0
   -2.0660    3.3050  -24.7230 C   0  0  0  0  0  0
    4.0750    1.3770  -23.1440 C   0  0  0  0  0  0
    5.0020    1.0370  -21.9870 C   0  0  2  0  0  0
    6.5810    2.5950  -22.5160 C   0  0  2  0  0  0
    4.9600    2.0440  -20.8250 C   0  0  0  0  0  0
   -2.3800    3.4540  -26.1550 C   0  0  0  0  0  0
   -1.6690    2.7240  -21.7720 C   0  0  0  0  0  0
   -0.6400    2.3910  -21.2540 C   0  0  0  0  0  0
   -0.9680    5.5840  -23.4250 F   0  0  0  0  0  0
   -3.8730    2.9940  -20.2650 F   0  0  0  0  0  0
    1.6680    5.9240  -22.9630 N   0  0  0  0  0  0
    3.8970    5.0240  -23.0090 N   0  0  0  0  0  0
    0.2190    2.4240  -24.7580 N   0  0  0  0  0  0
    4.3750    2.8280  -23.6170 N   0  0  0  0  0  0
    6.4120    1.1190  -22.4560 N   0  0  1  0  0  0
   -3.8920    3.6250  -27.9260 O   0  0  0  0  0  0
   -6.1212    3.5212  -21.2861 H   0  0  0  0  0  0
   -6.5803    3.8248  -23.6824 H   0  0  0  0  0  0
    5.4726    4.0069  -21.2911 H   0  0  0  0  0  0
    6.7321    3.0492  -20.3949 H   0  0  0  0  0  0
    6.2465    2.7102  -24.6429 H   0  0  0  0  0  0
    5.9681    4.2456  -23.7603 H   0  0  0  0  0  0
   -5.7572    3.8877  -26.0385 H   0  0  0  0  0  0
    2.1727    1.7076  -24.7131 H   0  0  0  0  0  0
    3.0295    1.3094  -22.8089 H   0  0  0  0  0  0
    4.2536    0.6768  -23.9733 H   0  0  0  0  0  0
    4.7859    0.0241  -21.6164 H   0  0  0  0  0  0
    7.6468    2.8645  -22.5533 H   0  0  0  0  0  0
    3.9706    2.5236  -20.7927 H   0  0  0  0  0  0
    5.2577    1.5384  -19.8945 H   0  0  0  0  0  0
   -1.6026    3.4399  -26.9103 H   0  0  0  0  0  0
    0.2668    2.0981  -20.7991 H   0  0  0  0  0  0
    7.0592    0.6323  -21.7414 H   0  0  0  0  0  0
   -3.0420    3.5448  -28.3426 H   0  0  0  0  0  0
    4.7320    9.9660  -24.0450 O   0  0  0  0  0  0
    5.4570    8.4840  -21.1020 N   0  3  0  0  0  0
    4.7380   11.1800  -22.1300 N   0  0  0  0  0  0
    4.8070    7.1810  -21.4880 C   0  0  0  0  0  0
    6.1200    9.2580  -22.2110 C   0  0  0  0  0  0
    3.5260    7.3250  -22.3350 C   0  0  0  0  0  0
    5.1220   10.1540  -22.9030 C   0  0  0  0  0  0
    6.1271    8.3160  -20.3679 H   0  0  0  0  0  0
    4.7771    9.0729  -20.6471 H   0  0  0  0  0  0
    5.0999   11.2700  -21.2022 H   0  0  0  0  0  0
    4.0890   11.8550  -22.4810 H   0  0  0  0  0  0
    4.5809    6.6036  -20.5794 H   0  0  0  0  0  0
    5.5335    6.5584  -22.0307 H   0  0  0  0  0  0
    6.5510    8.5570  -22.9410 H   0  0  0  0  0  0
    6.9337    9.8697  -21.7942 H   0  0  0  0  0  0
    3.7349    7.9587  -23.2095 H   0  0  0  0  0  0
    2.7549    7.8431  -21.7459 H   0  0  0  0  0  0
  1  2  2  0  0  0
  1  3  1  0  0  0
  1 34  1  0  0  0
  2  6  1  0  0  0
  2 35  1  0  0  0
  3  5  2  0  0  0
  3 27  1  0  0  0
  4  5  1  0  0  0
  4  6  2  0  0  0
  4 18  1  0  0  0
  5 24  1  0  0  0
  6 10  1  0  0  0
  7 10  2  0  0  0
  7 23  1  0  0  0
  7 33  1  0  0  0
  8 21  1  0  0  0
  8 22  1  0  0  0
  8 36  1  0  0  0
  8 37  1  0  0  0
  9 21  1  0  0  0
  9 31  1  0  0  0
  9 38  1  0  0  0
  9 39  1  0  0  0
 10 40  1  0  0  0
 11 12  1  0  0  0
 11 14  2  0  0  0
 11 15  1  0  0  0
 12 17  1  0  0  0
 12 28  2  0  0  0
 13 28  1  0  0  0
 13 29  2  0  0  0
 13 57  1  0  0  0
 14 29  1  0  0  0
 14 31  1  0  0  0
 15 30  2  0  0  0
 15 41  1  0  0  0
 16 17  2  0  0  0
 16 18  1  0  0  0
 16 30  1  0  0  0
 17 26  1  0  0  0
 18 23  2  0  0  0
 19 20  1  0  0  0
 19 31  1  0  0  0
 19 42  1  0  0  0
 19 43  1  0  0  0
 20 22  1  0  0  0
 20 32  1  0  0  0
 20 44  1  0  0  0
 21 32  1  0  0  0
 21 45  1  0  0  0
 22 46  1  0  0  0
 22 47  1  0  0  0
 23 48  1  0  0  0
 24 25  3  0  0  0
 25 49  1  0  0  0
 32 50  1  0  0  0
 33 51  1  0  0  0
 52 58  2  0  0  0
 53 55  1  0  0  0
 53 56  1  0  0  0
 53 59  1  0  0  0
 53 60  1  0  0  0
 54 58  1  0  0  0
 54 61  1  0  0  0
 54 62  1  0  0  0
 55 57  1  0  0  0
 55 63  1  0  0  0
 55 64  1  0  0  0
 56 58  1  0  0  0
 56 65  1  0  0  0
 56 66  1  0  0  0
 57 67  1  0  0  0
 57 68  1  0  0  0
M  CHG  1  53   1
M  END
> <s_m_entry_id>
104

> <s_m_entry_name>
000000104.1

> <s_m_Source_Path>
/Users/zaksoul/Documents/2

> <s_m_Source_File>
000000104.mol2

> <i_m_Source_File_Index>
1

$$$$
No_0_115
                    3D
 Schrodinger Suite 2022-4.
 68 73  0  0  1  0            999 V2000
   -5.3280    3.2350  -22.2510 C   0  0  0  0  0  0
   -5.5390    3.4720  -23.5890 C   0  0  0  0  0  0
   -4.1010    2.9930  -21.8650 C   0  0  0  0  0  0
   -3.1170    3.2260  -23.9810 C   0  0  0  0  0  0
   -3.0140    2.9270  -22.5660 C   0  0  0  0  0  0
   -4.4460    3.4820  -24.5520 C   0  0  0  0  0  0
   -3.5950    3.6100  -26.7110 C   0  0  0  0  0  0
    5.9050    2.8590  -21.0450 C   0  0  0  0  0  0
    5.8770    3.1030  -23.5900 C   0  0  0  0  0  0
   -4.6400    3.6590  -25.8910 C   0  0  0  0  0  0
    2.0850    3.5730  -23.7560 C   0  0  0  0  0  0
    1.2270    4.6520  -23.4500 C   0  0  0  0  0  0
    2.9670    5.8550  -22.6430 C   0  0  0  0  0  0
    3.4660    3.7800  -23.3730 C   0  0  0  0  0  0
    1.5940    2.4740  -24.4860 C   0  0  0  0  0  0
   -0.5540    3.2380  -24.4390 C   0  0  0  0  0  0
   -0.0810    4.4430  -23.7680 C   0  0  0  0  0  0
   -1.9900    3.2290  -24.8580 C   0  0  0  0  0  0
    4.1130    1.2850  -23.1540 C   0  0  0  0  0  0
    5.0030    0.9010  -21.9820 C   0  0  2  0  0  0
    6.5830    2.4950  -22.3830 C   0  0  2  0  0  0
    4.9110    1.8530  -20.7770 C   0  0  0  0  0  0
   -2.2550    3.4400  -26.2920 C   0  0  0  0  0  0
   -1.6890    2.5170  -21.9240 C   0  0  0  0  0  0
   -0.6740    2.1700  -21.3870 C   0  0  0  0  0  0
   -0.9610    5.4560  -23.4210 F   0  0  0  0  0  0
   -3.9460    2.6980  -20.4860 F   0  0  0  0  0  0
    1.6550    5.7980  -22.8520 N   0  0  0  0  0  0
    3.8930    4.9210  -22.8600 N   0  0  0  0  0  0
    0.3050    2.3700  -24.8530 N   0  0  0  0  0  0
    4.4140    2.7590  -23.5500 N   0  0  0  0  0  0
    6.4280    1.0170  -22.3970 N   0  0  1  0  0  0
   -3.7060    3.6780  -28.1050 O   0  0  0  0  0  0
   -6.1624    3.2511  -21.5592 H   0  0  0  0  0  0
   -6.5421    3.6598  -23.9545 H   0  0  0  0  0  0
    5.4176    3.8409  -21.1358 H   0  0  0  0  0  0
    6.6556    2.8529  -20.2409 H   0  0  0  0  0  0
    6.3213    2.7042  -24.5139 H   0  0  0  0  0  0
    5.9971    4.1963  -23.5728 H   0  0  0  0  0  0
   -5.6382    3.8376  -26.2742 H   0  0  0  0  0  0
    2.2631    1.6705  -24.7719 H   0  0  0  0  0  0
    3.0575    1.1932  -22.8583 H   0  0  0  0  0  0
    4.3279    0.6252  -24.0075 H   0  0  0  0  0  0
    4.7850   -0.1295  -21.6651 H   0  0  0  0  0  0
    7.6466    2.7755  -22.3719 H   0  0  0  0  0  0
    3.9162    2.3221  -20.7588 H   0  0  0  0  0  0
    5.1815    1.3080  -19.8606 H   0  0  0  0  0  0
   -1.4520    3.4681  -27.0197 H   0  0  0  0  0  0
    0.2188    1.8641  -20.9131 H   0  0  0  0  0  0
    7.0546    0.5037  -21.6827 H   0  0  0  0  0  0
   -2.8417    3.6246  -28.4956 H   0  0  0  0  0  0
    4.0930   10.1340  -23.6060 O   0  0  0  0  0  0
    5.5110    8.3850  -21.0930 N   0  3  0  0  0  0
    4.3810   11.0930  -21.5720 N   0  0  0  0  0  0
    4.9060    7.0770  -21.5330 C   0  0  0  0  0  0
    5.8730    9.3580  -22.1830 C   0  0  0  0  0  0
    3.4750    7.1850  -22.0960 C   0  0  0  0  0  0
    4.6860   10.2200  -22.5410 C   0  0  0  0  0  0
    6.3252    8.2010  -20.5279 H   0  0  0  0  0  0
    4.8893    8.8348  -20.4393 H   0  0  0  0  0  0
    4.9121   11.1060  -20.7248 H   0  0  0  0  0  0
    3.6218   11.7322  -21.6950 H   0  0  0  0  0  0
    4.9140    6.3708  -20.6897 H   0  0  0  0  0  0
    5.5587    6.6092  -22.2847 H   0  0  0  0  0  0
    6.2051    8.8038  -23.0733 H   0  0  0  0  0  0
    6.7003    9.9982  -21.8429 H   0  0  0  0  0  0
    3.4520    7.9409  -22.8948 H   0  0  0  0  0  0
    2.7967    7.5391  -21.3057 H   0  0  0  0  0  0
  1  2  2  0  0  0
  1  3  1  0  0  0
  1 34  1  0  0  0
  2  6  1  0  0  0
  2 35  1  0  0  0
  3  5  2  0  0  0
  3 27  1  0  0  0
  4  5  1  0  0  0
  4  6  2  0  0  0
  4 18  1  0  0  0
  5 24  1  0  0  0
  6 10  1  0  0  0
  7 10  2  0  0  0
  7 23  1  0  0  0
  7 33  1  0  0  0
  8 21  1  0  0  0
  8 22  1  0  0  0
  8 36  1  0  0  0
  8 37  1  0  0  0
  9 21  1  0  0  0
  9 31  1  0  0  0
  9 38  1  0  0  0
  9 39  1  0  0  0
 10 40  1  0  0  0
 11 12  1  0  0  0
 11 14  2  0  0  0
 11 15  1  0  0  0
 12 17  1  0  0  0
 12 28  2  0  0  0
 13 28  1  0  0  0
 13 29  2  0  0  0
 13 57  1  0  0  0
 14 29  1  0  0  0
 14 31  1  0  0  0
 15 30  2  0  0  0
 15 41  1  0  0  0
 16 17  2  0  0  0
 16 18  1  0  0  0
 16 30  1  0  0  0
 17 26  1  0  0  0
 18 23  2  0  0  0
 19 20  1  0  0  0
 19 31  1  0  0  0
 19 42  1  0  0  0
 19 43  1  0  0  0
 20 22  1  0  0  0
 20 32  1  0  0  0
 20 44  1  0  0  0
 21 32  1  0  0  0
 21 45  1  0  0  0
 22 46  1  0  0  0
 22 47  1  0  0  0
 23 48  1  0  0  0
 24 25  3  0  0  0
 25 49  1  0  0  0
 32 50  1  0  0  0
 33 51  1  0  0  0
 52 58  2  0  0  0
 53 55  1  0  0  0
 53 56  1  0  0  0
 53 59  1  0  0  0
 53 60  1  0  0  0
 54 58  1  0  0  0
 54 61  1  0  0  0
 54 62  1  0  0  0
 55 57  1  0  0  0
 55 63  1  0  0  0
 55 64  1  0  0  0
 56 58  1  0  0  0
 56 65  1  0  0  0
 56 66  1  0  0  0
 57 67  1  0  0  0
 57 68  1  0  0  0
M  CHG  1  53   1
M  END
> <s_m_entry_id>
105

> <s_m_entry_name>
000000105.1

> <s_m_Source_Path>
/Users/zaksoul/Documents/2

> <s_m_Source_File>
000000105.mol2

> <i_m_Source_File_Index>
1

$$$$
No_0_116
                    3D
 Schrodinger Suite 2022-4.
 68 73  0  0  1  0            999 V2000
   -5.2780    3.4060  -22.1650 C   0  0  0  0  0  0
   -5.4890    3.5860  -23.5120 C   0  0  0  0  0  0
   -4.0530    3.1660  -21.7720 C   0  0  0  0  0  0
   -3.0720    3.2920  -23.8980 C   0  0  0  0  0  0
   -2.9690    3.0550  -22.4710 C   0  0  0  0  0  0
   -4.3990    3.5390  -24.4770 C   0  0  0  0  0  0
   -3.5530    3.5590  -26.6410 C   0  0  0  0  0  0
    5.9530    2.9390  -20.9690 C   0  0  0  0  0  0
    5.9200    3.0700  -23.5220 C   0  0  0  0  0  0
   -4.5950    3.6590  -25.8220 C   0  0  0  0  0  0
    2.1350    3.5820  -23.7010 C   0  0  0  0  0  0
    1.2920    4.6830  -23.4420 C   0  0  0  0  0  0
    3.0480    5.8990  -22.6920 C   0  0  0  0  0  0
    3.5190    3.7870  -23.3300 C   0  0  0  0  0  0
    1.6270    2.4570  -24.3800 C   0  0  0  0  0  0
   -0.5100    3.2500  -24.3620 C   0  0  0  0  0  0
   -0.0210    4.4780  -23.7470 C   0  0  0  0  0  0
   -1.9470    3.2410  -24.7770 C   0  0  0  0  0  0
    4.1350    1.2960  -23.0020 C   0  0  0  0  0  0
    5.0230    0.9540  -21.8150 C   0  0  2  0  0  0
    6.6230    2.5080  -22.2920 C   0  0  2  0  0  0
    4.9470    1.9600  -20.6550 C   0  0  0  0  0  0
   -2.2140    3.3910  -26.2180 C   0  0  0  0  0  0
   -1.6480    2.6570  -21.8150 C   0  0  0  0  0  0
   -0.6360    2.3210  -21.2650 C   0  0  0  0  0  0
   -0.8860    5.5160  -23.4430 F   0  0  0  0  0  0
   -3.8980    2.9310  -20.3810 F   0  0  0  0  0  0
    1.7350    5.8490  -22.8960 N   0  0  0  0  0  0
    3.9620    4.9440  -22.8700 N   0  0  0  0  0  0
    0.3360    2.3530  -24.7390 N   0  0  0  0  0  0
    4.4530    2.7470  -23.4640 N   0  0  0  0  0  0
    6.4480    1.0330  -22.2390 N   0  0  1  0  0  0
   -3.6670    3.5660  -28.0370 O   0  0  0  0  0  0
   -6.1105    3.4642  -21.4731 H   0  0  0  0  0  0
   -6.4907    3.7697  -23.8834 H   0  0  0  0  0  0
    5.4780    3.9222  -21.1021 H   0  0  0  0  0  0
    6.7056    2.9602  -20.1670 H   0  0  0  0  0  0
    6.3569    2.6250  -24.4281 H   0  0  0  0  0  0
    6.0543    4.1613  -23.5543 H   0  0  0  0  0  0
   -5.5916    3.8326  -26.2114 H   0  0  0  0  0  0
    2.2853    1.6331  -24.6309 H   0  0  0  0  0  0
    3.0792    1.2314  -22.7002 H   0  0  0  0  0  0
    4.3390    0.5963  -23.8259 H   0  0  0  0  0  0
    4.7928   -0.0587  -21.4525 H   0  0  0  0  0  0
    7.6900    2.7755  -22.2950 H   0  0  0  0  0  0
    3.9579    2.4414  -20.6550 H   0  0  0  0  0  0
    5.2124    1.4534  -19.7154 H   0  0  0  0  0  0
   -1.4133    3.3759  -26.9485 H   0  0  0  0  0  0
    0.2544    2.0252  -20.7803 H   0  0  0  0  0  0
    7.0701    0.5445  -21.5036 H   0  0  0  0  0  0
   -2.8044    3.4849  -28.4267 H   0  0  0  0  0  0
    3.6190   10.2850  -23.6600 O   0  0  0  0  0  0
    5.6990    8.5690  -21.6330 N   0  3  0  0  0  0
    4.3020   11.1930  -21.6980 N   0  0  0  0  0  0
    5.1020    7.2330  -21.9920 C   0  0  0  0  0  0
    5.7300    9.6060  -22.7240 C   0  0  0  0  0  0
    3.5750    7.2460  -22.2070 C   0  0  0  0  0  0
    4.4350   10.3810  -22.7560 C   0  0  0  0  0  0
    6.6327    8.4310  -21.2791 H   0  0  0  0  0  0
    5.2151    8.9439  -20.8322 H   0  0  0  0  0  0
    5.0129   11.2180  -20.9951 H   0  0  0  0  0  0
    3.4920   11.7730  -21.6110 H   0  0  0  0  0  0
    5.3539    6.5002  -21.2112 H   0  0  0  0  0  0
    5.5942    6.8458  -22.8964 H   0  0  0  0  0  0
    5.8849    9.1122  -23.6946 H   0  0  0  0  0  0
    6.5675   10.2974  -22.5489 H   0  0  0  0  0  0
    3.3149    8.0254  -22.9384 H   0  0  0  0  0  0
    3.0751    7.5160  -21.2651 H   0  0  0  0  0  0
  1  2  2  0  0  0
  1  3  1  0  0  0
  1 34  1  0  0  0
  2  6  1  0  0  0
  2 35  1  0  0  0
  3  5  2  0  0  0
  3 27  1  0  0  0
  4  5  1  0  0  0
  4  6  2  0  0  0
  4 18  1  0  0  0
  5 24  1  0  0  0
  6 10  1  0  0  0
  7 10  2  0  0  0
  7 23  1  0  0  0
  7 33  1  0  0  0
  8 21  1  0  0  0
  8 22  1  0  0  0
  8 36  1  0  0  0
  8 37  1  0  0  0
  9 21  1  0  0  0
  9 31  1  0  0  0
  9 38  1  0  0  0
  9 39  1  0  0  0
 10 40  1  0  0  0
 11 12  1  0  0  0
 11 14  2  0  0  0
 11 15  1  0  0  0
 12 17  1  0  0  0
 12 28  2  0  0  0
 13 28  1  0  0  0
 13 29  2  0  0  0
 13 57  1  0  0  0
 14 29  1  0  0  0
 14 31  1  0  0  0
 15 30  2  0  0  0
 15 41  1  0  0  0
 16 17  2  0  0  0
 16 18  1  0  0  0
 16 30  1  0  0  0
 17 26  1  0  0  0
 18 23  2  0  0  0
 19 20  1  0  0  0
 19 31  1  0  0  0
 19 42  1  0  0  0
 19 43  1  0  0  0
 20 22  1  0  0  0
 20 32  1  0  0  0
 20 44  1  0  0  0
 21 32  1  0  0  0
 21 45  1  0  0  0
 22 46  1  0  0  0
 22 47  1  0  0  0
 23 48  1  0  0  0
 24 25  3  0  0  0
 25 49  1  0  0  0
 32 50  1  0  0  0
 33 51  1  0  0  0
 52 58  2  0  0  0
 53 55  1  0  0  0
 53 56  1  0  0  0
 53 59  1  0  0  0
 53 60  1  0  0  0
 54 58  1  0  0  0
 54 61  1  0  0  0
 54 62  1  0  0  0
 55 57  1  0  0  0
 55 63  1  0  0  0
 55 64  1  0  0  0
 56 58  1  0  0  0
 56 65  1  0  0  0
 56 66  1  0  0  0
 57 67  1  0  0  0
 57 68  1  0  0  0
M  CHG  1  53   1
M  END
> <s_m_entry_id>
106

> <s_m_entry_name>
000000106.1

> <s_m_Source_Path>
/Users/zaksoul/Documents/2

> <s_m_Source_File>
000000106.mol2

> <i_m_Source_File_Index>
1

$$$$
No_0_117
                    3D
 Schrodinger Suite 2022-4.
 72 78  0  0  1  0            999 V2000
   -5.1100    3.5030  -22.2400 C   0  0  0  0  0  0
   -5.3600    3.6810  -23.5800 C   0  0  0  0  0  0
   -3.8720    3.2830  -21.8790 C   0  0  0  0  0  0
   -2.9490    3.4260  -24.0300 C   0  0  0  0  0  0
   -2.8050    3.1900  -22.6060 C   0  0  0  0  0  0
   -4.2940    3.6520  -24.5740 C   0  0  0  0  0  0
   -3.5050    3.6860  -26.7600 C   0  0  0  0  0  0
    6.1540    3.2210  -21.3370 C   0  0  0  0  0  0
    6.0530    3.3510  -23.8890 C   0  0  0  0  0  0
   -4.5270    3.7680  -25.9130 C   0  0  0  0  0  0
    2.2560    3.8010  -23.9680 C   0  0  0  0  0  0
    1.4020    4.8890  -23.6860 C   0  0  0  0  0  0
    3.1570    6.1330  -22.9820 C   0  0  0  0  0  0
    3.6460    4.0290  -23.6340 C   0  0  0  0  0  0
    1.7490    2.6680  -24.6340 C   0  0  0  0  0  0
   -0.4000    3.4260  -24.5610 C   0  0  0  0  0  0
    0.0860    4.6620  -23.9580 C   0  0  0  0  0  0
   -1.8470    3.3940  -24.9380 C   0  0  0  0  0  0
    4.3110    1.5490  -23.3230 C   0  0  0  0  0  0
    5.2350    1.2210  -22.1600 C   0  0  2  0  0  0
    6.7960    2.8010  -22.6770 C   0  0  2  0  0  0
    5.1720    2.2250  -20.9970 C   0  0  0  0  0  0
   -2.1530    3.5400  -26.3720 C   0  0  0  0  0  0
   -1.4600    2.8140  -21.9850 C   0  0  0  0  0  0
   -0.4290    2.4950  -21.4620 C   0  0  0  0  0  0
   -0.7880    5.6860  -23.6300 F   0  0  0  0  0  0
   -3.6770    3.0510  -20.4920 F   0  0  0  0  0  0
    1.8400    6.0620  -23.1520 N   0  0  0  0  0  0
    4.0820    5.1930  -23.1850 N   0  0  0  0  0  0
    0.4510    2.5440  -24.9600 N   0  0  0  0  0  0
    4.5930    3.0050  -23.7920 N   0  0  0  0  0  0
    6.6470    1.3230  -22.6210 N   0  0  1  0  0  0
   -3.6560    3.6920  -28.1520 O   0  0  0  0  0  0
   -5.9248    3.5482  -21.5265 H   0  0  0  0  0  0
   -6.3738    3.8486  -23.9253 H   0  0  0  0  0  0
    5.6594    4.1960  -21.4581 H   0  0  0  0  0  0
    6.9269    3.2543  -20.5550 H   0  0  0  0  0  0
    6.4739    2.9139  -24.8065 H   0  0  0  0  0  0
    6.1680    4.4444  -23.9233 H   0  0  0  0  0  0
   -5.5362    3.9255  -26.2761 H   0  0  0  0  0  0
    2.4141    1.8554  -24.9029 H   0  0  0  0  0  0
    3.2646    1.4663  -22.9940 H   0  0  0  0  0  0
    4.5047    0.8528  -24.1523 H   0  0  0  0  0  0
    5.0311    0.2048  -21.7916 H   0  0  0  0  0  0
    7.8581    3.0857  -22.7073 H   0  0  0  0  0  0
    4.1756    2.6904  -20.9708 H   0  0  0  0  0  0
    5.4708    1.7223  -20.0653 H   0  0  0  0  0  0
   -1.3711    3.5380  -27.1228 H   0  0  0  0  0  0
    0.4784    2.2132  -21.0013 H   0  0  0  0  0  0
    7.2959    0.8441  -21.9026 H   0  0  0  0  0  0
   -2.8024    3.6238  -28.5634 H   0  0  0  0  0  0
    4.8260    8.7830  -20.6310 N   0  3  0  0  0  0
    5.7960   10.7340  -24.4510 N   0  0  0  0  0  0
    3.6750    7.4880  -22.5100 C   0  0  0  0  0  0
    6.2790    9.7350  -22.4980 C   0  0  0  0  0  0
    4.3490    7.4390  -21.1250 C   0  0  0  0  0  0
    6.2000    9.2310  -21.0680 C   0  0  0  0  0  0
    7.3560    9.5480  -23.4050 C   0  0  0  0  0  0
    7.0230   10.1550  -24.5430 C   0  0  0  0  0  0
    5.3840   10.4560  -23.1820 C   0  0  0  0  0  0
    4.7760    8.8020  -19.6244 H   0  0  0  0  0  0
    4.1507    9.4873  -20.8841 H   0  0  0  0  0  0
    5.4030   11.2390  -25.2581 H   0  0  0  0  0  0
    4.3862    7.8851  -23.2492 H   0  0  0  0  0  0
    2.8434    8.2077  -22.4870 H   0  0  0  0  0  0
    3.6492    7.0091  -20.3932 H   0  0  0  0  0  0
    5.1975    6.7396  -21.1560 H   0  0  0  0  0  0
    6.9129    8.4041  -20.9340 H   0  0  0  0  0  0
    6.5621   10.0142  -20.3858 H   0  0  0  0  0  0
    8.2331    8.9899  -23.0980 H   0  0  0  0  0  0
    7.5892   10.2290  -25.4644 H   0  0  0  0  0  0
    4.4213   10.8133  -22.8347 H   0  0  0  0  0  0
  1  2  2  0  0  0
  1  3  1  0  0  0
  1 34  1  0  0  0
  2  6  1  0  0  0
  2 35  1  0  0  0
  3  5  2  0  0  0
  3 27  1  0  0  0
  4  5  1  0  0  0
  4  6  2  0  0  0
  4 18  1  0  0  0
  5 24  1  0  0  0
  6 10  1  0  0  0
  7 10  2  0  0  0
  7 23  1  0  0  0
  7 33  1  0  0  0
  8 21  1  0  0  0
  8 22  1  0  0  0
  8 36  1  0  0  0
  8 37  1  0  0  0
  9 21  1  0  0  0
  9 31  1  0  0  0
  9 38  1  0  0  0
  9 39  1  0  0  0
 10 40  1  0  0  0
 11 12  1  0  0  0
 11 14  2  0  0  0
 11 15  1  0  0  0
 12 17  1  0  0  0
 12 28  2  0  0  0
 13 28  1  0  0  0
 13 29  2  0  0  0
 13 54  1  0  0  0
 14 29  1  0  0  0
 14 31  1  0  0  0
 15 30  2  0  0  0
 15 41  1  0  0  0
 16 17  2  0  0  0
 16 18  1  0  0  0
 16 30  1  0  0  0
 17 26  1  0  0  0
 18 23  2  0  0  0
 19 20  1  0  0  0
 19 31  1  0  0  0
 19 42  1  0  0  0
 19 43  1  0  0  0
 20 22  1  0  0  0
 20 32  1  0  0  0
 20 44  1  0  0  0
 21 32  1  0  0  0
 21 45  1  0  0  0
 22 46  1  0  0  0
 22 47  1  0  0  0
 23 48  1  0  0  0
 24 25  3  0  0  0
 25 49  1  0  0  0
 32 50  1  0  0  0
 33 51  1  0  0  0
 52 56  1  0  0  0
 52 57  1  0  0  0
 52 61  1  0  0  0
 52 62  1  0  0  0
 53 59  1  0  0  0
 53 60  1  0  0  0
 53 63  1  0  0  0
 54 56  1  0  0  0
 54 64  1  0  0  0
 54 65  1  0  0  0
 55 57  1  0  0  0
 55 58  1  0  0  0
 55 60  2  0  0  0
 56 66  1  0  0  0
 56 67  1  0  0  0
 57 68  1  0  0  0
 57 69  1  0  0  0
 58 59  2  0  0  0
 58 70  1  0  0  0
 59 71  1  0  0  0
 60 72  1  0  0  0
M  CHG  1  52   1
M  END
> <s_m_entry_id>
107

> <s_m_entry_name>
000000107.1

> <s_m_Source_Path>
/Users/zaksoul/Documents/2

> <s_m_Source_File>
000000107.mol2

> <i_m_Source_File_Index>
1

$$$$
No_0_118
                    3D
 Schrodinger Suite 2022-4.
 72 78  0  0  1  0            999 V2000
   -5.1460    3.5540  -22.0010 C   0  0  0  0  0  0
   -5.4070    3.7210  -23.3410 C   0  0  0  0  0  0
   -3.9060    3.3290  -21.6490 C   0  0  0  0  0  0
   -3.0020    3.4430  -23.8100 C   0  0  0  0  0  0
   -2.8470    3.2200  -22.3850 C   0  0  0  0  0  0
   -4.3510    3.6740  -24.3430 C   0  0  0  0  0  0
   -3.5810    3.6820  -26.5360 C   0  0  0  0  0  0
    6.1230    3.1960  -21.1970 C   0  0  0  0  0  0
    6.0000    3.3030  -23.7490 C   0  0  0  0  0  0
   -4.5950    3.7800  -25.6820 C   0  0  0  0  0  0
    2.2060    3.7800  -23.7990 C   0  0  0  0  0  0
    1.3620    4.8770  -23.5190 C   0  0  0  0  0  0
    3.1340    6.1150  -22.8430 C   0  0  0  0  0  0
    3.6000    4.0010  -23.4780 C   0  0  0  0  0  0
    1.6850    2.6450  -24.4490 C   0  0  0  0  0  0
   -0.4580    3.4200  -24.3630 C   0  0  0  0  0  0
    0.0420    4.6570  -23.7770 C   0  0  0  0  0  0
   -1.9080    3.3940  -24.7270 C   0  0  0  0  0  0
    4.2500    1.5190  -23.1500 C   0  0  0  0  0  0
    5.1820    1.1950  -21.9930 C   0  0  2  0  0  0
    6.7500    2.7580  -22.5380 C   0  0  2  0  0  0
    5.1370    2.2110  -20.8390 C   0  0  0  0  0  0
   -2.2270    3.5290  -26.1590 C   0  0  0  0  0  0
   -1.4990    2.8400  -21.7720 C   0  0  0  0  0  0
   -0.4660    2.5180  -21.2550 C   0  0  0  0  0  0
   -0.8210    5.6910  -23.4510 F   0  0  0  0  0  0
   -3.7010    3.1080  -20.2620 F   0  0  0  0  0  0
    1.8140    6.0510  -23.0000 N   0  0  0  0  0  0
    4.0490    5.1660  -23.0450 N   0  0  0  0  0  0
    0.3820    2.5270  -24.7620 N   0  0  0  0  0  0
    4.5390    2.9680  -23.6360 N   0  0  0  0  0  0
    6.5900    1.2820  -22.4660 N   0  0  1  0  0  0
   -3.7440    3.6750  -27.9270 O   0  0  0  0  0  0
   -5.9543    3.6122  -21.2811 H   0  0  0  0  0  0
   -6.4228    3.8926  -23.6783 H   0  0  0  0  0  0
    5.6355    4.1741  -21.3222 H   0  0  0  0  0  0
    6.9035    3.2303  -20.4226 H   0  0  0  0  0  0
    6.4090    2.8536  -24.6659 H   0  0  0  0  0  0
    6.1231    4.3951  -23.7944 H   0  0  0  0  0  0
   -5.6063    3.9415  -26.0372 H   0  0  0  0  0  0
    2.3404    1.8239  -24.7160 H   0  0  0  0  0  0
    3.2060    1.4474  -22.8111 H   0  0  0  0  0  0
    4.4305    0.8130  -23.9740 H   0  0  0  0  0  0
    4.9742    0.1840  -21.6126 H   0  0  0  0  0  0
    7.8138    3.0345  -22.5814 H   0  0  0  0  0  0
    4.1442    2.6837  -20.8077 H   0  0  0  0  0  0
    5.4405    1.7149  -19.9053 H   0  0  0  0  0  0
   -1.4516    3.5140  -26.9163 H   0  0  0  0  0  0
    0.4437    2.2341  -20.8001 H   0  0  0  0  0  0
    7.2423    0.8050  -21.7495 H   0  0  0  0  0  0
   -2.8948    3.5968  -28.3457 H   0  0  0  0  0  0
    5.2110    8.7110  -20.7750 N   0  3  0  0  0  0
    4.8980   11.0650  -24.4770 N   0  0  0  0  0  0
    3.6650    7.4700  -22.3890 C   0  0  0  0  0  0
    5.9930    9.9580  -22.8590 C   0  0  0  0  0  0
    4.7110    7.3730  -21.2600 C   0  0  0  0  0  0
    6.3650    9.3300  -21.5270 C   0  0  0  0  0  0
    6.7740    9.9580  -24.0440 C   0  0  0  0  0  0
    6.0840   10.6220  -24.9700 C   0  0  0  0  0  0
    4.8890   10.6410  -23.1820 C   0  0  0  0  0  0
    5.4520    8.6400  -19.7988 H   0  0  0  0  0  0
    4.4428    9.3632  -20.7520 H   0  0  0  0  0  0
    4.2539   11.5941  -25.0821 H   0  0  0  0  0  0
    4.1031    7.9972  -23.2493 H   0  0  0  0  0  0
    2.8257    8.0982  -22.0559 H   0  0  0  0  0  0
    4.2839    6.8149  -20.4138 H   0  0  0  0  0  0
    5.5631    6.7679  -21.6031 H   0  0  0  0  0  0
    7.1449    8.5711  -21.6880 H   0  0  0  0  0  0
    6.8509   10.0848  -20.8912 H   0  0  0  0  0  0
    7.7403    9.4669  -24.0570 H   0  0  0  0  0  0
    6.3540   10.8300  -25.9990 H   0  0  0  0  0  0
    4.0437   10.8691  -22.5428 H   0  0  0  0  0  0
  1  2  2  0  0  0
  1  3  1  0  0  0
  1 34  1  0  0  0
  2  6  1  0  0  0
  2 35  1  0  0  0
  3  5  2  0  0  0
  3 27  1  0  0  0
  4  5  1  0  0  0
  4  6  2  0  0  0
  4 18  1  0  0  0
  5 24  1  0  0  0
  6 10  1  0  0  0
  7 10  2  0  0  0
  7 23  1  0  0  0
  7 33  1  0  0  0
  8 21  1  0  0  0
  8 22  1  0  0  0
  8 36  1  0  0  0
  8 37  1  0  0  0
  9 21  1  0  0  0
  9 31  1  0  0  0
  9 38  1  0  0  0
  9 39  1  0  0  0
 10 40  1  0  0  0
 11 12  1  0  0  0
 11 14  2  0  0  0
 11 15  1  0  0  0
 12 17  1  0  0  0
 12 28  2  0  0  0
 13 28  1  0  0  0
 13 29  2  0  0  0
 13 54  1  0  0  0
 14 29  1  0  0  0
 14 31  1  0  0  0
 15 30  2  0  0  0
 15 41  1  0  0  0
 16 17  2  0  0  0
 16 18  1  0  0  0
 16 30  1  0  0  0
 17 26  1  0  0  0
 18 23  2  0  0  0
 19 20  1  0  0  0
 19 31  1  0  0  0
 19 42  1  0  0  0
 19 43  1  0  0  0
 20 22  1  0  0  0
 20 32  1  0  0  0
 20 44  1  0  0  0
 21 32  1  0  0  0
 21 45  1  0  0  0
 22 46  1  0  0  0
 22 47  1  0  0  0
 23 48  1  0  0  0
 24 25  3  0  0  0
 25 49  1  0  0  0
 32 50  1  0  0  0
 33 51  1  0  0  0
 52 56  1  0  0  0
 52 57  1  0  0  0
 52 61  1  0  0  0
 52 62  1  0  0  0
 53 59  1  0  0  0
 53 60  1  0  0  0
 53 63  1  0  0  0
 54 56  1  0  0  0
 54 64  1  0  0  0
 54 65  1  0  0  0
 55 57  1  0  0  0
 55 58  1  0  0  0
 55 60  2  0  0  0
 56 66  1  0  0  0
 56 67  1  0  0  0
 57 68  1  0  0  0
 57 69  1  0  0  0
 58 59  2  0  0  0
 58 70  1  0  0  0
 59 71  1  0  0  0
 60 72  1  0  0  0
M  CHG  1  52   1
M  END
> <s_m_entry_id>
108

> <s_m_entry_name>
000000108.1

> <s_m_Source_Path>
/Users/zaksoul/Documents/2

> <s_m_Source_File>
000000108.mol2

> <i_m_Source_File_Index>
1

$$$$
No_0_119
                    3D
 Schrodinger Suite 2022-4.
 72 78  0  0  1  0            999 V2000
   -5.0800    3.3750  -22.1350 C   0  0  0  0  0  0
   -5.3340    3.5510  -23.4740 C   0  0  0  0  0  0
   -3.8380    3.1690  -21.7760 C   0  0  0  0  0  0
   -2.9220    3.3250  -23.9290 C   0  0  0  0  0  0
   -2.7720    3.0890  -22.5050 C   0  0  0  0  0  0
   -4.2710    3.5360  -24.4690 C   0  0  0  0  0  0
   -3.4860    3.5810  -26.6570 C   0  0  0  0  0  0
    6.1880    3.2230  -21.2530 C   0  0  0  0  0  0
    6.0810    3.3550  -23.8040 C   0  0  0  0  0  0
   -4.5080    3.6510  -25.8090 C   0  0  0  0  0  0
    2.2790    3.7610  -23.8760 C   0  0  0  0  0  0
    1.4130    4.8380  -23.5910 C   0  0  0  0  0  0
    3.1550    6.1020  -22.8890 C   0  0  0  0  0  0
    3.6660    4.0040  -23.5440 C   0  0  0  0  0  0
    1.7840    2.6220  -24.5420 C   0  0  0  0  0  0
   -0.3740    3.3560  -24.4640 C   0  0  0  0  0  0
    0.0990    4.5960  -23.8600 C   0  0  0  0  0  0
   -1.8210    3.3060  -24.8390 C   0  0  0  0  0  0
    4.3610    1.5320  -23.2370 C   0  0  0  0  0  0
    5.2910    1.2130  -22.0760 C   0  0  2  0  0  0
    6.8320    2.8120  -22.5940 C   0  0  2  0  0  0
    5.2190    2.2160  -20.9120 C   0  0  0  0  0  0
   -2.1310    3.4510  -26.2720 C   0  0  0  0  0  0
   -1.4220    2.7280  -21.8870 C   0  0  0  0  0  0
   -0.3860    2.4200  -21.3660 C   0  0  0  0  0  0
   -0.7870    5.6090  -23.5310 F   0  0  0  0  0  0
   -3.6390    2.9380  -20.3900 F   0  0  0  0  0  0
    1.8380    6.0150  -23.0560 N   0  0  0  0  0  0
    4.0900    5.1730  -23.0940 N   0  0  0  0  0  0
    0.4860    2.4830  -24.8660 N   0  0  0  0  0  0
    4.6260    2.9910  -23.7050 N   0  0  0  0  0  0
    6.7010    1.3320  -22.5390 N   0  0  1  0  0  0
   -3.6390    3.5870  -28.0490 O   0  0  0  0  0  0
   -5.8937    3.4101  -21.4196 H   0  0  0  0  0  0
   -6.3503    3.7075  -23.8171 H   0  0  0  0  0  0
    5.6824    4.1928  -21.3711 H   0  0  0  0  0  0
    6.9617    3.2644  -20.4722 H   0  0  0  0  0  0
    6.5051    2.9239  -24.7228 H   0  0  0  0  0  0
    6.1829    4.4498  -23.8373 H   0  0  0  0  0  0
   -5.5197    3.7977  -26.1697 H   0  0  0  0  0  0
    2.4575    1.8170  -24.8130 H   0  0  0  0  0  0
    3.3163    1.4371  -22.9059 H   0  0  0  0  0  0
    4.5608    0.8388  -24.0674 H   0  0  0  0  0  0
    5.0991    0.1941  -21.7084 H   0  0  0  0  0  0
    7.8907    3.1087  -22.6263 H   0  0  0  0  0  0
    4.2170    2.6691  -20.8837 H   0  0  0  0  0  0
    5.5248    1.7154  -19.9815 H   0  0  0  0  0  0
   -1.3506    3.4580  -27.0243 H   0  0  0  0  0  0
    0.5254    2.1489  -20.9068 H   0  0  0  0  0  0
    7.3568    0.8602  -21.8222 H   0  0  0  0  0  0
   -2.7858    3.5296  -28.4627 H   0  0  0  0  0  0
    4.3670    8.8130  -20.3520 N   0  3  0  0  0  0
    5.7060   10.9500  -22.3260 N   0  0  0  0  0  0
    3.6570    7.4620  -22.4170 C   0  0  0  0  0  0
    6.1430    9.7390  -21.8790 C   0  0  0  0  0  0
    3.9850    7.4650  -20.9080 C   0  0  0  0  0  0
    5.8120    9.2200  -20.4950 C   0  0  0  0  0  0
    6.9130    9.9800  -23.9290 C   0  0  0  0  0  0
    6.8740    9.1170  -22.8060 C   0  0  0  0  0  0
    6.2040   11.0570  -23.5890 C   0  0  0  0  0  0
    4.1040    8.8580  -19.3800 H   0  0  0  0  0  0
    3.7810    9.5210  -20.7660 H   0  0  0  0  0  0
    5.1278   11.5462  -21.7168 H   0  0  0  0  0  0
    4.5561    7.7390  -22.9870 H   0  0  0  0  0  0
    2.8950    8.2270  -22.6270 H   0  0  0  0  0  0
    3.1248    7.0709  -20.3469 H   0  0  0  0  0  0
    4.7943    6.7468  -20.7099 H   0  0  0  0  0  0
    6.4581    8.3608  -20.2619 H   0  0  0  0  0  0
    6.0488    9.9925  -19.7485 H   0  0  0  0  0  0
    7.4552    9.6859  -24.8204 H   0  0  0  0  0  0
    7.2943    8.1393  -22.5999 H   0  0  0  0  0  0
    6.0011   11.9444  -24.1776 H   0  0  0  0  0  0
  1  2  2  0  0  0
  1  3  1  0  0  0
  1 34  1  0  0  0
  2  6  1  0  0  0
  2 35  1  0  0  0
  3  5  2  0  0  0
  3 27  1  0  0  0
  4  5  1  0  0  0
  4  6  2  0  0  0
  4 18  1  0  0  0
  5 24  1  0  0  0
  6 10  1  0  0  0
  7 10  2  0  0  0
  7 23  1  0  0  0
  7 33  1  0  0  0
  8 21  1  0  0  0
  8 22  1  0  0  0
  8 36  1  0  0  0
  8 37  1  0  0  0
  9 21  1  0  0  0
  9 31  1  0  0  0
  9 38  1  0  0  0
  9 39  1  0  0  0
 10 40  1  0  0  0
 11 12  1  0  0  0
 11 14  2  0  0  0
 11 15  1  0  0  0
 12 17  1  0  0  0
 12 28  2  0  0  0
 13 28  1  0  0  0
 13 29  2  0  0  0
 13 54  1  0  0  0
 14 29  1  0  0  0
 14 31  1  0  0  0
 15 30  2  0  0  0
 15 41  1  0  0  0
 16 17  2  0  0  0
 16 18  1  0  0  0
 16 30  1  0  0  0
 17 26  1  0  0  0
 18 23  2  0  0  0
 19 20  1  0  0  0
 19 31  1  0  0  0
 19 42  1  0  0  0
 19 43  1  0  0  0
 20 22  1  0  0  0
 20 32  1  0  0  0
 20 44  1  0  0  0
 21 32  1  0  0  0
 21 45  1  0  0  0
 22 46  1  0  0  0
 22 47  1  0  0  0
 23 48  1  0  0  0
 24 25  3  0  0  0
 25 49  1  0  0  0
 32 50  1  0  0  0
 33 51  1  0  0  0
 52 56  1  0  0  0
 52 57  1  0  0  0
 52 61  1  0  0  0
 52 62  1  0  0  0
 53 55  1  0  0  0
 53 60  1  0  0  0
 53 63  1  0  0  0
 54 56  1  0  0  0
 54 64  1  0  0  0
 54 65  1  0  0  0
 55 57  1  0  0  0
 55 59  2  0  0  0
 56 66  1  0  0  0
 56 67  1  0  0  0
 57 68  1  0  0  0
 57 69  1  0  0  0
 58 59  1  0  0  0
 58 60  2  0  0  0
 58 70  1  0  0  0
 59 71  1  0  0  0
 60 72  1  0  0  0
M  CHG  1  52   1
M  END
> <s_m_entry_id>
109

> <s_m_entry_name>
000000109.1

> <s_m_Source_Path>
/Users/zaksoul/Documents/2

> <s_m_Source_File>
000000109.mol2

> <i_m_Source_File_Index>
1

$$$$
No_0_120
                    3D
 Schrodinger Suite 2022-4.
 71 77  0  0  1  0            999 V2000
   -5.0950    3.5910  -22.1630 C   0  0  0  0  0  0
   -5.3350    3.7570  -23.5060 C   0  0  0  0  0  0
   -3.8640    3.3430  -21.7940 C   0  0  0  0  0  0
   -2.9300    3.4340  -23.9430 C   0  0  0  0  0  0
   -2.7970    3.2130  -22.5160 C   0  0  0  0  0  0
   -4.2670    3.6880  -24.4950 C   0  0  0  0  0  0
   -3.4700    3.6740  -26.6780 C   0  0  0  0  0  0
    6.1550    3.0280  -21.2130 C   0  0  0  0  0  0
    6.0660    3.1280  -23.7660 C   0  0  0  0  0  0
   -4.4930    3.7930  -25.8370 C   0  0  0  0  0  0
    2.2820    3.6750  -23.8660 C   0  0  0  0  0  0
    1.4560    4.7880  -23.6010 C   0  0  0  0  0  0
    3.2410    5.9960  -22.9060 C   0  0  0  0  0  0
    3.6760    3.8720  -23.5290 C   0  0  0  0  0  0
    1.7490    2.5470  -24.5200 C   0  0  0  0  0  0
   -0.3800    3.3620  -24.4640 C   0  0  0  0  0  0
    0.1350    4.5920  -23.8750 C   0  0  0  0  0  0
   -1.8260    3.3620  -24.8460 C   0  0  0  0  0  0
    4.2760    1.3790  -23.1840 C   0  0  0  0  0  0
    5.1870    1.0420  -22.0140 C   0  0  2  0  0  0
    6.7900    2.5740  -22.5450 C   0  0  2  0  0  0
    5.1470    2.0630  -20.8640 C   0  0  0  0  0  0
   -2.1230    3.4980  -26.2830 C   0  0  0  0  0  0
   -1.4650    2.8100  -21.8850 C   0  0  0  0  0  0
   -0.4440    2.4710  -21.3530 C   0  0  0  0  0  0
   -0.7130    5.6420  -23.5640 F   0  0  0  0  0  0
   -3.6800    3.1240  -20.4040 F   0  0  0  0  0  0
    1.9230    5.9560  -23.0800 N   0  0  0  0  0  0
    4.1410    5.0300  -23.0930 N   0  0  0  0  0  0
    0.4490    2.4530  -24.8490 N   0  0  0  0  0  0
    4.5980    2.8210  -23.6710 N   0  0  0  0  0  0
    6.6030    1.1020  -22.4700 N   0  0  1  0  0  0
   -3.6150    3.6660  -28.0710 O   0  0  0  0  0  0
   -5.9110    3.6653  -21.4533 H   0  0  0  0  0  0
   -6.3428    3.9467  -23.8573 H   0  0  0  0  0  0
    5.6866    4.0142  -21.3473 H   0  0  0  0  0  0
    6.9261    3.0512  -20.4288 H   0  0  0  0  0  0
    6.4788    2.6688  -24.6763 H   0  0  0  0  0  0
    6.2093    4.2176  -23.8144 H   0  0  0  0  0  0
   -5.4964    3.9728  -26.2056 H   0  0  0  0  0  0
    2.3936    1.7136  -24.7750 H   0  0  0  0  0  0
    3.2266    1.3275  -22.8581 H   0  0  0  0  0  0
    4.4545    0.6679  -24.0040 H   0  0  0  0  0  0
    4.9559    0.0361  -21.6336 H   0  0  0  0  0  0
    7.8593    2.8302  -22.5753 H   0  0  0  0  0  0
    4.1624    2.5533  -20.8479 H   0  0  0  0  0  0
    5.4287    1.5642  -19.9249 H   0  0  0  0  0  0
   -1.3390    3.4659  -27.0309 H   0  0  0  0  0  0
    0.4541    2.1720  -20.8849 H   0  0  0  0  0  0
    7.2368    0.6157  -21.7432 H   0  0  0  0  0  0
   -2.7624    3.5709  -28.4790 H   0  0  0  0  0  0
    3.9440    9.0380  -20.5500 N   0  3  0  0  0  0
    6.4150    9.2850  -22.2270 N   0  0  0  0  0  0
    8.3600    8.4140  -21.8140 N   0  0  0  0  0  0
    3.4510    7.6800  -20.9840 C   0  0  0  0  0  0
    5.3150    9.1020  -19.9230 C   0  0  0  0  0  0
    3.7910    7.3420  -22.4490 C   0  0  0  0  0  0
    7.6540    8.3790  -20.6420 C   0  0  0  0  0  0
    6.4610    8.9080  -20.8980 C   0  0  0  0  0  0
    7.5930    8.9580  -22.7420 C   0  0  0  0  0  0
    3.2730    9.4490  -19.9200 H   0  0  0  0  0  0
    3.9090    9.6702  -21.3343 H   0  0  0  0  0  0
    9.3222    8.0479  -21.8470 H   0  0  0  0  0  0
    2.3619    7.6240  -20.8400 H   0  0  0  0  0  0
    3.8750    6.9089  -20.3239 H   0  0  0  0  0  0
    5.3860    8.3491  -19.1241 H   0  0  0  0  0  0
    5.4350   10.0654  -19.4058 H   0  0  0  0  0  0
    4.8827    7.3550  -22.5830 H   0  0  0  0  0  0
    3.4052    8.1356  -23.1057 H   0  0  0  0  0  0
    8.1088    7.9692  -19.7474 H   0  0  0  0  0  0
    7.8001    9.1511  -23.7884 H   0  0  0  0  0  0
  1  2  2  0  0  0
  1  3  1  0  0  0
  1 34  1  0  0  0
  2  6  1  0  0  0
  2 35  1  0  0  0
  3  5  2  0  0  0
  3 27  1  0  0  0
  4  5  1  0  0  0
  4  6  2  0  0  0
  4 18  1  0  0  0
  5 24  1  0  0  0
  6 10  1  0  0  0
  7 10  2  0  0  0
  7 23  1  0  0  0
  7 33  1  0  0  0
  8 21  1  0  0  0
  8 22  1  0  0  0
  8 36  1  0  0  0
  8 37  1  0  0  0
  9 21  1  0  0  0
  9 31  1  0  0  0
  9 38  1  0  0  0
  9 39  1  0  0  0
 10 40  1  0  0  0
 11 12  1  0  0  0
 11 14  2  0  0  0
 11 15  1  0  0  0
 12 17  1  0  0  0
 12 28  2  0  0  0
 13 28  1  0  0  0
 13 29  2  0  0  0
 13 57  1  0  0  0
 14 29  1  0  0  0
 14 31  1  0  0  0
 15 30  2  0  0  0
 15 41  1  0  0  0
 16 17  2  0  0  0
 16 18  1  0  0  0
 16 30  1  0  0  0
 17 26  1  0  0  0
 18 23  2  0  0  0
 19 20  1  0  0  0
 19 31  1  0  0  0
 19 42  1  0  0  0
 19 43  1  0  0  0
 20 22  1  0  0  0
 20 32  1  0  0  0
 20 44  1  0  0  0
 21 32  1  0  0  0
 21 45  1  0  0  0
 22 46  1  0  0  0
 22 47  1  0  0  0
 23 48  1  0  0  0
 24 25  3  0  0  0
 25 49  1  0  0  0
 32 50  1  0  0  0
 33 51  1  0  0  0
 52 55  1  0  0  0
 52 56  1  0  0  0
 52 61  1  0  0  0
 52 62  1  0  0  0
 53 59  1  0  0  0
 53 60  2  0  0  0
 54 58  1  0  0  0
 54 60  1  0  0  0
 54 63  1  0  0  0
 55 57  1  0  0  0
 55 64  1  0  0  0
 55 65  1  0  0  0
 56 59  1  0  0  0
 56 66  1  0  0  0
 56 67  1  0  0  0
 57 68  1  0  0  0
 57 69  1  0  0  0
 58 59  2  0  0  0
 58 70  1  0  0  0
 60 71  1  0  0  0
M  CHG  1  52   1
M  END
> <s_m_entry_id>
110

> <s_m_entry_name>
000000110.1

> <s_m_Source_Path>
/Users/zaksoul/Documents/2

> <s_m_Source_File>
000000110.mol2

> <i_m_Source_File_Index>
1

$$$$
No_0_121
                    3D
 Schrodinger Suite 2022-4.
 71 77  0  0  1  0            999 V2000
   -5.2680    3.5910  -22.1260 C   0  0  0  0  0  0
   -5.5090    3.7530  -23.4690 C   0  0  0  0  0  0
   -4.0300    3.3810  -21.7540 C   0  0  0  0  0  0
   -3.0950    3.5050  -23.9010 C   0  0  0  0  0  0
   -2.9590    3.2860  -22.4740 C   0  0  0  0  0  0
   -4.4380    3.7190  -24.4550 C   0  0  0  0  0  0
   -3.6340    3.7330  -26.6360 C   0  0  0  0  0  0
    5.9920    3.3730  -21.1470 C   0  0  0  0  0  0
    5.9060    3.4760  -23.7010 C   0  0  0  0  0  0
   -4.6630    3.8200  -25.7980 C   0  0  0  0  0  0
    2.1080    3.9060  -23.8100 C   0  0  0  0  0  0
    1.2470    4.9930  -23.5450 C   0  0  0  0  0  0
    2.9920    6.2530  -22.8430 C   0  0  0  0  0  0
    3.4940    4.1450  -23.4680 C   0  0  0  0  0  0
    1.6110    2.7640  -24.4660 C   0  0  0  0  0  0
   -0.5420    3.5120  -24.4150 C   0  0  0  0  0  0
   -0.0660    4.7570  -23.8220 C   0  0  0  0  0  0
   -1.9860    3.4690  -24.8010 C   0  0  0  0  0  0
    4.1690    1.6710  -23.1270 C   0  0  0  0  0  0
    5.0870    1.3600  -21.9550 C   0  0  2  0  0  0
    6.6440    2.9420  -22.4780 C   0  0  2  0  0  0
    5.0130    2.3760  -20.8030 C   0  0  0  0  0  0
   -2.2840    3.5980  -26.2380 C   0  0  0  0  0  0
   -1.6160    2.9220  -21.8400 C   0  0  0  0  0  0
   -0.5870    2.6140  -21.3060 C   0  0  0  0  0  0
   -0.9470    5.7800  -23.5110 F   0  0  0  0  0  0
   -3.8440    3.1650  -20.3640 F   0  0  0  0  0  0
    1.6760    6.1730  -23.0200 N   0  0  0  0  0  0
    3.9220    5.3150  -23.0290 N   0  0  0  0  0  0
    0.3150    2.6300  -24.7990 N   0  0  0  0  0  0
    4.4480    3.1230  -23.6100 N   0  0  0  0  0  0
    6.5020    1.4640  -22.4070 N   0  0  1  0  0  0
   -3.7760    3.7230  -28.0300 O   0  0  0  0  0  0
   -6.0869    3.6402  -21.4175 H   0  0  0  0  0  0
   -6.5214    3.9125  -23.8222 H   0  0  0  0  0  0
    5.4937    4.3444  -21.2812 H   0  0  0  0  0  0
    6.7600    3.4184  -20.3608 H   0  0  0  0  0  0
    6.3351    3.0307  -24.6107 H   0  0  0  0  0  0
    6.0171    4.5694  -23.7464 H   0  0  0  0  0  0
   -5.6707    3.9687  -26.1687 H   0  0  0  0  0  0
    2.2812    1.9513  -24.7218 H   0  0  0  0  0  0
    3.1212    1.5872  -22.8030 H   0  0  0  0  0  0
    4.3718    0.9667  -23.9473 H   0  0  0  0  0  0
    4.8862    0.3468  -21.5766 H   0  0  0  0  0  0
    7.7051    3.2307  -22.5053 H   0  0  0  0  0  0
    4.0144    2.8370  -20.7879 H   0  0  0  0  0  0
    5.3078    1.8844  -19.8642 H   0  0  0  0  0  0
   -1.4972    3.5920  -26.9836 H   0  0  0  0  0  0
    0.3188    2.3421  -20.8361 H   0  0  0  0  0  0
    7.1478    0.9957  -21.6789 H   0  0  0  0  0  0
   -2.9193    3.6557  -28.4351 H   0  0  0  0  0  0
    4.2710    9.0360  -20.4080 N   0  3  0  0  0  0
    5.6390   10.0410  -22.8770 N   0  0  0  0  0  0
    7.6560    9.5740  -23.5290 N   0  0  0  0  0  0
    3.8250    7.6720  -20.8760 C   0  0  0  0  0  0
    5.7530    9.3160  -20.4250 C   0  0  0  0  0  0
    3.4990    7.6150  -22.3820 C   0  0  0  0  0  0
    7.5780    9.2290  -22.2070 C   0  0  0  0  0  0
    6.3390    9.5110  -21.8110 C   0  0  0  0  0  0
    6.4830   10.0530  -23.9010 C   0  0  0  0  0  0
    3.9128    9.2011  -19.4804 H   0  0  0  0  0  0
    3.7942    9.7427  -20.9458 H   0  0  0  0  0  0
    8.5362    9.4370  -24.0461 H   0  0  0  0  0  0
    2.9426    7.3588  -20.2987 H   0  0  0  0  0  0
    4.6060    6.9330  -20.6440 H   0  0  0  0  0  0
    6.2850    8.4981  -19.9170 H   0  0  0  0  0  0
    5.9631   10.2054  -19.8127 H   0  0  0  0  0  0
    4.3949    7.8860  -22.9599 H   0  0  0  0  0  0
    2.7507    8.3843  -22.6231 H   0  0  0  0  0  0
    8.4432    8.8139  -21.7029 H   0  0  0  0  0  0
    6.1580   10.4250  -24.8659 H   0  0  0  0  0  0
  1  2  2  0  0  0
  1  3  1  0  0  0
  1 34  1  0  0  0
  2  6  1  0  0  0
  2 35  1  0  0  0
  3  5  2  0  0  0
  3 27  1  0  0  0
  4  5  1  0  0  0
  4  6  2  0  0  0
  4 18  1  0  0  0
  5 24  1  0  0  0
  6 10  1  0  0  0
  7 10  2  0  0  0
  7 23  1  0  0  0
  7 33  1  0  0  0
  8 21  1  0  0  0
  8 22  1  0  0  0
  8 36  1  0  0  0
  8 37  1  0  0  0
  9 21  1  0  0  0
  9 31  1  0  0  0
  9 38  1  0  0  0
  9 39  1  0  0  0
 10 40  1  0  0  0
 11 12  1  0  0  0
 11 14  2  0  0  0
 11 15  1  0  0  0
 12 17  1  0  0  0
 12 28  2  0  0  0
 13 28  1  0  0  0
 13 29  2  0  0  0
 13 57  1  0  0  0
 14 29  1  0  0  0
 14 31  1  0  0  0
 15 30  2  0  0  0
 15 41  1  0  0  0
 16 17  2  0  0  0
 16 18  1  0  0  0
 16 30  1  0  0  0
 17 26  1  0  0  0
 18 23  2  0  0  0
 19 20  1  0  0  0
 19 31  1  0  0  0
 19 42  1  0  0  0
 19 43  1  0  0  0
 20 22  1  0  0  0
 20 32  1  0  0  0
 20 44  1  0  0  0
 21 32  1  0  0  0
 21 45  1  0  0  0
 22 46  1  0  0  0
 22 47  1  0  0  0
 23 48  1  0  0  0
 24 25  3  0  0  0
 25 49  1  0  0  0
 32 50  1  0  0  0
 33 51  1  0  0  0
 52 55  1  0  0  0
 52 56  1  0  0  0
 52 61  1  0  0  0
 52 62  1  0  0  0
 53 59  1  0  0  0
 53 60  2  0  0  0
 54 58  1  0  0  0
 54 60  1  0  0  0
 54 63  1  0  0  0
 55 57  1  0  0  0
 55 64  1  0  0  0
 55 65  1  0  0  0
 56 59  1  0  0  0
 56 66  1  0  0  0
 56 67  1  0  0  0
 57 68  1  0  0  0
 57 69  1  0  0  0
 58 59  2  0  0  0
 58 70  1  0  0  0
 60 71  1  0  0  0
M  CHG  1  52   1
M  END
> <s_m_entry_id>
111

> <s_m_entry_name>
000000111.1

> <s_m_Source_Path>
/Users/zaksoul/Documents/2

> <s_m_Source_File>
000000111.mol2

> <i_m_Source_File_Index>
1

$$$$
No_0_122
                    3D
 Schrodinger Suite 2022-4.
 73 79  0  0  1  0            999 V2000
   -5.0860    3.4480  -22.2500 C   0  0  0  0  0  0
   -5.3260    3.6480  -23.5890 C   0  0  0  0  0  0
   -3.8470    3.2400  -21.8820 C   0  0  0  0  0  0
   -2.9090    3.4390  -24.0220 C   0  0  0  0  0  0
   -2.7730    3.1780  -22.6020 C   0  0  0  0  0  0
   -4.2530    3.6540  -24.5730 C   0  0  0  0  0  0
   -3.4450    3.7430  -26.7510 C   0  0  0  0  0  0
    6.1740    3.3200  -21.2540 C   0  0  0  0  0  0
    6.0920    3.4990  -23.8030 C   0  0  0  0  0  0
   -4.4760    3.7930  -25.9120 C   0  0  0  0  0  0
    2.2890    3.8920  -23.9070 C   0  0  0  0  0  0
    1.4160    4.9610  -23.6120 C   0  0  0  0  0  0
    3.1470    6.2180  -22.8690 C   0  0  0  0  0  0
    3.6730    4.1340  -23.5560 C   0  0  0  0  0  0
    1.8060    2.7640  -24.5990 C   0  0  0  0  0  0
   -0.3550    3.4880  -24.5300 C   0  0  0  0  0  0
    0.1060    4.7190  -23.8990 C   0  0  0  0  0  0
   -1.7980    3.4410  -24.9210 C   0  0  0  0  0  0
    4.3730    1.6590  -23.2880 C   0  0  0  0  0  0
    5.2920    1.3230  -22.1230 C   0  0  2  0  0  0
    6.8330    2.9360  -22.5960 C   0  0  2  0  0  0
    5.2050    2.3030  -20.9420 C   0  0  0  0  0  0
   -2.0940    3.6100  -26.3540 C   0  0  0  0  0  0
   -1.4280    2.8100  -21.9760 C   0  0  0  0  0  0
   -0.3960    2.4960  -21.4500 C   0  0  0  0  0  0
   -0.7860    5.7230  -23.5600 F   0  0  0  0  0  0
   -3.6610    2.9840  -20.4990 F   0  0  0  0  0  0
    1.8320    6.1290  -23.0510 N   0  0  0  0  0  0
    4.0870    5.2960  -23.0810 N   0  0  0  0  0  0
    0.5120    2.6270  -24.9390 N   0  0  0  0  0  0
    4.6370    3.1280  -23.7260 N   0  0  0  0  0  0
    6.7070    1.4550  -22.5690 N   0  0  1  0  0  0
   -3.5840    3.7730  -28.1440 O   0  0  0  0  0  0
   -5.9070    3.4671  -21.5424 H   0  0  0  0  0  0
   -6.3395    3.8066  -23.9392 H   0  0  0  0  0  0
    5.6655    4.2896  -21.3599 H   0  0  0  0  0  0
    6.9398    3.3503  -20.4650 H   0  0  0  0  0  0
    6.5267    3.0854  -24.7249 H   0  0  0  0  0  0
    6.1909    4.5945  -23.8161 H   0  0  0  0  0  0
   -5.4845    3.9425  -26.2803 H   0  0  0  0  0  0
    2.4856    1.9669  -24.8781 H   0  0  0  0  0  0
    3.3255    1.5540  -22.9691 H   0  0  0  0  0  0
    4.5849    0.9819  -24.1286 H   0  0  0  0  0  0
    5.1012    0.2965  -21.7768 H   0  0  0  0  0  0
    7.8909    3.2368  -22.6122 H   0  0  0  0  0  0
    4.2015    2.7528  -20.9158 H   0  0  0  0  0  0
    5.5028    1.7871  -20.0172 H   0  0  0  0  0  0
   -1.3059    3.6341  -27.0979 H   0  0  0  0  0  0
    0.5121    2.2200  -20.9870 H   0  0  0  0  0  0
    7.3567    0.9723  -21.8540 H   0  0  0  0  0  0
   -2.7262    3.7265  -28.5496 H   0  0  0  0  0  0
    3.9780    8.9510  -20.2290 N   0  3  0  0  0  0
    6.6390   10.2870  -23.7760 N   0  0  0  0  0  0
    3.6390    7.5710  -22.3660 C   0  0  0  0  0  0
    5.5260   10.3660  -21.6480 C   0  0  0  0  0  0
    3.9600    7.5790  -20.8560 C   0  0  0  0  0  0
    5.2760    9.7180  -20.2980 C   0  0  0  0  0  0
    5.1630   12.0930  -23.2130 C   0  0  0  0  0  0
    4.9140   11.5460  -21.9830 C   0  0  0  0  0  0
    6.3740    9.7790  -22.5570 C   0  0  0  0  0  0
    6.0160   11.4450  -24.0720 C   0  0  0  0  0  0
    3.6860    8.8800  -19.2669 H   0  0  0  0  0  0
    3.2418    9.5092  -20.6321 H   0  0  0  0  0  0
    4.5347    7.8669  -22.9318 H   0  0  0  0  0  0
    2.8808    8.3382  -22.5820 H   0  0  0  0  0  0
    3.2334    6.9463  -20.3253 H   0  0  0  0  0  0
    4.9298    7.0881  -20.6870 H   0  0  0  0  0  0
    6.1110    9.0440  -20.0560 H   0  0  0  0  0  0
    5.2850   10.4903  -19.5147 H   0  0  0  0  0  0
    4.6892   13.0257  -23.4969 H   0  0  0  0  0  0
    4.2473   12.0298  -21.2783 H   0  0  0  0  0  0
    6.8412    8.8526  -22.2429 H   0  0  0  0  0  0
    6.1760   11.9160  -25.0351 H   0  0  0  0  0  0
  1  2  2  0  0  0
  1  3  1  0  0  0
  1 34  1  0  0  0
  2  6  1  0  0  0
  2 35  1  0  0  0
  3  5  2  0  0  0
  3 27  1  0  0  0
  4  5  1  0  0  0
  4  6  2  0  0  0
  4 18  1  0  0  0
  5 24  1  0  0  0
  6 10  1  0  0  0
  7 10  2  0  0  0
  7 23  1  0  0  0
  7 33  1  0  0  0
  8 21  1  0  0  0
  8 22  1  0  0  0
  8 36  1  0  0  0
  8 37  1  0  0  0
  9 21  1  0  0  0
  9 31  1  0  0  0
  9 38  1  0  0  0
  9 39  1  0  0  0
 10 40  1  0  0  0
 11 12  1  0  0  0
 11 14  2  0  0  0
 11 15  1  0  0  0
 12 17  1  0  0  0
 12 28  2  0  0  0
 13 28  1  0  0  0
 13 29  2  0  0  0
 13 54  1  0  0  0
 14 29  1  0  0  0
 14 31  1  0  0  0
 15 30  2  0  0  0
 15 41  1  0  0  0
 16 17  2  0  0  0
 16 18  1  0  0  0
 16 30  1  0  0  0
 17 26  1  0  0  0
 18 23  2  0  0  0
 19 20  1  0  0  0
 19 31  1  0  0  0
 19 42  1  0  0  0
 19 43  1  0  0  0
 20 22  1  0  0  0
 20 32  1  0  0  0
 20 44  1  0  0  0
 21 32  1  0  0  0
 21 45  1  0  0  0
 22 46  1  0  0  0
 22 47  1  0  0  0
 23 48  1  0  0  0
 24 25  3  0  0  0
 25 49  1  0  0  0
 32 50  1  0  0  0
 33 51  1  0  0  0
 52 56  1  0  0  0
 52 57  1  0  0  0
 52 62  1  0  0  0
 52 63  1  0  0  0
 53 60  2  0  0  0
 53 61  1  0  0  0
 54 56  1  0  0  0
 54 64  1  0  0  0
 54 65  1  0  0  0
 55 57  1  0  0  0
 55 59  2  0  0  0
 55 60  1  0  0  0
 56 66  1  0  0  0
 56 67  1  0  0  0
 57 68  1  0  0  0
 57 69  1  0  0  0
 58 59  1  0  0  0
 58 61  2  0  0  0
 58 70  1  0  0  0
 59 71  1  0  0  0
 60 72  1  0  0  0
 61 73  1  0  0  0
M  CHG  1  52   1
M  END
> <s_m_entry_id>
112

> <s_m_entry_name>
000000112.1

> <s_m_Source_Path>
/Users/zaksoul/Documents/2

> <s_m_Source_File>
000000112.mol2

> <i_m_Source_File_Index>
1

$$$$
No_0_123
                    3D
 Schrodinger Suite 2022-4.
 73 79  0  0  1  0            999 V2000
   -5.0870    3.5000  -22.2050 C   0  0  0  0  0  0
   -5.3370    3.6830  -23.5440 C   0  0  0  0  0  0
   -3.8480    3.2820  -21.8440 C   0  0  0  0  0  0
   -2.9260    3.4380  -23.9950 C   0  0  0  0  0  0
   -2.7810    3.1960  -22.5730 C   0  0  0  0  0  0
   -4.2720    3.6620  -24.5380 C   0  0  0  0  0  0
   -3.4830    3.7090  -26.7230 C   0  0  0  0  0  0
    6.1780    3.2490  -21.3030 C   0  0  0  0  0  0
    6.0760    3.3910  -23.8550 C   0  0  0  0  0  0
   -4.5060    3.7840  -25.8770 C   0  0  0  0  0  0
    2.2780    3.8290  -23.9320 C   0  0  0  0  0  0
    1.4200    4.9130  -23.6450 C   0  0  0  0  0  0
    3.1720    6.1590  -22.9350 C   0  0  0  0  0  0
    3.6670    4.0600  -23.5960 C   0  0  0  0  0  0
    1.7750    2.6980  -24.6030 C   0  0  0  0  0  0
   -0.3770    3.4490  -24.5260 C   0  0  0  0  0  0
    0.1050    4.6830  -23.9170 C   0  0  0  0  0  0
   -1.8230    3.4130  -24.9030 C   0  0  0  0  0  0
    4.3400    1.5800  -23.2970 C   0  0  0  0  0  0
    5.2650    1.2500  -22.1360 C   0  0  2  0  0  0
    6.8210    2.8370  -22.6460 C   0  0  2  0  0  0
    5.1990    2.2480  -20.9690 C   0  0  0  0  0  0
   -2.1310    3.5660  -26.3360 C   0  0  0  0  0  0
   -1.4350    2.8210  -21.9530 C   0  0  0  0  0  0
   -0.4030    2.5020  -21.4310 C   0  0  0  0  0  0
   -0.7720    5.7030  -23.5850 F   0  0  0  0  0  0
   -3.6530    3.0440  -20.4590 F   0  0  0  0  0  0
    1.8550    6.0840  -23.1040 N   0  0  0  0  0  0
    4.0990    5.2230  -23.1420 N   0  0  0  0  0  0
    0.4770    2.5710  -24.9290 N   0  0  0  0  0  0
    4.6180    3.0390  -23.7600 N   0  0  0  0  0  0
    6.6770    1.3580  -22.5960 N   0  0  1  0  0  0
   -3.6340    3.7210  -28.1160 O   0  0  0  0  0  0
   -5.9020    3.5381  -21.4913 H   0  0  0  0  0  0
   -6.3515    3.8486  -23.8882 H   0  0  0  0  0  0
    5.6804    4.2230  -21.4201 H   0  0  0  0  0  0
    6.9515    3.2803  -20.5215 H   0  0  0  0  0  0
    6.4979    2.9590  -24.7745 H   0  0  0  0  0  0
    6.1880    4.4849  -23.8843 H   0  0  0  0  0  0
   -5.5156    3.9406  -26.2393 H   0  0  0  0  0  0
    2.4422    1.8884  -24.8759 H   0  0  0  0  0  0
    3.2936    1.4932  -22.9691 H   0  0  0  0  0  0
    4.5357    0.8890  -24.1302 H   0  0  0  0  0  0
    5.0643    0.2312  -21.7729 H   0  0  0  0  0  0
    7.8824    3.1245  -22.6753 H   0  0  0  0  0  0
    4.2014    2.7105  -20.9397 H   0  0  0  0  0  0
    5.4996    1.7416  -20.0399 H   0  0  0  0  0  0
   -1.3486    3.5690  -27.0863 H   0  0  0  0  0  0
    0.5059    2.2220  -20.9720 H   0  0  0  0  0  0
    7.3271    0.8779  -21.8796 H   0  0  0  0  0  0
   -2.7801    3.6577  -28.5276 H   0  0  0  0  0  0
    4.4420    8.7800  -20.3570 N   0  3  0  0  0  0
    6.0800   10.5430  -24.3130 N   0  0  0  0  0  0
    3.6850    7.5130  -22.4560 C   0  0  0  0  0  0
    5.5100   10.4000  -21.9830 C   0  0  0  0  0  0
    4.3590    7.4530  -21.0690 C   0  0  0  0  0  0
    5.6340    9.6510  -20.6680 C   0  0  0  0  0  0
    4.6730   12.1870  -23.2760 C   0  0  0  0  0  0
    4.7630   11.5460  -22.0690 C   0  0  0  0  0  0
    6.1490    9.9410  -23.1100 C   0  0  0  0  0  0
    5.3330   11.6630  -24.3600 C   0  0  0  0  0  0
    4.3950    8.6260  -19.3619 H   0  0  0  0  0  0
    3.5969    9.3021  -20.5280 H   0  0  0  0  0  0
    4.3982    7.9141  -23.1912 H   0  0  0  0  0  0
    2.8512    8.2298  -22.4260 H   0  0  0  0  0  0
    3.8231    6.7321  -20.4341 H   0  0  0  0  0  0
    5.3696    7.0312  -21.1730 H   0  0  0  0  0  0
    6.5439    9.0331  -20.6840 H   0  0  0  0  0  0
    5.7829   10.3717  -19.8504 H   0  0  0  0  0  0
    4.0867   13.0944  -23.3650 H   0  0  0  0  0  0
    4.2569   11.9301  -21.1907 H   0  0  0  0  0  0
    6.7350    9.0371  -22.9890 H   0  0  0  0  0  0
    5.2270   12.2049  -25.2928 H   0  0  0  0  0  0
  1  2  2  0  0  0
  1  3  1  0  0  0
  1 34  1  0  0  0
  2  6  1  0  0  0
  2 35  1  0  0  0
  3  5  2  0  0  0
  3 27  1  0  0  0
  4  5  1  0  0  0
  4  6  2  0  0  0
  4 18  1  0  0  0
  5 24  1  0  0  0
  6 10  1  0  0  0
  7 10  2  0  0  0
  7 23  1  0  0  0
  7 33  1  0  0  0
  8 21  1  0  0  0
  8 22  1  0  0  0
  8 36  1  0  0  0
  8 37  1  0  0  0
  9 21  1  0  0  0
  9 31  1  0  0  0
  9 38  1  0  0  0
  9 39  1  0  0  0
 10 40  1  0  0  0
 11 12  1  0  0  0
 11 14  2  0  0  0
 11 15  1  0  0  0
 12 17  1  0  0  0
 12 28  2  0  0  0
 13 28  1  0  0  0
 13 29  2  0  0  0
 13 54  1  0  0  0
 14 29  1  0  0  0
 14 31  1  0  0  0
 15 30  2  0  0  0
 15 41  1  0  0  0
 16 17  2  0  0  0
 16 18  1  0  0  0
 16 30  1  0  0  0
 17 26  1  0  0  0
 18 23  2  0  0  0
 19 20  1  0  0  0
 19 31  1  0  0  0
 19 42  1  0  0  0
 19 43  1  0  0  0
 20 22  1  0  0  0
 20 32  1  0  0  0
 20 44  1  0  0  0
 21 32  1  0  0  0
 21 45  1  0  0  0
 22 46  1  0  0  0
 22 47  1  0  0  0
 23 48  1  0  0  0
 24 25  3  0  0  0
 25 49  1  0  0  0
 32 50  1  0  0  0
 33 51  1  0  0  0
 52 56  1  0  0  0
 52 57  1  0  0  0
 52 62  1  0  0  0
 52 63  1  0  0  0
 53 60  2  0  0  0
 53 61  1  0  0  0
 54 56  1  0  0  0
 54 64  1  0  0  0
 54 65  1  0  0  0
 55 57  1  0  0  0
 55 59  2  0  0  0
 55 60  1  0  0  0
 56 66  1  0  0  0
 56 67  1  0  0  0
 57 68  1  0  0  0
 57 69  1  0  0  0
 58 59  1  0  0  0
 58 61  2  0  0  0
 58 70  1  0  0  0
 59 71  1  0  0  0
 60 72  1  0  0  0
 61 73  1  0  0  0
M  CHG  1  52   1
M  END
> <s_m_entry_id>
113

> <s_m_entry_name>
000000113.1

> <s_m_Source_Path>
/Users/zaksoul/Documents/2

> <s_m_Source_File>
000000113.mol2

> <i_m_Source_File_Index>
1

$$$$
No_0_124
                    3D
 Schrodinger Suite 2022-4.
 72 78  0  0  1  0            999 V2000
   -4.9460    3.1630  -22.0210 C   0  0  0  0  0  0
   -5.2380    3.3370  -23.3530 C   0  0  0  0  0  0
   -3.6910    2.9870  -21.6930 C   0  0  0  0  0  0
   -2.8320    3.1720  -23.8680 C   0  0  0  0  0  0
   -2.6420    2.9360  -22.4500 C   0  0  0  0  0  0
   -4.1990    3.3510  -24.3740 C   0  0  0  0  0  0
   -3.4700    3.4230  -26.5800 C   0  0  0  0  0  0
    6.3410    3.2900  -21.4190 C   0  0  0  0  0  0
    6.1670    3.4270  -23.9670 C   0  0  0  0  0  0
   -4.4720    3.4640  -25.7070 C   0  0  0  0  0  0
    2.3550    3.7380  -23.9430 C   0  0  0  0  0  0
    1.4700    4.7920  -23.6330 C   0  0  0  0  0  0
    3.1970    6.0970  -22.9690 C   0  0  0  0  0  0
    3.7440    4.0150  -23.6440 C   0  0  0  0  0  0
    1.8730    2.5900  -24.6010 C   0  0  0  0  0  0
   -0.3000    3.2680  -24.4660 C   0  0  0  0  0  0
    0.1560    4.5180  -23.8700 C   0  0  0  0  0  0
   -1.7540    3.1840  -24.8050 C   0  0  0  0  0  0
    4.5080    1.5590  -23.3640 C   0  0  0  0  0  0
    5.4740    1.2610  -22.2280 C   0  0  2  0  0  0
    6.9620    2.8990  -22.7780 C   0  0  2  0  0  0
    5.4060    2.2570  -21.0590 C   0  0  0  0  0  0
   -2.1040    3.3250  -26.2290 C   0  0  0  0  0  0
   -1.2680    2.6070  -21.8660 C   0  0  0  0  0  0
   -0.2120    2.3230  -21.3720 C   0  0  0  0  0  0
   -0.7460    5.5080  -23.5150 F   0  0  0  0  0  0
   -3.4510    2.7570  -20.3140 F   0  0  0  0  0  0
    1.8790    5.9780  -23.1040 N   0  0  0  0  0  0
    4.1490    5.1920  -23.2010 N   0  0  0  0  0  0
    0.5710    2.4190  -24.8930 N   0  0  0  0  0  0
    4.7240    3.0270  -23.8330 N   0  0  0  0  0  0
    6.8680    1.4160  -22.7250 N   0  0  1  0  0  0
   -3.6590    3.4290  -27.9680 O   0  0  0  0  0  0
   -5.7424    3.1750  -21.2857 H   0  0  0  0  0  0
   -6.2661    3.4685  -23.6703 H   0  0  0  0  0  0
    5.8081    4.2468  -21.5219 H   0  0  0  0  0  0
    7.1332    3.3485  -20.6581 H   0  0  0  0  0  0
    6.5779    3.0090  -24.8978 H   0  0  0  0  0  0
    6.2407    4.5241  -23.9993 H   0  0  0  0  0  0
   -5.4956    3.5864  -26.0422 H   0  0  0  0  0  0
    2.5592    1.8025  -24.8909 H   0  0  0  0  0  0
    3.4743    1.4380  -23.0080 H   0  0  0  0  0  0
    4.7038    0.8736  -24.2018 H   0  0  0  0  0  0
    5.3175    0.2364  -21.8596 H   0  0  0  0  0  0
    8.0119    3.2221  -22.8355 H   0  0  0  0  0  0
    4.3945    2.6856  -21.0035 H   0  0  0  0  0  0
    5.7471    1.7625  -20.1376 H   0  0  0  0  0  0
   -1.3433    3.3551  -27.0007 H   0  0  0  0  0  0
    0.7174    2.0739  -20.9368 H   0  0  0  0  0  0
    7.5533    0.9584  -22.0269 H   0  0  0  0  0  0
   -2.8149    3.3944  -28.4024 H   0  0  0  0  0  0
    3.8160    9.0690  -20.5030 N   0  3  0  0  0  0
    5.2370   11.0030  -22.0630 N   0  0  0  0  0  0
    7.7150   10.1130  -23.0860 N   0  0  0  0  0  0
    3.3500    7.7330  -21.0220 C   0  0  0  0  0  0
    5.3050    9.2540  -20.3430 C   0  0  0  0  0  0
    3.6770    7.4680  -22.5040 C   0  0  0  0  0  0
    7.1160    9.5370  -22.0340 C   0  0  0  0  0  0
    5.9070    9.9680  -21.5400 C   0  0  0  0  0  0
    7.0390   11.1430  -23.6150 C   0  0  0  0  0  0
    5.8340   11.5770  -23.1160 C   0  0  0  0  0  0
    3.3610    9.2600  -19.6240 H   0  0  0  0  0  0
    3.4522    9.7995  -21.0946 H   0  0  0  0  0  0
    2.2651    7.6400  -20.8660 H   0  0  0  0  0  0
    3.7822    6.9316  -20.4047 H   0  0  0  0  0  0
    5.7852    8.2716  -20.2230 H   0  0  0  0  0  0
    5.5059    9.8358  -19.4313 H   0  0  0  0  0  0
    4.7632    7.5470  -22.6590 H   0  0  0  0  0  0
    3.2139    8.2481  -23.1261 H   0  0  0  0  0  0
    7.5860    8.6960  -21.5370 H   0  0  0  0  0  0
    7.4410   11.6710  -24.4721 H   0  0  0  0  0  0
    5.3663   12.4205  -23.6107 H   0  0  0  0  0  0
  1  2  2  0  0  0
  1  3  1  0  0  0
  1 34  1  0  0  0
  2  6  1  0  0  0
  2 35  1  0  0  0
  3  5  2  0  0  0
  3 27  1  0  0  0
  4  5  1  0  0  0
  4  6  2  0  0  0
  4 18  1  0  0  0
  5 24  1  0  0  0
  6 10  1  0  0  0
  7 10  2  0  0  0
  7 23  1  0  0  0
  7 33  1  0  0  0
  8 21  1  0  0  0
  8 22  1  0  0  0
  8 36  1  0  0  0
  8 37  1  0  0  0
  9 21  1  0  0  0
  9 31  1  0  0  0
  9 38  1  0  0  0
  9 39  1  0  0  0
 10 40  1  0  0  0
 11 12  1  0  0  0
 11 14  2  0  0  0
 11 15  1  0  0  0
 12 17  1  0  0  0
 12 28  2  0  0  0
 13 28  1  0  0  0
 13 29  2  0  0  0
 13 57  1  0  0  0
 14 29  1  0  0  0
 14 31  1  0  0  0
 15 30  2  0  0  0
 15 41  1  0  0  0
 16 17  2  0  0  0
 16 18  1  0  0  0
 16 30  1  0  0  0
 17 26  1  0  0  0
 18 23  2  0  0  0
 19 20  1  0  0  0
 19 31  1  0  0  0
 19 42  1  0  0  0
 19 43  1  0  0  0
 20 22  1  0  0  0
 20 32  1  0  0  0
 20 44  1  0  0  0
 21 32  1  0  0  0
 21 45  1  0  0  0
 22 46  1  0  0  0
 22 47  1  0  0  0
 23 48  1  0  0  0
 24 25  3  0  0  0
 25 49  1  0  0  0
 32 50  1  0  0  0
 33 51  1  0  0  0
 52 55  1  0  0  0
 52 56  1  0  0  0
 52 62  1  0  0  0
 52 63  1  0  0  0
 53 59  2  0  0  0
 53 61  1  0  0  0
 54 58  2  0  0  0
 54 60  1  0  0  0
 55 57  1  0  0  0
 55 64  1  0  0  0
 55 65  1  0  0  0
 56 59  1  0  0  0
 56 66  1  0  0  0
 56 67  1  0  0  0
 57 68  1  0  0  0
 57 69  1  0  0  0
 58 59  1  0  0  0
 58 70  1  0  0  0
 60 61  2  0  0  0
 60 71  1  0  0  0
 61 72  1  0  0  0
M  CHG  1  52   1
M  END
> <s_m_entry_id>
114

> <s_m_entry_name>
000000114.1

> <s_m_Source_Path>
/Users/zaksoul/Documents/2

> <s_m_Source_File>
000000114.mol2

> <i_m_Source_File_Index>
1

$$$$
No_0_125
                    3D
 Schrodinger Suite 2022-4.
 72 78  0  0  1  0            999 V2000
   -5.0400    3.6030  -22.0820 C   0  0  0  0  0  0
   -5.2900    3.7600  -23.4250 C   0  0  0  0  0  0
   -3.8000    3.3950  -21.7180 C   0  0  0  0  0  0
   -2.8790    3.5110  -23.8710 C   0  0  0  0  0  0
   -2.7330    3.2970  -22.4440 C   0  0  0  0  0  0
   -4.2250    3.7220  -24.4180 C   0  0  0  0  0  0
   -3.4360    3.7280  -26.6040 C   0  0  0  0  0  0
    6.2260    3.3910  -21.1760 C   0  0  0  0  0  0
    6.1240    3.4830  -23.7300 C   0  0  0  0  0  0
   -4.4590    3.8180  -25.7590 C   0  0  0  0  0  0
    2.3250    3.9130  -23.8160 C   0  0  0  0  0  0
    1.4650    5.0000  -23.5500 C   0  0  0  0  0  0
    3.2140    6.2630  -22.8640 C   0  0  0  0  0  0
    3.7130    4.1530  -23.4840 C   0  0  0  0  0  0
    1.8240    2.7680  -24.4650 C   0  0  0  0  0  0
   -0.3290    3.5160  -24.4020 C   0  0  0  0  0  0
    0.1500    4.7630  -23.8170 C   0  0  0  0  0  0
   -1.7760    3.4710  -24.7790 C   0  0  0  0  0  0
    4.3910    1.6800  -23.1380 C   0  0  0  0  0  0
    5.3170    1.3740  -21.9700 C   0  0  2  0  0  0
    6.8700    2.9540  -22.5100 C   0  0  2  0  0  0
    5.2490    2.3950  -20.8220 C   0  0  0  0  0  0
   -2.0830    3.5950  -26.2140 C   0  0  0  0  0  0
   -1.3860    2.9360  -21.8180 C   0  0  0  0  0  0
   -0.3540    2.6300  -21.2900 C   0  0  0  0  0  0
   -0.7290    5.7870  -23.5050 F   0  0  0  0  0  0
   -3.6040    3.1840  -20.3280 F   0  0  0  0  0  0
    1.8980    6.1830  -23.0320 N   0  0  0  0  0  0
    4.1440    5.3250  -23.0530 N   0  0  0  0  0  0
    0.5260    2.6320  -24.7880 N   0  0  0  0  0  0
    4.6660    3.1310  -23.6280 N   0  0  0  0  0  0
    6.7280    1.4770  -22.4320 N   0  0  1  0  0  0
   -3.5870    3.7130  -27.9960 O   0  0  0  0  0  0
   -5.8551    3.6542  -21.3693 H   0  0  0  0  0  0
   -6.3047    3.9176  -23.7723 H   0  0  0  0  0  0
    5.7265    4.3617  -21.3112 H   0  0  0  0  0  0
    6.9995    3.4395  -20.3954 H   0  0  0  0  0  0
    6.5460    3.0348  -24.6416 H   0  0  0  0  0  0
    6.2329    4.5764  -23.7804 H   0  0  0  0  0  0
   -5.4690    3.9646  -26.1244 H   0  0  0  0  0  0
    2.4923    1.9541  -24.7219 H   0  0  0  0  0  0
    3.3452    1.5973  -22.8072 H   0  0  0  0  0  0
    4.5880    0.9729  -23.9573 H   0  0  0  0  0  0
    5.1181    0.3621  -21.5873 H   0  0  0  0  0  0
    7.9306    3.2436  -22.5453 H   0  0  0  0  0  0
    4.2504    2.8560  -20.8028 H   0  0  0  0  0  0
    5.5508    1.9075  -19.8833 H   0  0  0  0  0  0
   -1.3011    3.5850  -26.9648 H   0  0  0  0  0  0
    0.5549    2.3600  -20.8251 H   0  0  0  0  0  0
    7.3793    1.0118  -21.7069 H   0  0  0  0  0  0
   -2.7335    3.6438  -28.4074 H   0  0  0  0  0  0
    4.9320    8.8940  -20.5330 N   0  3  0  0  0  0
    4.8010   11.3430  -22.0090 N   0  0  0  0  0  0
    6.1320   11.2990  -24.5000 N   0  0  0  0  0  0
    4.3940    7.5740  -21.0250 C   0  0  0  0  0  0
    6.1470    9.4390  -21.2430 C   0  0  0  0  0  0
    3.7250    7.6280  -22.4120 C   0  0  0  0  0  0
    6.4130   10.4360  -23.5140 C   0  0  0  0  0  0
    5.7610   10.4550  -22.3020 C   0  0  0  0  0  0
    5.1660   12.1820  -24.2090 C   0  0  0  0  0  0
    4.5190   12.2040  -22.9960 C   0  0  0  0  0  0
    5.1262    8.8259  -19.5462 H   0  0  0  0  0  0
    4.1959    9.5821  -20.5590 H   0  0  0  0  0  0
    3.6781    7.1771  -20.2901 H   0  0  0  0  0  0
    5.2065    6.8326  -21.0400 H   0  0  0  0  0  0
    6.6978    8.6114  -21.7138 H   0  0  0  0  0  0
    6.8179    9.9109  -20.5101 H   0  0  0  0  0  0
    4.4443    8.0121  -23.1503 H   0  0  0  0  0  0
    2.8878    8.3411  -22.3870 H   0  0  0  0  0  0
    7.1820    9.6850  -23.6540 H   0  0  0  0  0  0
    4.8649   12.9183  -24.9453 H   0  0  0  0  0  0
    3.7530   12.9580  -22.8550 H   0  0  0  0  0  0
  1  2  2  0  0  0
  1  3  1  0  0  0
  1 34  1  0  0  0
  2  6  1  0  0  0
  2 35  1  0  0  0
  3  5  2  0  0  0
  3 27  1  0  0  0
  4  5  1  0  0  0
  4  6  2  0  0  0
  4 18  1  0  0  0
  5 24  1  0  0  0
  6 10  1  0  0  0
  7 10  2  0  0  0
  7 23  1  0  0  0
  7 33  1  0  0  0
  8 21  1  0  0  0
  8 22  1  0  0  0
  8 36  1  0  0  0
  8 37  1  0  0  0
  9 21  1  0  0  0
  9 31  1  0  0  0
  9 38  1  0  0  0
  9 39  1  0  0  0
 10 40  1  0  0  0
 11 12  1  0  0  0
 11 14  2  0  0  0
 11 15  1  0  0  0
 12 17  1  0  0  0
 12 28  2  0  0  0
 13 28  1  0  0  0
 13 29  2  0  0  0
 13 57  1  0  0  0
 14 29  1  0  0  0
 14 31  1  0  0  0
 15 30  2  0  0  0
 15 41  1  0  0  0
 16 17  2  0  0  0
 16 18  1  0  0  0
 16 30  1  0  0  0
 17 26  1  0  0  0
 18 23  2  0  0  0
 19 20  1  0  0  0
 19 31  1  0  0  0
 19 42  1  0  0  0
 19 43  1  0  0  0
 20 22  1  0  0  0
 20 32  1  0  0  0
 20 44  1  0  0  0
 21 32  1  0  0  0
 21 45  1  0  0  0
 22 46  1  0  0  0
 22 47  1  0  0  0
 23 48  1  0  0  0
 24 25  3  0  0  0
 25 49  1  0  0  0
 32 50  1  0  0  0
 33 51  1  0  0  0
 52 55  1  0  0  0
 52 56  1  0  0  0
 52 62  1  0  0  0
 52 63  1  0  0  0
 53 59  2  0  0  0
 53 61  1  0  0  0
 54 58  2  0  0  0
 54 60  1  0  0  0
 55 57  1  0  0  0
 55 64  1  0  0  0
 55 65  1  0  0  0
 56 59  1  0  0  0
 56 66  1  0  0  0
 56 67  1  0  0  0
 57 68  1  0  0  0
 57 69  1  0  0  0
 58 59  1  0  0  0
 58 70  1  0  0  0
 60 61  2  0  0  0
 60 71  1  0  0  0
 61 72  1  0  0  0
M  CHG  1  52   1
M  END
> <s_m_entry_id>
115

> <s_m_entry_name>
000000115.1

> <s_m_Source_Path>
/Users/zaksoul/Documents/2

> <s_m_Source_File>
000000115.mol2

> <i_m_Source_File_Index>
1

$$$$
No_0_126
                    3D
 Schrodinger Suite 2022-4.
 70 76  0  0  1  0            999 V2000
   -4.9470    3.3300  -22.1310 C   0  0  0  0  0  0
   -5.2260    3.4700  -23.4700 C   0  0  0  0  0  0
   -3.7020    3.1110  -21.7910 C   0  0  0  0  0  0
   -2.8280    3.1810  -23.9660 C   0  0  0  0  0  0
   -2.6530    2.9870  -22.5400 C   0  0  0  0  0  0
   -4.1840    3.4030  -24.4850 C   0  0  0  0  0  0
   -3.4450    3.3650  -26.6890 C   0  0  0  0  0  0
    6.3320    2.9780  -21.4750 C   0  0  0  0  0  0
    6.1740    3.0340  -24.0270 C   0  0  0  0  0  0
   -4.4470    3.4820  -25.8220 C   0  0  0  0  0  0
    2.3800    3.5130  -24.0340 C   0  0  0  0  0  0
    1.5410    4.6160  -23.7650 C   0  0  0  0  0  0
    3.3220    5.8660  -23.1380 C   0  0  0  0  0  0
    3.7790    3.7390  -23.7370 C   0  0  0  0  0  0
    1.8490    2.3660  -24.6540 C   0  0  0  0  0  0
   -0.2920    3.1440  -24.5540 C   0  0  0  0  0  0
    0.2170    4.3930  -23.9990 C   0  0  0  0  0  0
   -1.7470    3.1130  -24.8970 C   0  0  0  0  0  0
    4.4310    1.2640  -23.3680 C   0  0  0  0  0  0
    5.3790    0.9620  -22.2180 C   0  0  2  0  0  0
    6.9400    2.5130  -22.8160 C   0  0  2  0  0  0
    5.3510    2.0010  -21.0840 C   0  0  0  0  0  0
   -2.0850    3.2190  -26.3270 C   0  0  0  0  0  0
   -1.2980    2.6170  -21.9380 C   0  0  0  0  0  0
   -0.2570    2.3050  -21.4290 C   0  0  0  0  0  0
   -0.6410    5.4340  -23.6830 F   0  0  0  0  0  0
   -3.4780    2.9180  -20.4030 F   0  0  0  0  0  0
    2.0010    5.8010  -23.2750 N   0  0  0  0  0  0
    4.2340    4.9120  -23.3330 N   0  0  0  0  0  0
    0.5420    2.2430  -24.9460 N   0  0  0  0  0  0
    4.7140    2.7030  -23.8870 N   0  0  0  0  0  0
    6.7810    1.0380  -22.7130 N   0  0  1  0  0  0
   -3.6270    3.3310  -28.0770 O   0  0  0  0  0  0
   -5.7446    3.4032  -21.4006 H   0  0  0  0  0  0
   -6.2462    3.6367  -23.7963 H   0  0  0  0  0  0
    5.8432    3.9537  -21.6134 H   0  0  0  0  0  0
    7.1230    3.0274  -20.7122 H   0  0  0  0  0  0
    6.5696    2.5657  -24.9403 H   0  0  0  0  0  0
    6.2971    4.1249  -24.0966 H   0  0  0  0  0  0
   -5.4627    3.6376  -26.1673 H   0  0  0  0  0  0
    2.5009    1.5395  -24.9128 H   0  0  0  0  0  0
    3.3918    1.2004  -23.0129 H   0  0  0  0  0  0
    4.5995    0.5416  -24.1802 H   0  0  0  0  0  0
    5.1752   -0.0408  -21.8145 H   0  0  0  0  0  0
    8.0033    2.7874  -22.8796 H   0  0  0  0  0  0
    4.3591    2.4752  -21.0487 H   0  0  0  0  0  0
    5.6668    1.5237  -20.1446 H   0  0  0  0  0  0
   -1.3203    3.1879  -27.0947 H   0  0  0  0  0  0
    0.6583    2.0299  -20.9799 H   0  0  0  0  0  0
    7.4423    0.5758  -21.9950 H   0  0  0  0  0  0
   -2.7837    3.2439  -28.5056 H   0  0  0  0  0  0
    7.3570   10.3030  -23.0950 O   0  0  0  0  0  0
    3.6700    9.0500  -20.9250 N   0  3  0  0  0  0
    7.8240    9.0150  -22.7480 N   0  0  0  0  0  0
    3.5490    7.5790  -21.2460 C   0  0  0  0  0  0
    4.9970    9.5200  -20.3850 C   0  0  0  0  0  0
    3.8610    7.2290  -22.7180 C   0  0  0  0  0  0
    6.3300   10.5870  -22.2930 C   0  0  0  0  0  0
    7.0500    8.6350  -21.7780 C   0  0  0  0  0  0
    6.0730    9.6000  -21.4470 C   0  0  0  0  0  0
    2.9388    9.3101  -20.2818 H   0  0  0  0  0  0
    3.4359    9.5883  -21.7444 H   0  0  0  0  0  0
    2.5350    7.2337  -20.9958 H   0  0  0  0  0  0
    4.2170    7.0060  -20.5860 H   0  0  0  0  0  0
    5.3251    8.8428  -19.5827 H   0  0  0  0  0  0
    4.8710   10.5074  -19.9168 H   0  0  0  0  0  0
    4.9489    7.2570  -22.8781 H   0  0  0  0  0  0
    3.4413    8.0054  -23.3745 H   0  0  0  0  0  0
    5.7260   11.4929  -22.2720 H   0  0  0  0  0  0
    7.1979    7.6604  -21.3152 H   0  0  0  0  0  0
  1  2  2  0  0  0
  1  3  1  0  0  0
  1 34  1  0  0  0
  2  6  1  0  0  0
  2 35  1  0  0  0
  3  5  2  0  0  0
  3 27  1  0  0  0
  4  5  1  0  0  0
  4  6  2  0  0  0
  4 18  1  0  0  0
  5 24  1  0  0  0
  6 10  1  0  0  0
  7 10  2  0  0  0
  7 23  1  0  0  0
  7 33  1  0  0  0
  8 21  1  0  0  0
  8 22  1  0  0  0
  8 36  1  0  0  0
  8 37  1  0  0  0
  9 21  1  0  0  0
  9 31  1  0  0  0
  9 38  1  0  0  0
  9 39  1  0  0  0
 10 40  1  0  0  0
 11 12  1  0  0  0
 11 14  2  0  0  0
 11 15  1  0  0  0
 12 17  1  0  0  0
 12 28  2  0  0  0
 13 28  1  0  0  0
 13 29  2  0  0  0
 13 57  1  0  0  0
 14 29  1  0  0  0
 14 31  1  0  0  0
 15 30  2  0  0  0
 15 41  1  0  0  0
 16 17  2  0  0  0
 16 18  1  0  0  0
 16 30  1  0  0  0
 17 26  1  0  0  0
 18 23  2  0  0  0
 19 20  1  0  0  0
 19 31  1  0  0  0
 19 42  1  0  0  0
 19 43  1  0  0  0
 20 22  1  0  0  0
 20 32  1  0  0  0
 20 44  1  0  0  0
 21 32  1  0  0  0
 21 45  1  0  0  0
 22 46  1  0  0  0
 22 47  1  0  0  0
 23 48  1  0  0  0
 24 25  3  0  0  0
 25 49  1  0  0  0
 32 50  1  0  0  0
 33 51  1  0  0  0
 52 54  1  0  0  0
 52 58  1  0  0  0
 53 55  1  0  0  0
 53 56  1  0  0  0
 53 61  1  0  0  0
 53 62  1  0  0  0
 54 59  2  0  0  0
 55 57  1  0  0  0
 55 63  1  0  0  0
 55 64  1  0  0  0
 56 60  1  0  0  0
 56 65  1  0  0  0
 56 66  1  0  0  0
 57 67  1  0  0  0
 57 68  1  0  0  0
 58 60  2  0  0  0
 58 69  1  0  0  0
 59 60  1  0  0  0
 59 70  1  0  0  0
M  CHG  1  53   1
M  END
> <s_m_entry_id>
116

> <s_m_entry_name>
000000116.1

> <s_m_Source_Path>
/Users/zaksoul/Documents/2

> <s_m_Source_File>
000000116.mol2

> <i_m_Source_File_Index>
1

$$$$
No_0_127
                    3D
 Schrodinger Suite 2022-4.
 71 77  0  0  1  0            999 V2000
   -5.2340    3.5270  -21.8760 C   0  0  0  0  0  0
   -5.5080    3.6910  -23.2130 C   0  0  0  0  0  0
   -3.9920    3.2930  -21.5370 C   0  0  0  0  0  0
   -3.1120    3.3930  -23.7090 C   0  0  0  0  0  0
   -2.9420    3.1740  -22.2850 C   0  0  0  0  0  0
   -4.4640    3.6330  -24.2280 C   0  0  0  0  0  0
   -3.7190    3.6260  -26.4290 C   0  0  0  0  0  0
    6.0410    3.0850  -21.1980 C   0  0  0  0  0  0
    5.8890    3.1840  -23.7490 C   0  0  0  0  0  0
   -4.7230    3.7350  -25.5640 C   0  0  0  0  0  0
    2.0990    3.6900  -23.7570 C   0  0  0  0  0  0
    1.2670    4.7950  -23.4730 C   0  0  0  0  0  0
    3.0550    6.0210  -22.8210 C   0  0  0  0  0  0
    3.4980    3.9010  -23.4540 C   0  0  0  0  0  0
    1.5620    2.5560  -24.3980 C   0  0  0  0  0  0
   -0.5740    3.3480  -24.2900 C   0  0  0  0  0  0
   -0.0580    4.5840  -23.7140 C   0  0  0  0  0  0
   -2.0280    3.3330  -24.6380 C   0  0  0  0  0  0
    4.1330    1.4160  -23.1240 C   0  0  0  0  0  0
    5.0750    1.0890  -21.9760 C   0  0  2  0  0  0
    6.6490    2.6380  -22.5450 C   0  0  2  0  0  0
    5.0520    2.1090  -20.8250 C   0  0  0  0  0  0
   -2.3620    3.4650  -26.0670 C   0  0  0  0  0  0
   -1.5900    2.7850  -21.6860 C   0  0  0  0  0  0
   -0.5540    2.4570  -21.1790 C   0  0  0  0  0  0
   -0.9100    5.6250  -23.3830 F   0  0  0  0  0  0
   -3.7720    3.0760  -20.1520 F   0  0  0  0  0  0
    1.7340    5.9670  -22.9620 N   0  0  0  0  0  0
    3.9610    5.0650  -23.0290 N   0  0  0  0  0  0
    0.2550    2.4480  -24.6950 N   0  0  0  0  0  0
    4.4270    2.8610  -23.6180 N   0  0  0  0  0  0
    6.4790    1.1630  -22.4660 N   0  0  1  0  0  0
   -3.8990    3.6160  -27.8180 O   0  0  0  0  0  0
   -6.0339    3.5932  -21.1474 H   0  0  0  0  0  0
   -6.5260    3.8695  -23.5400 H   0  0  0  0  0  0
    5.5587    4.0658  -21.3221 H   0  0  0  0  0  0
    6.8305    3.1173  -20.4327 H   0  0  0  0  0  0
    6.2848    2.7286  -24.6688 H   0  0  0  0  0  0
    6.0202    4.2749  -23.8005 H   0  0  0  0  0  0
   -5.7369    3.9037  -25.9083 H   0  0  0  0  0  0
    2.2088    1.7294  -24.6692 H   0  0  0  0  0  0
    3.0924    1.3535  -22.7731 H   0  0  0  0  0  0
    4.2985    0.7056  -23.9474 H   0  0  0  0  0  0
    4.8640    0.0806  -21.5904 H   0  0  0  0  0  0
    7.7144    2.9056  -22.6016 H   0  0  0  0  0  0
    4.0632    2.5893  -20.7856 H   0  0  0  0  0  0
    5.3619    1.6133  -19.8932 H   0  0  0  0  0  0
   -1.5952    3.4409  -26.8328 H   0  0  0  0  0  0
    0.3589    2.1690  -20.7331 H   0  0  0  0  0  0
    7.1356    0.6839  -21.7549 H   0  0  0  0  0  0
   -3.0553    3.5309  -28.2463 H   0  0  0  0  0  0
    6.5690   10.1540  -24.8550 O   0  0  0  0  0  0
    5.0610    8.6160  -20.6820 N   0  3  0  0  0  0
    3.6020    7.3740  -22.3770 C   0  0  0  0  0  0
    6.1690    9.6390  -22.7370 C   0  0  0  0  0  0
    4.4890    7.2900  -21.1190 C   0  0  0  0  0  0
    6.3420    9.0670  -21.3410 C   0  0  0  0  0  0
    5.1020   10.4190  -23.2530 C   0  0  0  0  0  0
    5.4000   10.6900  -24.5160 C   0  0  0  0  0  0
    7.0100    9.5280  -23.7620 C   0  0  0  0  0  0
    5.1870    8.6090  -19.6819 H   0  0  0  0  0  0
    4.3603    9.3317  -20.7959 H   0  0  0  0  0  0
    4.1767    7.8228  -23.2006 H   0  0  0  0  0  0
    2.7647    8.0622  -22.1889 H   0  0  0  0  0  0
    3.9098    6.8519  -20.2928 H   0  0  0  0  0  0
    5.3103    6.5806  -21.2988 H   0  0  0  0  0  0
    7.0489    8.2251  -21.3780 H   0  0  0  0  0  0
    6.8381    9.8122  -20.7018 H   0  0  0  0  0  0
    4.2566   10.6741  -22.6157 H   0  0  0  0  0  0
    4.7156   11.2825  -25.1214 H   0  0  0  0  0  0
    7.9391    8.9719  -23.6460 H   0  0  0  0  0  0
  1  2  2  0  0  0
  1  3  1  0  0  0
  1 34  1  0  0  0
  2  6  1  0  0  0
  2 35  1  0  0  0
  3  5  2  0  0  0
  3 27  1  0  0  0
  4  5  1  0  0  0
  4  6  2  0  0  0
  4 18  1  0  0  0
  5 24  1  0  0  0
  6 10  1  0  0  0
  7 10  2  0  0  0
  7 23  1  0  0  0
  7 33  1  0  0  0
  8 21  1  0  0  0
  8 22  1  0  0  0
  8 36  1  0  0  0
  8 37  1  0  0  0
  9 21  1  0  0  0
  9 31  1  0  0  0
  9 38  1  0  0  0
  9 39  1  0  0  0
 10 40  1  0  0  0
 11 12  1  0  0  0
 11 14  2  0  0  0
 11 15  1  0  0  0
 12 17  1  0  0  0
 12 28  2  0  0  0
 13 28  1  0  0  0
 13 29  2  0  0  0
 13 54  1  0  0  0
 14 29  1  0  0  0
 14 31  1  0  0  0
 15 30  2  0  0  0
 15 41  1  0  0  0
 16 17  2  0  0  0
 16 18  1  0  0  0
 16 30  1  0  0  0
 17 26  1  0  0  0
 18 23  2  0  0  0
 19 20  1  0  0  0
 19 31  1  0  0  0
 19 42  1  0  0  0
 19 43  1  0  0  0
 20 22  1  0  0  0
 20 32  1  0  0  0
 20 44  1  0  0  0
 21 32  1  0  0  0
 21 45  1  0  0  0
 22 46  1  0  0  0
 22 47  1  0  0  0
 23 48  1  0  0  0
 24 25  3  0  0  0
 25 49  1  0  0  0
 32 50  1  0  0  0
 33 51  1  0  0  0
 52 59  1  0  0  0
 52 60  1  0  0  0
 53 56  1  0  0  0
 53 57  1  0  0  0
 53 61  1  0  0  0
 53 62  1  0  0  0
 54 56  1  0  0  0
 54 63  1  0  0  0
 54 64  1  0  0  0
 55 57  1  0  0  0
 55 58  1  0  0  0
 55 60  2  0  0  0
 56 65  1  0  0  0
 56 66  1  0  0  0
 57 67  1  0  0  0
 57 68  1  0  0  0
 58 59  2  0  0  0
 58 69  1  0  0  0
 59 70  1  0  0  0
 60 71  1  0  0  0
M  CHG  1  53   1
M  END
> <s_m_entry_id>
117

> <s_m_entry_name>
000000117.1

> <s_m_Source_Path>
/Users/zaksoul/Documents/2

> <s_m_Source_File>
000000117.mol2

> <i_m_Source_File_Index>
1

$$$$
No_0_128
                    3D
 Schrodinger Suite 2022-4.
 71 77  0  0  1  0            999 V2000
   -5.2080    3.5490  -21.9660 C   0  0  0  0  0  0
   -5.4500    3.7770  -23.3000 C   0  0  0  0  0  0
   -3.9740    3.3000  -21.6080 C   0  0  0  0  0  0
   -3.0410    3.5040  -23.7500 C   0  0  0  0  0  0
   -2.9060    3.2170  -22.3340 C   0  0  0  0  0  0
   -4.3810    3.7670  -24.2900 C   0  0  0  0  0  0
   -3.5830    3.8660  -26.4700 C   0  0  0  0  0  0
    6.0470    3.0800  -21.0330 C   0  0  0  0  0  0
    5.9580    3.3000  -23.5790 C   0  0  0  0  0  0
   -4.6070    3.9330  -25.6250 C   0  0  0  0  0  0
    2.1680    3.8040  -23.6570 C   0  0  0  0  0  0
    1.3280    4.8940  -23.3400 C   0  0  0  0  0  0
    3.0980    6.0880  -22.5870 C   0  0  0  0  0  0
    3.5600    4.0010  -23.3090 C   0  0  0  0  0  0
    1.6490    2.7020  -24.3630 C   0  0  0  0  0  0
   -0.4900    3.4870  -24.2710 C   0  0  0  0  0  0
    0.0100    4.6940  -23.6240 C   0  0  0  0  0  0
   -1.9360    3.4880  -24.6540 C   0  0  0  0  0  0
    4.1890    1.5030  -23.0830 C   0  0  0  0  0  0
    5.1040    1.1220  -21.9290 C   0  0  2  0  0  0
    6.6890    2.6970  -22.3850 C   0  0  2  0  0  0
    5.0510    2.0860  -20.7320 C   0  0  0  0  0  0
   -2.2340    3.6880  -26.0830 C   0  0  0  0  0  0
   -1.5690    2.8010  -21.7220 C   0  0  0  0  0  0
   -0.5450    2.4490  -21.2060 C   0  0  0  0  0  0
   -0.8510    5.7190  -23.2640 F   0  0  0  0  0  0
   -3.7880    3.0170  -20.2300 F   0  0  0  0  0  0
    1.7800    6.0410  -22.7630 N   0  0  0  0  0  0
    4.0100    5.1430  -22.8190 N   0  0  0  0  0  0
    0.3500    2.6070  -24.6980 N   0  0  0  0  0  0
    4.4940    2.9700  -23.5000 N   0  0  0  0  0  0
    6.5190    1.2200  -22.3800 N   0  0  1  0  0  0
   -3.7280    3.9220  -27.8620 O   0  0  0  0  0  0
   -6.0250    3.5811  -21.2543 H   0  0  0  0  0  0
   -6.4603    3.9698  -23.6424 H   0  0  0  0  0  0
    5.5664    4.0655  -21.1219 H   0  0  0  0  0  0
    6.8177    3.0750  -20.2482 H   0  0  0  0  0  0
    6.3756    2.8894  -24.5101 H   0  0  0  0  0  0
    6.0882    4.3923  -23.5760 H   0  0  0  0  0  0
   -5.6123    4.1176  -25.9862 H   0  0  0  0  0  0
    2.3037    1.8897  -24.6572 H   0  0  0  0  0  0
    3.1405    1.4233  -22.7601 H   0  0  0  0  0  0
    4.3767    0.8328  -23.9348 H   0  0  0  0  0  0
    4.8850    0.0965  -21.5969 H   0  0  0  0  0  0
    7.7551    2.9676  -22.4022 H   0  0  0  0  0  0
    4.0612    2.5643  -20.6926 H   0  0  0  0  0  0
    5.3385    1.5473  -19.8170 H   0  0  0  0  0  0
   -1.4492    3.7010  -26.8307 H   0  0  0  0  0  0
    0.3570    2.1400  -20.7520 H   0  0  0  0  0  0
    7.1585    0.7078  -21.6764 H   0  0  0  0  0  0
   -2.8739    3.8567  -28.2727 H   0  0  0  0  0  0
    3.4130   11.6090  -24.3180 O   0  0  0  0  0  0
    5.7100    8.7470  -21.3880 N   0  3  0  0  0  0
    3.6310    7.4180  -22.0670 C   0  0  0  0  0  0
    4.7880   10.5390  -22.9490 C   0  0  0  0  0  0
    5.1620    7.4290  -21.8770 C   0  0  0  0  0  0
    6.0080    9.8010  -22.4280 C   0  0  0  0  0  0
    3.6130   10.9200  -22.2510 C   0  0  0  0  0  0
    2.8350   11.5490  -23.1210 C   0  0  0  0  0  0
    4.5890   10.9940  -24.1840 C   0  0  0  0  0  0
    6.5390    8.5780  -20.8400 H   0  0  0  0  0  0
    5.0832    9.1309  -20.6982 H   0  0  0  0  0  0
    3.3430    8.2231  -22.7590 H   0  0  0  0  0  0
    3.1434    7.6588  -21.1108 H   0  0  0  0  0  0
    5.4480    6.6319  -21.1749 H   0  0  0  0  0  0
    5.6492    7.1619  -22.8264 H   0  0  0  0  0  0
    6.5418    9.3392  -23.2717 H   0  0  0  0  0  0
    6.7247   10.5267  -22.0162 H   0  0  0  0  0  0
    3.5030   10.6749  -21.1957 H   0  0  0  0  0  0
    1.8662   11.9339  -22.8061 H   0  0  0  0  0  0
    5.3496   10.8429  -24.9486 H   0  0  0  0  0  0
  1  2  2  0  0  0
  1  3  1  0  0  0
  1 34  1  0  0  0
  2  6  1  0  0  0
  2 35  1  0  0  0
  3  5  2  0  0  0
  3 27  1  0  0  0
  4  5  1  0  0  0
  4  6  2  0  0  0
  4 18  1  0  0  0
  5 24  1  0  0  0
  6 10  1  0  0  0
  7 10  2  0  0  0
  7 23  1  0  0  0
  7 33  1  0  0  0
  8 21  1  0  0  0
  8 22  1  0  0  0
  8 36  1  0  0  0
  8 37  1  0  0  0
  9 21  1  0  0  0
  9 31  1  0  0  0
  9 38  1  0  0  0
  9 39  1  0  0  0
 10 40  1  0  0  0
 11 12  1  0  0  0
 11 14  2  0  0  0
 11 15  1  0  0  0
 12 17  1  0  0  0
 12 28  2  0  0  0
 13 28  1  0  0  0
 13 29  2  0  0  0
 13 54  1  0  0  0
 14 29  1  0  0  0
 14 31  1  0  0  0
 15 30  2  0  0  0
 15 41  1  0  0  0
 16 17  2  0  0  0
 16 18  1  0  0  0
 16 30  1  0  0  0
 17 26  1  0  0  0
 18 23  2  0  0  0
 19 20  1  0  0  0
 19 31  1  0  0  0
 19 42  1  0  0  0
 19 43  1  0  0  0
 20 22  1  0  0  0
 20 32  1  0  0  0
 20 44  1  0  0  0
 21 32  1  0  0  0
 21 45  1  0  0  0
 22 46  1  0  0  0
 22 47  1  0  0  0
 23 48  1  0  0  0
 24 25  3  0  0  0
 25 49  1  0  0  0
 32 50  1  0  0  0
 33 51  1  0  0  0
 52 59  1  0  0  0
 52 60  1  0  0  0
 53 56  1  0  0  0
 53 57  1  0  0  0
 53 61  1  0  0  0
 53 62  1  0  0  0
 54 56  1  0  0  0
 54 63  1  0  0  0
 54 64  1  0  0  0
 55 57  1  0  0  0
 55 58  1  0  0  0
 55 60  2  0  0  0
 56 65  1  0  0  0
 56 66  1  0  0  0
 57 67  1  0  0  0
 57 68  1  0  0  0
 58 59  2  0  0  0
 58 69  1  0  0  0
 59 70  1  0  0  0
 60 71  1  0  0  0
M  CHG  1  53   1
M  END
> <s_m_entry_id>
118

> <s_m_entry_name>
000000118.1

> <s_m_Source_Path>
/Users/zaksoul/Documents/2

> <s_m_Source_File>
000000118.mol2

> <i_m_Source_File_Index>
1

$$$$
No_0_129
                    3D
 Schrodinger Suite 2022-4.
 73 79  0  0  1  0            999 V2000
   -5.0550    3.5930  -22.0800 C   0  0  0  0  0  0
   -5.3170    3.7490  -23.4200 C   0  0  0  0  0  0
   -3.8140    3.3740  -21.7270 C   0  0  0  0  0  0
   -2.9120    3.4760  -23.8890 C   0  0  0  0  0  0
   -2.7550    3.2640  -22.4630 C   0  0  0  0  0  0
   -4.2610    3.6980  -24.4230 C   0  0  0  0  0  0
   -3.4930    3.6920  -26.6170 C   0  0  0  0  0  0
    6.2160    3.2780  -21.2800 C   0  0  0  0  0  0
    6.0910    3.3660  -23.8320 C   0  0  0  0  0  0
   -4.5070    3.7930  -25.7620 C   0  0  0  0  0  0
    2.2950    3.8300  -23.8830 C   0  0  0  0  0  0
    1.4490    4.9260  -23.6120 C   0  0  0  0  0  0
    3.2160    6.1740  -22.9460 C   0  0  0  0  0  0
    3.6890    4.0580  -23.5660 C   0  0  0  0  0  0
    1.7780    2.6880  -24.5250 C   0  0  0  0  0  0
   -0.3670    3.4570  -24.4440 C   0  0  0  0  0  0
    0.1290    4.7000  -23.8670 C   0  0  0  0  0  0
   -1.8180    3.4240  -24.8070 C   0  0  0  0  0  0
    4.3470    1.5800  -23.2200 C   0  0  0  0  0  0
    5.2810    1.2680  -22.0600 C   0  0  2  0  0  0
    6.8440    2.8320  -22.6190 C   0  0  2  0  0  0
    5.2340    2.2920  -20.9140 C   0  0  0  0  0  0
   -2.1380    3.5470  -26.2400 C   0  0  0  0  0  0
   -1.4050    2.8920  -21.8480 C   0  0  0  0  0  0
   -0.3710    2.5780  -21.3290 C   0  0  0  0  0  0
   -0.7380    5.7330  -23.5480 F   0  0  0  0  0  0
   -3.6070    3.1640  -20.3390 F   0  0  0  0  0  0
    1.8970    6.1060  -23.1010 N   0  0  0  0  0  0
    4.1340    5.2270  -23.1410 N   0  0  0  0  0  0
    0.4760    2.5640  -24.8360 N   0  0  0  0  0  0
    4.6310    3.0270  -23.7160 N   0  0  0  0  0  0
    6.6890    1.3560  -22.5360 N   0  0  1  0  0  0
   -3.6570    3.6750  -28.0080 O   0  0  0  0  0  0
   -5.8627    3.6532  -21.3596 H   0  0  0  0  0  0
   -6.3334    3.9147  -23.7585 H   0  0  0  0  0  0
    5.7244    4.2531  -21.4122 H   0  0  0  0  0  0
    6.9967    3.3214  -20.5063 H   0  0  0  0  0  0
    6.5006    2.9110  -24.7459 H   0  0  0  0  0  0
    6.2101    4.4582  -23.8865 H   0  0  0  0  0  0
   -5.5189    3.9486  -26.1184 H   0  0  0  0  0  0
    2.4367    1.8676  -24.7861 H   0  0  0  0  0  0
    3.3037    1.5084  -22.8789 H   0  0  0  0  0  0
    4.5298    0.8689  -24.0391 H   0  0  0  0  0  0
    5.0772    0.2589  -21.6725 H   0  0  0  0  0  0
    7.9069    3.1116  -22.6644 H   0  0  0  0  0  0
    4.2400    2.7623  -20.8868 H   0  0  0  0  0  0
    5.5398    1.8046  -19.9765 H   0  0  0  0  0  0
   -1.3631    3.5289  -26.9978 H   0  0  0  0  0  0
    0.5396    2.3001  -20.8722 H   0  0  0  0  0  0
    7.3432    0.8878  -21.8155 H   0  0  0  0  0  0
   -2.8078    3.5968  -28.4267 H   0  0  0  0  0  0
    6.9150    9.9130  -21.7920 O   0  0  0  0  0  0
    3.9710    9.1930  -20.5860 N   0  3  0  0  0  0
    7.0170    7.8550  -21.2380 N   0  0  0  0  0  0
    3.4760    7.8340  -21.0130 C   0  0  0  0  0  0
    5.3590    9.2560  -20.0000 C   0  0  0  0  0  0
    3.7430    7.5350  -22.5020 C   0  0  0  0  0  0
    8.8070    6.8970  -22.7790 C   0  0  0  0  0  0
    6.4480    9.0190  -21.0260 C   0  0  0  0  0  0
    7.8640    9.2910  -22.5720 C   0  0  0  0  0  0
    7.9380    8.0100  -22.2360 C   0  0  0  0  0  0
    3.3165    9.5937  -19.9325 H   0  0  0  0  0  0
    3.9110    9.8278  -21.3667 H   0  0  0  0  0  0
    2.3970    7.7580  -20.8130 H   0  0  0  0  0  0
    3.9539    7.0602  -20.3942 H   0  0  0  0  0  0
    5.4491    8.5145  -19.1925 H   0  0  0  0  0  0
    5.5111   10.2373  -19.5268 H   0  0  0  0  0  0
    4.8242    7.5890  -22.6970 H   0  0  0  0  0  0
    3.2872    8.3227  -23.1198 H   0  0  0  0  0  0
    9.4566    7.2928  -23.5736 H   0  0  0  0  0  0
    9.4289    6.4880  -21.9691 H   0  0  0  0  0  0
    8.1700    6.1000  -23.1900 H   0  0  0  0  0  0
    8.5043    9.6862  -23.3593 H   0  0  0  0  0  0
  1  2  2  0  0  0
  1  3  1  0  0  0
  1 34  1  0  0  0
  2  6  1  0  0  0
  2 35  1  0  0  0
  3  5  2  0  0  0
  3 27  1  0  0  0
  4  5  1  0  0  0
  4  6  2  0  0  0
  4 18  1  0  0  0
  5 24  1  0  0  0
  6 10  1  0  0  0
  7 10  2  0  0  0
  7 23  1  0  0  0
  7 33  1  0  0  0
  8 21  1  0  0  0
  8 22  1  0  0  0
  8 36  1  0  0  0
  8 37  1  0  0  0
  9 21  1  0  0  0
  9 31  1  0  0  0
  9 38  1  0  0  0
  9 39  1  0  0  0
 10 40  1  0  0  0
 11 12  1  0  0  0
 11 14  2  0  0  0
 11 15  1  0  0  0
 12 17  1  0  0  0
 12 28  2  0  0  0
 13 28  1  0  0  0
 13 29  2  0  0  0
 13 57  1  0  0  0
 14 29  1  0  0  0
 14 31  1  0  0  0
 15 30  2  0  0  0
 15 41  1  0  0  0
 16 17  2  0  0  0
 16 18  1  0  0  0
 16 30  1  0  0  0
 17 26  1  0  0  0
 18 23  2  0  0  0
 19 20  1  0  0  0
 19 31  1  0  0  0
 19 42  1  0  0  0
 19 43  1  0  0  0
 20 22  1  0  0  0
 20 32  1  0  0  0
 20 44  1  0  0  0
 21 32  1  0  0  0
 21 45  1  0  0  0
 22 46  1  0  0  0
 22 47  1  0  0  0
 23 48  1  0  0  0
 24 25  3  0  0  0
 25 49  1  0  0  0
 32 50  1  0  0  0
 33 51  1  0  0  0
 52 59  1  0  0  0
 52 60  1  0  0  0
 53 55  1  0  0  0
 53 56  1  0  0  0
 53 62  1  0  0  0
 53 63  1  0  0  0
 54 59  2  0  0  0
 54 61  1  0  0  0
 55 57  1  0  0  0
 55 64  1  0  0  0
 55 65  1  0  0  0
 56 59  1  0  0  0
 56 66  1  0  0  0
 56 67  1  0  0  0
 57 68  1  0  0  0
 57 69  1  0  0  0
 58 61  1  0  0  0
 58 70  1  0  0  0
 58 71  1  0  0  0
 58 72  1  0  0  0
 60 61  2  0  0  0
 60 73  1  0  0  0
M  CHG  1  53   1
M  END
> <s_m_entry_id>
119

> <s_m_entry_name>
000000119.1

> <s_m_Source_Path>
/Users/zaksoul/Documents/2

> <s_m_Source_File>
000000119.mol2

> <i_m_Source_File_Index>
1

$$$$
No_0_130
                    3D
 Schrodinger Suite 2022-4.
 74 80  0  0  1  0            999 V2000
   -5.1620    3.4480  -22.2370 C   0  0  0  0  0  0
   -5.3970    3.6240  -23.5800 C   0  0  0  0  0  0
   -3.9250    3.2420  -21.8600 C   0  0  0  0  0  0
   -2.9780    3.3970  -24.0000 C   0  0  0  0  0  0
   -2.8490    3.1620  -22.5750 C   0  0  0  0  0  0
   -4.3190    3.6080  -24.5600 C   0  0  0  0  0  0
   -3.5030    3.6540  -26.7360 C   0  0  0  0  0  0
    6.0930    3.2940  -21.1960 C   0  0  0  0  0  0
    6.0220    3.4260  -23.7480 C   0  0  0  0  0  0
   -4.5370    3.7240  -25.9020 C   0  0  0  0  0  0
    2.2210    3.8320  -23.8740 C   0  0  0  0  0  0
    1.3510    4.9100  -23.6020 C   0  0  0  0  0  0
    3.0840    6.1730  -22.8750 C   0  0  0  0  0  0
    3.6040    4.0760  -23.5220 C   0  0  0  0  0  0
    1.7360    2.6940  -24.5470 C   0  0  0  0  0  0
   -0.4220    3.4280  -24.4990 C   0  0  0  0  0  0
    0.0410    4.6680  -23.8890 C   0  0  0  0  0  0
   -1.8640    3.3790  -24.8940 C   0  0  0  0  0  0
    4.2940    1.6030  -23.2060 C   0  0  0  0  0  0
    5.2070    1.2840  -22.0320 C   0  0  2  0  0  0
    6.7560    2.8820  -22.5280 C   0  0  2  0  0  0
    5.1190    2.2860  -20.8690 C   0  0  0  0  0  0
   -2.1550    3.5230  -26.3310 C   0  0  0  0  0  0
   -1.5070    2.8000  -21.9370 C   0  0  0  0  0  0
   -0.4790    2.4920  -21.4020 C   0  0  0  0  0  0
   -0.8480    5.6810  -23.5720 F   0  0  0  0  0  0
   -3.7450    3.0100  -20.4720 F   0  0  0  0  0  0
    1.7700    6.0870  -23.0600 N   0  0  0  0  0  0
    4.0210    5.2440  -23.0670 N   0  0  0  0  0  0
    0.4430    2.5550  -24.8890 N   0  0  0  0  0  0
    4.5650    3.0620  -23.6700 N   0  0  0  0  0  0
    6.6240    1.4030  -22.4750 N   0  0  1  0  0  0
   -3.6370    3.6600  -28.1300 O   0  0  0  0  0  0
   -5.9860    3.4821  -21.5335 H   0  0  0  0  0  0
   -6.4083    3.7807  -23.9375 H   0  0  0  0  0  0
    5.5894    4.2639  -21.3211 H   0  0  0  0  0  0
    6.8565    3.3354  -20.4052 H   0  0  0  0  0  0
    6.4588    2.9952  -24.6610 H   0  0  0  0  0  0
    6.1249    4.5207  -23.7803 H   0  0  0  0  0  0
   -5.5434    3.8705  -26.2773 H   0  0  0  0  0  0
    2.4133    1.8892  -24.8089 H   0  0  0  0  0  0
    3.2449    1.5082  -22.8892 H   0  0  0  0  0  0
    4.5059    0.9098  -24.0334 H   0  0  0  0  0  0
    5.0111    0.2649  -21.6674 H   0  0  0  0  0  0
    7.8149    3.1795  -22.5451 H   0  0  0  0  0  0
    4.1172    2.7400  -20.8549 H   0  0  0  0  0  0
    5.4118    1.7861  -19.9339 H   0  0  0  0  0  0
   -1.3639    3.5310  -27.0720 H   0  0  0  0  0  0
    0.4260    2.2210  -20.9300 H   0  0  0  0  0  0
    7.2691    0.9312  -21.7486 H   0  0  0  0  0  0
   -2.7777    3.6026  -28.5310 H   0  0  0  0  0  0
    4.6100    8.7780  -20.4100 N   0  0  1  0  0  0
    6.1040   11.1150  -22.1220 N   0  0  0  0  0  0
    6.5510    9.2970  -23.2540 N   0  0  0  0  0  0
    3.8880    7.5430  -20.8830 C   0  0  0  0  0  0
    6.0580    8.9130  -20.8180 C   0  0  0  0  0  0
    6.2340    9.7660  -22.0610 C   0  0  3  0  0  0
    5.7520   12.0380  -21.0340 C   0  0  0  0  0  0
    3.5790    7.5330  -22.3950 C   0  0  0  0  0  0
    6.3600   11.4470  -23.4120 C   0  0  0  0  0  0
    6.6340   10.3530  -24.1190 C   0  0  0  0  0  0
    4.1129    9.6561  -20.7950 H   0  0  0  0  0  0
    6.6880    8.2851  -23.3890 H   0  0  0  0  0  0
    2.9505    7.4299  -20.3187 H   0  0  0  0  0  0
    4.4810    6.6529  -20.6260 H   0  0  0  0  0  0
    6.4808    7.9135  -20.9979 H   0  0  0  0  0  0
    6.6323    9.3513  -19.9885 H   0  0  0  0  0  0
    5.7320   13.0682  -21.4191 H   0  0  0  0  0  0
    4.7605   11.7749  -20.6368 H   0  0  0  0  0  0
    6.5010   11.9610  -20.2320 H   0  0  0  0  0  0
    4.4844    7.8108  -22.9546 H   0  0  0  0  0  0
    2.8208    8.2982  -22.6180 H   0  0  0  0  0  0
    6.3210   12.4847  -23.7229 H   0  0  0  0  0  0
    6.8861   10.1839  -25.1596 H   0  0  0  0  0  0
  1  2  2  0  0  0
  1  3  1  0  0  0
  1 34  1  0  0  0
  2  6  1  0  0  0
  2 35  1  0  0  0
  3  5  2  0  0  0
  3 27  1  0  0  0
  4  5  1  0  0  0
  4  6  2  0  0  0
  4 18  1  0  0  0
  5 24  1  0  0  0
  6 10  1  0  0  0
  7 10  2  0  0  0
  7 23  1  0  0  0
  7 33  1  0  0  0
  8 21  1  0  0  0
  8 22  1  0  0  0
  8 36  1  0  0  0
  8 37  1  0  0  0
  9 21  1  0  0  0
  9 31  1  0  0  0
  9 38  1  0  0  0
  9 39  1  0  0  0
 10 40  1  0  0  0
 11 12  2  0  0  0
 11 14  1  0  0  0
 11 15  1  0  0  0
 12 17  1  0  0  0
 12 28  1  0  0  0
 13 28  2  0  0  0
 13 29  1  0  0  0
 13 59  1  0  0  0
 14 29  2  0  0  0
 14 31  1  0  0  0
 15 30  2  0  0  0
 15 41  1  0  0  0
 16 17  2  0  0  0
 16 18  1  0  0  0
 16 30  1  0  0  0
 17 26  1  0  0  0
 18 23  2  0  0  0
 19 20  1  0  0  0
 19 31  1  0  0  0
 19 42  1  0  0  0
 19 43  1  0  0  0
 20 22  1  0  0  0
 20 32  1  0  0  0
 20 44  1  0  0  0
 21 32  1  0  0  0
 21 45  1  0  0  0
 22 46  1  0  0  0
 22 47  1  0  0  0
 23 48  1  0  0  0
 24 25  3  0  0  0
 25 49  1  0  0  0
 32 50  1  0  0  0
 33 51  1  0  0  0
 52 55  1  0  0  0
 52 56  1  0  0  0
 52 62  1  0  0  0
 53 57  1  0  0  0
 53 58  1  0  0  0
 53 60  1  0  0  0
 54 57  1  0  0  0
 54 61  1  0  0  0
 54 63  1  0  0  0
 55 59  1  0  0  0
 55 64  1  0  0  0
 55 65  1  0  0  0
 56 57  1  0  0  0
 56 66  1  0  0  0
 56 67  1  0  0  0
 58 68  1  0  0  0
 58 69  1  0  0  0
 58 70  1  0  0  0
 59 71  1  0  0  0
 59 72  1  0  0  0
 60 61  2  0  0  0
 60 73  1  0  0  0
 61 74  1  0  0  0
M  END
> <s_m_entry_id>
120

> <s_m_entry_name>
000000120.1

> <s_m_Source_Path>
/Users/zaksoul/Documents/2

> <s_m_Source_File>
000000120.mol2

> <i_m_Source_File_Index>
1

$$$$
No_0_131
                    3D
 Schrodinger Suite 2022-4.
 73 79  0  0  1  0            999 V2000
   -5.2580    3.3850  -22.1050 C   0  0  0  0  0  0
   -5.4880    3.5810  -23.4460 C   0  0  0  0  0  0
   -4.0250    3.1540  -21.7300 C   0  0  0  0  0  0
   -3.0730    3.3210  -23.8670 C   0  0  0  0  0  0
   -2.9490    3.0660  -22.4440 C   0  0  0  0  0  0
   -4.4090    3.5600  -24.4250 C   0  0  0  0  0  0
   -3.5900    3.6190  -26.6000 C   0  0  0  0  0  0
    5.9920    3.0390  -21.0520 C   0  0  0  0  0  0
    5.9260    3.2030  -23.6030 C   0  0  0  0  0  0
   -4.6230    3.6950  -25.7660 C   0  0  0  0  0  0
    2.1330    3.6710  -23.7290 C   0  0  0  0  0  0
    1.2800    4.7590  -23.4440 C   0  0  0  0  0  0
    3.0310    5.9860  -22.6990 C   0  0  0  0  0  0
    3.5190    3.8880  -23.3720 C   0  0  0  0  0  0
    1.6300    2.5490  -24.4160 C   0  0  0  0  0  0
   -0.5160    3.3160  -24.3620 C   0  0  0  0  0  0
   -0.0340    4.5420  -23.7360 C   0  0  0  0  0  0
   -1.9580    3.2950  -24.7600 C   0  0  0  0  0  0
    4.1690    1.4010  -23.0850 C   0  0  0  0  0  0
    5.0750    1.0540  -21.9140 C   0  0  2  0  0  0
    6.6500    2.6330  -22.3880 C   0  0  2  0  0  0
    5.0010    2.0430  -20.7390 C   0  0  0  0  0  0
   -2.2440    3.4620  -26.1950 C   0  0  0  0  0  0
   -1.6150    2.6750  -21.8090 C   0  0  0  0  0  0
   -0.5920    2.3440  -21.2760 C   0  0  0  0  0  0
   -0.9080    5.5650  -23.4070 F   0  0  0  0  0  0
   -3.8510    2.9030  -20.3440 F   0  0  0  0  0  0
    1.7160    5.9230  -22.8880 N   0  0  0  0  0  0
    3.9540    5.0440  -22.9020 N   0  0  0  0  0  0
    0.3360    2.4350  -24.7610 N   0  0  0  0  0  0
    4.4640    2.8620  -23.5310 N   0  0  0  0  0  0
    6.4940    1.1550  -22.3530 N   0  0  1  0  0  0
   -3.7210    3.6440  -27.9940 O   0  0  0  0  0  0
   -6.0824    3.4232  -21.4021 H   0  0  0  0  0  0
   -6.4960    3.7577  -23.8034 H   0  0  0  0  0  0
    5.5035    4.0180  -21.1660 H   0  0  0  0  0  0
    6.7539    3.0582  -20.2588 H   0  0  0  0  0  0
    6.3570    2.7760  -24.5206 H   0  0  0  0  0  0
    6.0471    4.2962  -23.6212 H   0  0  0  0  0  0
   -5.6261    3.8625  -26.1412 H   0  0  0  0  0  0
    2.2955    1.7370  -24.6860 H   0  0  0  0  0  0
    3.1179    1.3193  -22.7713 H   0  0  0  0  0  0
    4.3708    0.7147  -23.9206 H   0  0  0  0  0  0
    4.8621    0.0339  -21.5618 H   0  0  0  0  0  0
    7.7135    2.9135  -22.4011 H   0  0  0  0  0  0
    4.0064    2.5125  -20.7198 H   0  0  0  0  0  0
    5.2844    1.5266  -19.8100 H   0  0  0  0  0  0
   -1.4514    3.4660  -26.9344 H   0  0  0  0  0  0
    0.3082    2.0529  -20.8069 H   0  0  0  0  0  0
    7.1306    0.6639  -21.6319 H   0  0  0  0  0  0
   -2.8624    3.5776  -28.3951 H   0  0  0  0  0  0
    7.4260   10.8440  -21.2210 N   0  3  0  0  0  0
    5.5810    8.8990  -22.2810 N   0  0  0  0  0  0
    6.0130   10.8760  -20.8160 C   0  0  0  0  0  0
    7.5260   10.4410  -22.6300 C   0  0  0  0  0  0
    3.5470    7.3320  -22.2020 C   0  0  0  0  0  0
    6.9970    9.0040  -22.7880 C   0  0  0  0  0  0
    5.4140    9.4590  -20.8900 C   0  0  0  0  0  0
    5.0670    7.4920  -22.4240 C   0  0  0  0  0  0
    7.9249   10.1832  -20.6461 H   0  0  0  0  0  0
    7.8300   11.7600  -21.1040 H   0  0  0  0  0  0
    5.4548   11.5462  -21.4862 H   0  0  0  0  0  0
    5.9370   11.2520  -19.7850 H   0  0  0  0  0  0
    8.5782   10.4810  -22.9481 H   0  0  0  0  0  0
    6.9252   11.1228  -23.2498 H   0  0  0  0  0  0
    3.0139    8.1421  -22.7211 H   0  0  0  0  0  0
    3.3209    7.4380  -21.1307 H   0  0  0  0  0  0
    7.0280    8.7169  -23.8494 H   0  0  0  0  0  0
    7.6409    8.3131  -22.2241 H   0  0  0  0  0  0
    5.9260    8.8060  -20.1680 H   0  0  0  0  0  0
    4.3441    9.5010  -20.6380 H   0  0  0  0  0  0
    5.6080    6.8340  -21.7280 H   0  0  0  0  0  0
    5.3319    7.1071  -23.4198 H   0  0  0  0  0  0
  1  2  2  0  0  0
  1  3  1  0  0  0
  1 34  1  0  0  0
  2  6  1  0  0  0
  2 35  1  0  0  0
  3  5  2  0  0  0
  3 27  1  0  0  0
  4  5  1  0  0  0
  4  6  2  0  0  0
  4 18  1  0  0  0
  5 24  1  0  0  0
  6 10  1  0  0  0
  7 10  2  0  0  0
  7 23  1  0  0  0
  7 33  1  0  0  0
  8 21  1  0  0  0
  8 22  1  0  0  0
  8 36  1  0  0  0
  8 37  1  0  0  0
  9 21  1  0  0  0
  9 31  1  0  0  0
  9 38  1  0  0  0
  9 39  1  0  0  0
 10 40  1  0  0  0
 11 12  1  0  0  0
 11 14  2  0  0  0
 11 15  1  0  0  0
 12 17  1  0  0  0
 12 28  2  0  0  0
 13 28  1  0  0  0
 13 29  2  0  0  0
 13 56  1  0  0  0
 14 29  1  0  0  0
 14 31  1  0  0  0
 15 30  2  0  0  0
 15 41  1  0  0  0
 16 17  2  0  0  0
 16 18  1  0  0  0
 16 30  1  0  0  0
 17 26  1  0  0  0
 18 23  2  0  0  0
 19 20  1  0  0  0
 19 31  1  0  0  0
 19 42  1  0  0  0
 19 43  1  0  0  0
 20 22  1  0  0  0
 20 32  1  0  0  0
 20 44  1  0  0  0
 21 32  1  0  0  0
 21 45  1  0  0  0
 22 46  1  0  0  0
 22 47  1  0  0  0
 23 48  1  0  0  0
 24 25  3  0  0  0
 25 49  1  0  0  0
 32 50  1  0  0  0
 33 51  1  0  0  0
 52 54  1  0  0  0
 52 55  1  0  0  0
 52 60  1  0  0  0
 52 61  1  0  0  0
 53 57  1  0  0  0
 53 58  1  0  0  0
 53 59  1  0  0  0
 54 58  1  0  0  0
 54 62  1  0  0  0
 54 63  1  0  0  0
 55 57  1  0  0  0
 55 64  1  0  0  0
 55 65  1  0  0  0
 56 59  1  0  0  0
 56 66  1  0  0  0
 56 67  1  0  0  0
 57 68  1  0  0  0
 57 69  1  0  0  0
 58 70  1  0  0  0
 58 71  1  0  0  0
 59 72  1  0  0  0
 59 73  1  0  0  0
M  CHG  1  52   1
M  END
> <s_m_entry_id>
121

> <s_m_entry_name>
000000121.1

> <s_m_Source_Path>
/Users/zaksoul/Documents/2

> <s_m_Source_File>
000000121.mol2

> <i_m_Source_File_Index>
1

$$$$
No_0_132
                    3D
 Schrodinger Suite 2022-4.
 73 79  0  0  1  0            999 V2000
   -5.5190    3.1520  -22.1990 C   0  0  0  0  0  0
   -5.7330    3.3800  -23.5380 C   0  0  0  0  0  0
   -4.2890    2.9250  -21.8120 C   0  0  0  0  0  0
   -3.3090    3.1560  -23.9300 C   0  0  0  0  0  0
   -3.2020    2.8670  -22.5130 C   0  0  0  0  0  0
   -4.6410    3.3950  -24.5010 C   0  0  0  0  0  0
   -3.7920    3.5180  -26.6620 C   0  0  0  0  0  0
    5.7180    2.9000  -20.9970 C   0  0  0  0  0  0
    5.6860    3.1280  -23.5440 C   0  0  0  0  0  0
   -4.8380    3.5620  -25.8420 C   0  0  0  0  0  0
    1.8900    3.5590  -23.7110 C   0  0  0  0  0  0
    1.0210    4.6300  -23.4110 C   0  0  0  0  0  0
    2.7480    5.8560  -22.6110 C   0  0  0  0  0  0
    3.2680    3.7820  -23.3300 C   0  0  0  0  0  0
    1.4090    2.4490  -24.4340 C   0  0  0  0  0  0
   -0.7460    3.1920  -24.3900 C   0  0  0  0  0  0
   -0.2860    4.4060  -23.7270 C   0  0  0  0  0  0
   -2.1820    3.1660  -24.8080 C   0  0  0  0  0  0
    3.9420    1.2950  -23.0960 C   0  0  0  0  0  0
    4.8360    0.9280  -21.9220 C   0  0  2  0  0  0
    6.3990    2.5350  -22.3350 C   0  0  2  0  0  0
    4.7350    1.8860  -20.7240 C   0  0  0  0  0  0
   -2.4500    3.3650  -26.2430 C   0  0  0  0  0  0
   -1.8720    2.4740  -21.8700 C   0  0  0  0  0  0
   -0.8540    2.1410  -21.3310 C   0  0  0  0  0  0
   -1.1760    5.4110  -23.3850 F   0  0  0  0  0  0
   -4.1310    2.6410  -20.4310 F   0  0  0  0  0  0
    1.4360    5.7840  -22.8190 N   0  0  0  0  0  0
    3.6840    4.9300  -22.8240 N   0  0  0  0  0  0
    0.1210    2.3300  -24.7990 N   0  0  0  0  0  0
    4.2270    2.7700  -23.5010 N   0  0  0  0  0  0
    6.2590    1.0560  -22.3390 N   0  0  1  0  0  0
   -3.9050    3.5770  -28.0570 O   0  0  0  0  0  0
   -6.3529    3.1640  -21.5066 H   0  0  0  0  0  0
   -6.7384    3.5548  -23.9036 H   0  0  0  0  0  0
    5.2203    3.8762  -21.0939 H   0  0  0  0  0  0
    6.4696    2.9071  -20.1939 H   0  0  0  0  0  0
    6.1340    2.7295  -24.4662 H   0  0  0  0  0  0
    5.7950    4.2225  -23.5339 H   0  0  0  0  0  0
   -5.8382    3.7277  -26.2256 H   0  0  0  0  0  0
    2.0866    1.6509  -24.7151 H   0  0  0  0  0  0
    2.8876    1.1941  -22.7993 H   0  0  0  0  0  0
    4.1620    0.6331  -23.9466 H   0  0  0  0  0  0
    4.6292   -0.1030  -21.5992 H   0  0  0  0  0  0
    7.4593    2.8276  -22.3249 H   0  0  0  0  0  0
    3.7351    2.3441  -20.7068 H   0  0  0  0  0  0
    5.0115    1.3491  -19.8046 H   0  0  0  0  0  0
   -1.6481    3.3971  -26.9717 H   0  0  0  0  0  0
    0.0428    1.8471  -20.8571 H   0  0  0  0  0  0
    6.8913    0.5532  -21.6222 H   0  0  0  0  0  0
   -3.0400    3.5305  -28.4470 H   0  0  0  0  0  0
    6.9230   10.9980  -21.5040 N   0  3  0  0  0  0
    5.0660    8.9770  -22.3830 N   0  0  0  0  0  0
    5.6370   10.8330  -20.8120 C   0  0  0  0  0  0
    6.7460   10.7520  -22.9410 C   0  0  0  0  0  0
    3.2430    7.1950  -22.0730 C   0  0  0  0  0  0
    6.3220    9.2880  -23.1580 C   0  0  0  0  0  0
    5.1610    9.3740  -20.9310 C   0  0  0  0  0  0
    4.6570    7.5430  -22.5860 C   0  0  0  0  0  0
    7.5921   10.3429  -21.1309 H   0  0  0  0  0  0
    7.2620   11.9369  -21.3640 H   0  0  0  0  0  0
    4.8890   11.5010  -21.2640 H   0  0  0  0  0  0
    5.7570   11.0940  -19.7502 H   0  0  0  0  0  0
    7.6949   10.9390  -23.4650 H   0  0  0  0  0  0
    5.9666   11.4213  -23.3342 H   0  0  0  0  0  0
    2.5409    7.9891  -22.3670 H   0  0  0  0  0  0
    3.2490    7.1670  -20.9734 H   0  0  0  0  0  0
    6.1431    9.1141  -24.2293 H   0  0  0  0  0  0
    7.1314    8.6197  -22.8289 H   0  0  0  0  0  0
    5.8729    8.7121  -20.4161 H   0  0  0  0  0  0
    4.1732    9.2710  -20.4581 H   0  0  0  0  0  0
    5.3926    6.8825  -22.1036 H   0  0  0  0  0  0
    4.7290    7.2921  -23.6546 H   0  0  0  0  0  0
  1  2  2  0  0  0
  1  3  1  0  0  0
  1 34  1  0  0  0
  2  6  1  0  0  0
  2 35  1  0  0  0
  3  5  2  0  0  0
  3 27  1  0  0  0
  4  5  1  0  0  0
  4  6  2  0  0  0
  4 18  1  0  0  0
  5 24  1  0  0  0
  6 10  1  0  0  0
  7 10  2  0  0  0
  7 23  1  0  0  0
  7 33  1  0  0  0
  8 21  1  0  0  0
  8 22  1  0  0  0
  8 36  1  0  0  0
  8 37  1  0  0  0
  9 21  1  0  0  0
  9 31  1  0  0  0
  9 38  1  0  0  0
  9 39  1  0  0  0
 10 40  1  0  0  0
 11 12  1  0  0  0
 11 14  2  0  0  0
 11 15  1  0  0  0
 12 17  1  0  0  0
 12 28  2  0  0  0
 13 28  1  0  0  0
 13 29  2  0  0  0
 13 56  1  0  0  0
 14 29  1  0  0  0
 14 31  1  0  0  0
 15 30  2  0  0  0
 15 41  1  0  0  0
 16 17  2  0  0  0
 16 18  1  0  0  0
 16 30  1  0  0  0
 17 26  1  0  0  0
 18 23  2  0  0  0
 19 20  1  0  0  0
 19 31  1  0  0  0
 19 42  1  0  0  0
 19 43  1  0  0  0
 20 22  1  0  0  0
 20 32  1  0  0  0
 20 44  1  0  0  0
 21 32  1  0  0  0
 21 45  1  0  0  0
 22 46  1  0  0  0
 22 47  1  0  0  0
 23 48  1  0  0  0
 24 25  3  0  0  0
 25 49  1  0  0  0
 32 50  1  0  0  0
 33 51  1  0  0  0
 52 54  1  0  0  0
 52 55  1  0  0  0
 52 60  1  0  0  0
 52 61  1  0  0  0
 53 57  1  0  0  0
 53 58  1  0  0  0
 53 59  1  0  0  0
 54 58  1  0  0  0
 54 62  1  0  0  0
 54 63  1  0  0  0
 55 57  1  0  0  0
 55 64  1  0  0  0
 55 65  1  0  0  0
 56 59  1  0  0  0
 56 66  1  0  0  0
 56 67  1  0  0  0
 57 68  1  0  0  0
 57 69  1  0  0  0
 58 70  1  0  0  0
 58 71  1  0  0  0
 59 72  1  0  0  0
 59 73  1  0  0  0
M  CHG  1  52   1
M  END
> <s_m_entry_id>
122

> <s_m_entry_name>
000000122.1

> <s_m_Source_Path>
/Users/zaksoul/Documents/2

> <s_m_Source_File>
000000122.mol2

> <i_m_Source_File_Index>
1

$$$$
No_0_133
                    3D
 Schrodinger Suite 2022-4.
 74 80  0  0  1  0            999 V2000
   -5.1580    3.2520  -22.4560 C   0  0  0  0  0  0
   -5.3860    3.3900  -23.8040 C   0  0  0  0  0  0
   -3.9280    3.0250  -22.0690 C   0  0  0  0  0  0
   -2.9730    3.0840  -24.2100 C   0  0  0  0  0  0
   -2.8530    2.8920  -22.7770 C   0  0  0  0  0  0
   -4.3070    3.3120  -24.7800 C   0  0  0  0  0  0
   -3.4860    3.2640  -26.9540 C   0  0  0  0  0  0
    6.0860    2.8270  -21.3770 C   0  0  0  0  0  0
    6.0230    2.8760  -23.9330 C   0  0  0  0  0  0
   -4.5190    3.3890  -26.1260 C   0  0  0  0  0  0
    2.2360    3.3810  -24.0840 C   0  0  0  0  0  0
    1.3950    4.4900  -23.8490 C   0  0  0  0  0  0
    3.1600    5.7300  -23.1600 C   0  0  0  0  0  0
    3.6240    3.5990  -23.7360 C   0  0  0  0  0  0
    1.7210    2.2350  -24.7200 C   0  0  0  0  0  0
   -0.4170    3.0280  -24.7020 C   0  0  0  0  0  0
    0.0790    4.2750  -24.1330 C   0  0  0  0  0  0
   -1.8580    3.0050  -25.1000 C   0  0  0  0  0  0
    4.2460    1.1200  -23.3360 C   0  0  0  0  0  0
    5.1480    0.8160  -22.1490 C   0  0  2  0  0  0
    6.7400    2.3540  -22.6940 C   0  0  2  0  0  0
    5.0840    1.8580  -21.0200 C   0  0  0  0  0  0
   -2.1420    3.1100  -26.5420 C   0  0  0  0  0  0
   -1.5230    2.5160  -22.1240 C   0  0  0  0  0  0
   -0.5050    2.1980  -21.5760 C   0  0  0  0  0  0
   -0.7830    5.3220  -23.8510 F   0  0  0  0  0  0
   -3.7570    2.8350  -20.6730 F   0  0  0  0  0  0
    1.8440    5.6730  -23.3460 N   0  0  0  0  0  0
    4.0720    4.7700  -23.3180 N   0  0  0  0  0  0
    0.4250    2.1200  -25.0610 N   0  0  0  0  0  0
    4.5580    2.5550  -23.8470 N   0  0  0  0  0  0
    6.5670    0.8810  -22.5920 N   0  0  1  0  0  0
   -3.6170    3.2270  -28.3480 O   0  0  0  0  0  0
   -5.9821    3.3323  -21.7564 H   0  0  0  0  0  0
   -6.3920    3.5617  -24.1695 H   0  0  0  0  0  0
    5.6086    3.8051  -21.5365 H   0  0  0  0  0  0
    6.8489    2.8734  -20.5859 H   0  0  0  0  0  0
    6.4498    2.4037  -24.8301 H   0  0  0  0  0  0
    6.1562    3.9657  -24.0016 H   0  0  0  0  0  0
   -5.5201    3.5505  -26.5092 H   0  0  0  0  0  0
    2.3766    1.4037  -24.9529 H   0  0  0  0  0  0
    3.1940    1.0645  -23.0193 H   0  0  0  0  0  0
    4.4398    0.3942  -24.1395 H   0  0  0  0  0  0
    4.9230   -0.1847  -21.7515 H   0  0  0  0  0  0
    7.8068    2.6212  -22.7182 H   0  0  0  0  0  0
    4.0949    2.3394  -21.0240 H   0  0  0  0  0  0
    5.3615    1.3808  -20.0686 H   0  0  0  0  0  0
   -1.3494    3.0709  -27.2804 H   0  0  0  0  0  0
    0.3913    1.9179  -21.0929 H   0  0  0  0  0  0
    7.1985    0.4162  -21.8494 H   0  0  0  0  0  0
   -2.7590    3.1330  -28.7448 H   0  0  0  0  0  0
    5.3300    8.3170  -21.2160 N   0  3  1  0  0  0
    6.3260    8.2570  -20.0990 C   0  0  0  0  0  0
    6.2730    8.8940  -22.2280 C   0  0  0  0  0  0
    4.7080    6.9930  -21.5690 C   0  0  0  0  0  0
    8.5580    8.0650  -21.3450 C   0  0  0  0  0  0
    7.3120    8.9320  -21.0810 C   0  0  2  0  0  0
    3.6910    7.0910  -22.7240 C   0  0  0  0  0  0
    9.4820    8.7540  -22.3620 C   0  0  0  0  0  0
    4.6097    8.9873  -20.9969 H   0  0  0  0  0  0
    6.6378    7.2066  -20.0021 H   0  0  0  0  0  0
    6.0319    9.0204  -19.3636 H   0  0  0  0  0  0
    5.9558    9.9317  -22.4081 H   0  0  0  0  0  0
    6.5660    8.0730  -22.8990 H   0  0  0  0  0  0
    4.2122    6.5732  -20.6814 H   0  0  0  0  0  0
    5.4991    6.2779  -21.8390 H   0  0  0  0  0  0
    8.2460    7.0861  -21.7380 H   0  0  0  0  0  0
    9.1020    7.9080  -20.4019 H   0  0  0  0  0  0
    7.5691    9.9583  -20.7799 H   0  0  0  0  0  0
    4.1610    7.5920  -23.5831 H   0  0  0  0  0  0
    2.8504    7.7307  -22.4171 H   0  0  0  0  0  0
   10.3663    8.1248  -22.5411 H   0  0  0  0  0  0
    8.9410    8.9030  -23.3081 H   0  0  0  0  0  0
    9.8007    9.7292  -21.9653 H   0  0  0  0  0  0
  1  2  2  0  0  0
  1  3  1  0  0  0
  1 34  1  0  0  0
  2  6  1  0  0  0
  2 35  1  0  0  0
  3  5  2  0  0  0
  3 27  1  0  0  0
  4  5  1  0  0  0
  4  6  2  0  0  0
  4 18  1  0  0  0
  5 24  1  0  0  0
  6 10  1  0  0  0
  7 10  2  0  0  0
  7 23  1  0  0  0
  7 33  1  0  0  0
  8 21  1  0  0  0
  8 22  1  0  0  0
  8 36  1  0  0  0
  8 37  1  0  0  0
  9 21  1  0  0  0
  9 31  1  0  0  0
  9 38  1  0  0  0
  9 39  1  0  0  0
 10 40  1  0  0  0
 11 12  1  0  0  0
 11 14  2  0  0  0
 11 15  1  0  0  0
 12 17  1  0  0  0
 12 28  2  0  0  0
 13 28  1  0  0  0
 13 29  2  0  0  0
 13 58  1  0  0  0
 14 29  1  0  0  0
 14 31  1  0  0  0
 15 30  2  0  0  0
 15 41  1  0  0  0
 16 17  2  0  0  0
 16 18  1  0  0  0
 16 30  1  0  0  0
 17 26  1  0  0  0
 18 23  2  0  0  0
 19 20  1  0  0  0
 19 31  1  0  0  0
 19 42  1  0  0  0
 19 43  1  0  0  0
 20 22  1  0  0  0
 20 32  1  0  0  0
 20 44  1  0  0  0
 21 32  1  0  0  0
 21 45  1  0  0  0
 22 46  1  0  0  0
 22 47  1  0  0  0
 23 48  1  0  0  0
 24 25  3  0  0  0
 25 49  1  0  0  0
 32 50  1  0  0  0
 33 51  1  0  0  0
 52 53  1  0  0  0
 52 54  1  0  0  0
 52 55  1  0  0  0
 52 60  1  0  0  0
 53 57  1  0  0  0
 53 61  1  0  0  0
 53 62  1  0  0  0
 54 57  1  0  0  0
 54 63  1  0  0  0
 54 64  1  0  0  0
 55 58  1  0  0  0
 55 65  1  0  0  0
 55 66  1  0  0  0
 56 57  1  0  0  0
 56 59  1  0  0  0
 56 67  1  0  0  0
 56 68  1  0  0  0
 57 69  1  0  0  0
 58 70  1  0  0  0
 58 71  1  0  0  0
 59 72  1  0  0  0
 59 73  1  0  0  0
 59 74  1  0  0  0
M  CHG  1  52   1
M  END
> <s_m_entry_id>
123

> <s_m_entry_name>
000000123.1

> <s_m_Source_Path>
/Users/zaksoul/Documents/2

> <s_m_Source_File>
000000123.mol2

> <i_m_Source_File_Index>
1

$$$$
No_0_134
                    3D
 Schrodinger Suite 2022-4.
 71 77  0  0  1  0            999 V2000
   -5.3630    3.5880  -22.3130 C   0  0  0  0  0  0
   -5.6060    3.7470  -23.6560 C   0  0  0  0  0  0
   -4.1300    3.3500  -21.9440 C   0  0  0  0  0  0
   -3.2000    3.4390  -24.0960 C   0  0  0  0  0  0
   -3.0630    3.2250  -22.6680 C   0  0  0  0  0  0
   -4.5400    3.6810  -24.6460 C   0  0  0  0  0  0
   -3.7450    3.6640  -26.8310 C   0  0  0  0  0  0
    5.8920    3.1050  -21.3770 C   0  0  0  0  0  0
    5.7980    3.1940  -23.9300 C   0  0  0  0  0  0
   -4.7670    3.7800  -25.9880 C   0  0  0  0  0  0
    2.0110    3.7150  -24.0270 C   0  0  0  0  0  0
    1.1780    4.8240  -23.7660 C   0  0  0  0  0  0
    2.9550    6.0460  -23.0780 C   0  0  0  0  0  0
    3.4040    3.9220  -23.6930 C   0  0  0  0  0  0
    1.4840    2.5810  -24.6750 C   0  0  0  0  0  0
   -0.6500    3.3820  -24.6200 C   0  0  0  0  0  0
   -0.1420    4.6170  -24.0360 C   0  0  0  0  0  0
   -2.0960    3.3700  -25.0000 C   0  0  0  0  0  0
    4.0210    1.4350  -23.3390 C   0  0  0  0  0  0
    4.9360    1.1090  -22.1690 C   0  0  2  0  0  0
    6.5280    2.6500  -22.7080 C   0  0  2  0  0  0
    4.8900    2.1340  -21.0230 C   0  0  0  0  0  0
   -2.3970    3.4980  -26.4370 C   0  0  0  0  0  0
   -1.7280    2.8330  -22.0370 C   0  0  0  0  0  0
   -0.7040    2.5030  -21.5060 C   0  0  0  0  0  0
   -0.9970    5.6630  -23.7290 F   0  0  0  0  0  0
   -3.9430    3.1380  -20.5540 F   0  0  0  0  0  0
    1.6370    5.9970  -23.2490 N   0  0  0  0  0  0
    3.8620    5.0850  -23.2620 N   0  0  0  0  0  0
    0.1840    2.4760  -25.0020 N   0  0  0  0  0  0
    4.3320    2.8770  -23.8320 N   0  0  0  0  0  0
    6.3510    1.1760  -22.6270 N   0  0  1  0  0  0
   -3.8920    3.6490  -28.2230 O   0  0  0  0  0  0
   -6.1782    3.6603  -21.6022 H   0  0  0  0  0  0
   -6.6156    3.9287  -24.0063 H   0  0  0  0  0  0
    5.4165    4.0872  -21.5153 H   0  0  0  0  0  0
    6.6639    3.1363  -20.5940 H   0  0  0  0  0  0
    6.2127    2.7339  -24.8391 H   0  0  0  0  0  0
    5.9353    4.2841  -23.9835 H   0  0  0  0  0  0
   -5.7722    3.9505  -26.3562 H   0  0  0  0  0  0
    2.1340    1.7514  -24.9288 H   0  0  0  0  0  0
    2.9725    1.3785  -23.0110 H   0  0  0  0  0  0
    4.2026    0.7216  -24.1563 H   0  0  0  0  0  0
    4.7121    0.1033  -21.7837 H   0  0  0  0  0  0
    7.5955    2.9133  -22.7403 H   0  0  0  0  0  0
    3.9026    2.6186  -21.0068 H   0  0  0  0  0  0
    5.1776    1.6415  -20.0824 H   0  0  0  0  0  0
   -1.6134    3.4689  -27.1855 H   0  0  0  0  0  0
    0.1969    2.2120  -21.0381 H   0  0  0  0  0  0
    6.9884    0.6969  -21.8987 H   0  0  0  0  0  0
   -3.0394    3.5579  -28.6320 H   0  0  0  0  0  0
    9.0720    9.1830  -22.2980 F   0  0  0  0  0  0
    5.1400    8.6090  -21.1140 N   0  3  2  0  0  0
    7.0920    9.2990  -20.9690 C   0  0  1  0  0  0
    3.4970    7.3980  -22.6280 C   0  0  0  0  0  0
    6.0640    9.2260  -22.1210 C   0  0  0  0  0  0
    6.1480    8.5430  -20.0070 C   0  0  0  0  0  0
    4.5280    7.2860  -21.4870 C   0  0  0  0  0  0
    8.3870    8.5290  -21.2800 C   0  0  0  0  0  0
    4.4128    9.2641  -20.8729 H   0  0  0  0  0  0
    7.2850   10.3317  -20.6431 H   0  0  0  0  0  0
    3.9561    7.9121  -23.4852 H   0  0  0  0  0  0
    2.6622    8.0369  -22.3041 H   0  0  0  0  0  0
    5.7063   10.2512  -22.2969 H   0  0  0  0  0  0
    6.3910    8.4189  -22.7931 H   0  0  0  0  0  0
    6.5039    7.5033  -19.9590 H   0  0  0  0  0  0
    5.8281    9.2628  -19.2392 H   0  0  0  0  0  0
    4.0470    6.8440  -20.6020 H   0  0  0  0  0  0
    5.3237    6.5854  -21.7803 H   0  0  0  0  0  0
    9.0170    8.4930  -20.3790 H   0  0  0  0  0  0
    8.1379    7.5075  -21.6032 H   0  0  0  0  0  0
  1  2  2  0  0  0
  1  3  1  0  0  0
  1 34  1  0  0  0
  2  6  1  0  0  0
  2 35  1  0  0  0
  3  5  2  0  0  0
  3 27  1  0  0  0
  4  5  1  0  0  0
  4  6  2  0  0  0
  4 18  1  0  0  0
  5 24  1  0  0  0
  6 10  1  0  0  0
  7 10  2  0  0  0
  7 23  1  0  0  0
  7 33  1  0  0  0
  8 21  1  0  0  0
  8 22  1  0  0  0
  8 36  1  0  0  0
  8 37  1  0  0  0
  9 21  1  0  0  0
  9 31  1  0  0  0
  9 38  1  0  0  0
  9 39  1  0  0  0
 10 40  1  0  0  0
 11 12  1  0  0  0
 11 14  2  0  0  0
 11 15  1  0  0  0
 12 17  1  0  0  0
 12 28  2  0  0  0
 13 28  1  0  0  0
 13 29  2  0  0  0
 13 55  1  0  0  0
 14 29  1  0  0  0
 14 31  1  0  0  0
 15 30  2  0  0  0
 15 41  1  0  0  0
 16 17  2  0  0  0
 16 18  1  0  0  0
 16 30  1  0  0  0
 17 26  1  0  0  0
 18 23  2  0  0  0
 19 20  1  0  0  0
 19 31  1  0  0  0
 19 42  1  0  0  0
 19 43  1  0  0  0
 20 22  1  0  0  0
 20 32  1  0  0  0
 20 44  1  0  0  0
 21 32  1  0  0  0
 21 45  1  0  0  0
 22 46  1  0  0  0
 22 47  1  0  0  0
 23 48  1  0  0  0
 24 25  3  0  0  0
 25 49  1  0  0  0
 32 50  1  0  0  0
 33 51  1  0  0  0
 52 59  1  0  0  0
 53 56  1  0  0  0
 53 57  1  0  0  0
 53 58  1  0  0  0
 53 60  1  0  0  0
 54 56  1  0  0  0
 54 57  1  0  0  0
 54 59  1  0  0  0
 54 61  1  0  0  0
 55 58  1  0  0  0
 55 62  1  0  0  0
 55 63  1  0  0  0
 56 64  1  0  0  0
 56 65  1  0  0  0
 57 66  1  0  0  0
 57 67  1  0  0  0
 58 68  1  0  0  0
 58 69  1  0  0  0
 59 70  1  0  0  0
 59 71  1  0  0  0
M  CHG  1  53   1
M  END
> <s_m_entry_id>
124

> <s_m_entry_name>
000000124.1

> <s_m_Source_Path>
/Users/zaksoul/Documents/2

> <s_m_Source_File>
000000124.mol2

> <i_m_Source_File_Index>
1

$$$$
No_0_135
                    3D
 Schrodinger Suite 2022-4.
 71 77  0  0  1  0            999 V2000
   -5.2360    3.3920  -22.1320 C   0  0  0  0  0  0
   -5.4910    3.5620  -23.4730 C   0  0  0  0  0  0
   -3.9960    3.1710  -21.7750 C   0  0  0  0  0  0
   -3.0830    3.3000  -23.9320 C   0  0  0  0  0  0
   -2.9330    3.0720  -22.5070 C   0  0  0  0  0  0
   -4.4300    3.5260  -24.4700 C   0  0  0  0  0  0
   -3.6500    3.5460  -26.6600 C   0  0  0  0  0  0
    6.0320    3.0930  -21.2770 C   0  0  0  0  0  0
    5.9200    3.2100  -23.8290 C   0  0  0  0  0  0
   -4.6690    3.6350  -25.8100 C   0  0  0  0  0  0
    2.1230    3.6660  -23.8950 C   0  0  0  0  0  0
    1.2730    4.7570  -23.6150 C   0  0  0  0  0  0
    3.0340    6.0020  -22.9260 C   0  0  0  0  0  0
    3.5150    3.8930  -23.5670 C   0  0  0  0  0  0
    1.6120    2.5300  -24.5520 C   0  0  0  0  0  0
   -0.5360    3.2930  -24.4730 C   0  0  0  0  0  0
   -0.0450    4.5310  -23.8790 C   0  0  0  0  0  0
   -1.9840    3.2610  -24.8440 C   0  0  0  0  0  0
    4.1770    1.4130  -23.2460 C   0  0  0  0  0  0
    5.1060    1.0900  -22.0860 C   0  0  2  0  0  0
    6.6670    2.6640  -22.6180 C   0  0  2  0  0  0
    5.0500    2.1010  -20.9280 C   0  0  0  0  0  0
   -2.2970    3.4000  -26.2770 C   0  0  0  0  0  0
   -1.5860    2.6970  -21.8900 C   0  0  0  0  0  0
   -0.5530    2.3780  -21.3690 C   0  0  0  0  0  0
   -0.9160    5.5580  -23.5540 F   0  0  0  0  0  0
   -3.7960    2.9460  -20.3890 F   0  0  0  0  0  0
    1.7160    5.9320  -23.0890 N   0  0  0  0  0  0
    3.9550    5.0590  -23.1270 N   0  0  0  0  0  0
    0.3120    2.4070  -24.8710 N   0  0  0  0  0  0
    4.4600    2.8660  -23.7250 N   0  0  0  0  0  0
    6.5160    1.1870  -22.5530 N   0  0  1  0  0  0
   -3.8070    3.5450  -28.0520 O   0  0  0  0  0  0
   -6.0474    3.4422  -21.4150 H   0  0  0  0  0  0
   -6.5061    3.7297  -23.8144 H   0  0  0  0  0  0
    5.5392    4.0685  -21.4012 H   0  0  0  0  0  0
    6.8089    3.1293  -20.4991 H   0  0  0  0  0  0
    6.3357    2.7671  -24.7461 H   0  0  0  0  0  0
    6.0371    4.3030  -23.8704 H   0  0  0  0  0  0
   -5.6794    3.7927  -26.1696 H   0  0  0  0  0  0
    2.2736    1.7139  -24.8190 H   0  0  0  0  0  0
    3.1319    1.3343  -22.9121 H   0  0  0  0  0  0
    4.3658    0.7124  -24.0728 H   0  0  0  0  0  0
    4.9013    0.0764  -21.7108 H   0  0  0  0  0  0
    7.7294    2.9465  -22.6553 H   0  0  0  0  0  0
    4.0546    2.5684  -20.8997 H   0  0  0  0  0  0
    5.3516    1.6027  -19.9949 H   0  0  0  0  0  0
   -1.5181    3.3920  -27.0308 H   0  0  0  0  0  0
    0.3563    2.0979  -20.9109 H   0  0  0  0  0  0
    7.1671    0.7112  -21.8346 H   0  0  0  0  0  0
   -2.9554    3.4727  -28.4669 H   0  0  0  0  0  0
    8.8790    9.6900  -23.2340 F   0  0  0  0  0  0
    5.4090    8.5960  -21.2440 N   0  3  2  0  0  0
    7.2750    9.4750  -21.4780 C   0  0  1  0  0  0
    3.5550    7.3580  -22.4630 C   0  0  0  0  0  0
    6.0090    9.3960  -22.3620 C   0  0  0  0  0  0
    6.6560    8.5380  -20.4150 C   0  0  0  0  0  0
    4.8360    7.2550  -21.6120 C   0  0  0  0  0  0
    8.5160    8.8780  -22.1650 C   0  0  0  0  0  0
    4.7102    9.1458  -20.7692 H   0  0  0  0  0  0
    7.4562   10.4889  -21.0917 H   0  0  0  0  0  0
    3.7500    7.9929  -23.3399 H   0  0  0  0  0  0
    2.7729    7.8731  -21.8859 H   0  0  0  0  0  0
    5.5373   10.3893  -22.3340 H   0  0  0  0  0  0
    6.2301    8.6916  -23.1774 H   0  0  0  0  0  0
    7.0982    7.5426  -20.5691 H   0  0  0  0  0  0
    6.4741    9.1487  -19.5184 H   0  0  0  0  0  0
    4.6211    6.6862  -20.6953 H   0  0  0  0  0  0
    5.5918    6.6722  -22.1589 H   0  0  0  0  0  0
    9.3456    8.8280  -21.4444 H   0  0  0  0  0  0
    8.2810    7.8691  -22.5350 H   0  0  0  0  0  0
  1  2  2  0  0  0
  1  3  1  0  0  0
  1 34  1  0  0  0
  2  6  1  0  0  0
  2 35  1  0  0  0
  3  5  2  0  0  0
  3 27  1  0  0  0
  4  5  1  0  0  0
  4  6  2  0  0  0
  4 18  1  0  0  0
  5 24  1  0  0  0
  6 10  1  0  0  0
  7 10  2  0  0  0
  7 23  1  0  0  0
  7 33  1  0  0  0
  8 21  1  0  0  0
  8 22  1  0  0  0
  8 36  1  0  0  0
  8 37  1  0  0  0
  9 21  1  0  0  0
  9 31  1  0  0  0
  9 38  1  0  0  0
  9 39  1  0  0  0
 10 40  1  0  0  0
 11 12  1  0  0  0
 11 14  2  0  0  0
 11 15  1  0  0  0
 12 17  1  0  0  0
 12 28  2  0  0  0
 13 28  1  0  0  0
 13 29  2  0  0  0
 13 55  1  0  0  0
 14 29  1  0  0  0
 14 31  1  0  0  0
 15 30  2  0  0  0
 15 41  1  0  0  0
 16 17  2  0  0  0
 16 18  1  0  0  0
 16 30  1  0  0  0
 17 26  1  0  0  0
 18 23  2  0  0  0
 19 20  1  0  0  0
 19 31  1  0  0  0
 19 42  1  0  0  0
 19 43  1  0  0  0
 20 22  1  0  0  0
 20 32  1  0  0  0
 20 44  1  0  0  0
 21 32  1  0  0  0
 21 45  1  0  0  0
 22 46  1  0  0  0
 22 47  1  0  0  0
 23 48  1  0  0  0
 24 25  3  0  0  0
 25 49  1  0  0  0
 32 50  1  0  0  0
 33 51  1  0  0  0
 52 59  1  0  0  0
 53 56  1  0  0  0
 53 57  1  0  0  0
 53 58  1  0  0  0
 53 60  1  0  0  0
 54 56  1  0  0  0
 54 57  1  0  0  0
 54 59  1  0  0  0
 54 61  1  0  0  0
 55 58  1  0  0  0
 55 62  1  0  0  0
 55 63  1  0  0  0
 56 64  1  0  0  0
 56 65  1  0  0  0
 57 66  1  0  0  0
 57 67  1  0  0  0
 58 68  1  0  0  0
 58 69  1  0  0  0
 59 70  1  0  0  0
 59 71  1  0  0  0
M  CHG  1  53   1
M  END
> <s_m_entry_id>
125

> <s_m_entry_name>
000000125.1

> <s_m_Source_Path>
/Users/zaksoul/Documents/2

> <s_m_Source_File>
000000125.mol2

> <i_m_Source_File_Index>
1

$$$$
No_0_136
                    3D
 Schrodinger Suite 2022-4.
 71 77  0  0  1  0            999 V2000
   -5.2450    3.4530  -22.0390 C   0  0  0  0  0  0
   -5.5250    3.6340  -23.3730 C   0  0  0  0  0  0
   -4.0030    3.1990  -21.7100 C   0  0  0  0  0  0
   -3.1360    3.3090  -23.8860 C   0  0  0  0  0  0
   -2.9600    3.0730  -22.4660 C   0  0  0  0  0  0
   -4.4880    3.5720  -24.3940 C   0  0  0  0  0  0
   -3.7570    3.5780  -26.6010 C   0  0  0  0  0  0
    6.0270    2.8500  -21.4380 C   0  0  0  0  0  0
    5.8610    2.9760  -23.9860 C   0  0  0  0  0  0
   -4.7540    3.6920  -25.7270 C   0  0  0  0  0  0
    2.0780    3.5350  -23.9660 C   0  0  0  0  0  0
    1.2630    4.6470  -23.6640 C   0  0  0  0  0  0
    3.0720    5.8420  -23.0120 C   0  0  0  0  0  0
    3.4820    3.7240  -23.6690 C   0  0  0  0  0  0
    1.5210    2.4150  -24.6140 C   0  0  0  0  0  0
   -0.6020    3.2350  -24.4850 C   0  0  0  0  0  0
   -0.0660    4.4580  -23.8990 C   0  0  0  0  0  0
   -2.0590    3.2430  -24.8230 C   0  0  0  0  0  0
    4.0840    1.2260  -23.3680 C   0  0  0  0  0  0
    5.0290    0.8750  -22.2290 C   0  0  2  0  0  0
    6.6200    2.4080  -22.7930 C   0  0  2  0  0  0
    5.0270    1.8840  -21.0690 C   0  0  0  0  0  0
   -2.4000    3.3940  -26.2490 C   0  0  0  0  0  0
   -1.6100    2.6600  -21.8800 C   0  0  0  0  0  0
   -0.5750    2.3130  -21.3830 C   0  0  0  0  0  0
   -0.9010    5.5070  -23.5520 F   0  0  0  0  0  0
   -3.7780    2.9650  -20.3290 F   0  0  0  0  0  0
    1.7490    5.8080  -23.1450 N   0  0  0  0  0  0
    3.9630    4.8760  -23.2360 N   0  0  0  0  0  0
    0.2110    2.3270  -24.9040 N   0  0  0  0  0  0
    4.3950    2.6720  -23.8500 N   0  0  0  0  0  0
    6.4310    0.9350  -22.7280 N   0  0  1  0  0  0
   -3.9450    3.5840  -27.9880 O   0  0  0  0  0  0
   -6.0385    3.5233  -21.3038 H   0  0  0  0  0  0
   -6.5424    3.8307  -23.6911 H   0  0  0  0  0  0
    5.5575    3.8385  -21.5491 H   0  0  0  0  0  0
    6.8217    2.8631  -20.6776 H   0  0  0  0  0  0
    6.2435    2.5249  -24.9135 H   0  0  0  0  0  0
    6.0063    4.0656  -24.0274 H   0  0  0  0  0  0
   -5.7677    3.8777  -26.0632 H   0  0  0  0  0  0
    2.1554    1.5829  -24.8971 H   0  0  0  0  0  0
    3.0449    1.1745  -23.0109 H   0  0  0  0  0  0
    4.2354    0.5224  -24.1998 H   0  0  0  0  0  0
    4.8060   -0.1342  -21.8526 H   0  0  0  0  0  0
    7.6887    2.6613  -22.8536 H   0  0  0  0  0  0
    4.0452    2.3774  -21.0175 H   0  0  0  0  0  0
    5.3356    1.3747  -20.1442 H   0  0  0  0  0  0
   -1.6388    3.3679  -27.0203 H   0  0  0  0  0  0
    0.3362    2.0069  -20.9459 H   0  0  0  0  0  0
    7.0846    0.4397  -22.0252 H   0  0  0  0  0  0
   -3.1054    3.4909  -28.4226 H   0  0  0  0  0  0
    5.6630    8.3210  -21.4520 N   0  3  0  0  0  0
    4.9780    9.2390  -20.5150 C   0  0  0  0  0  0
    6.2850    8.4300  -20.1130 C   0  0  0  0  0  0
    3.6400    7.1830  -22.5580 C   0  0  0  0  0  0
    6.4530    8.9620  -22.5690 C   0  0  0  0  0  0
    4.9390    7.0260  -21.7360 C   0  0  0  0  0  0
    7.7250    8.1670  -22.9260 C   0  0  0  0  0  0
    4.2310    8.5330  -20.1230 H   0  0  0  0  0  0
    5.4649   10.1738  -20.8299 H   0  0  0  0  0  0
    7.0270    9.2070  -20.3490 H   0  0  0  0  0  0
    5.7932    7.5654  -19.6432 H   0  0  0  0  0  0
    3.8380    7.8129  -23.4378 H   0  0  0  0  0  0
    2.8876    7.7143  -21.9567 H   0  0  0  0  0  0
    6.7310    9.9860  -22.2790 H   0  0  0  0  0  0
    5.8166    9.0541  -23.4615 H   0  0  0  0  0  0
    4.7100    6.5210  -20.7860 H   0  0  0  0  0  0
    5.6190    6.3360  -22.2570 H   0  0  0  0  0  0
    8.2591    8.6771  -23.7412 H   0  0  0  0  0  0
    8.3785    8.1040  -22.0434 H   0  0  0  0  0  0
    7.4460    7.1532  -23.2490 H   0  0  0  0  0  0
  1  2  2  0  0  0
  1  3  1  0  0  0
  1 34  1  0  0  0
  2  6  1  0  0  0
  2 35  1  0  0  0
  3  5  2  0  0  0
  3 27  1  0  0  0
  4  5  1  0  0  0
  4  6  2  0  0  0
  4 18  1  0  0  0
  5 24  1  0  0  0
  6 10  1  0  0  0
  7 10  2  0  0  0
  7 23  1  0  0  0
  7 33  1  0  0  0
  8 21  1  0  0  0
  8 22  1  0  0  0
  8 36  1  0  0  0
  8 37  1  0  0  0
  9 21  1  0  0  0
  9 31  1  0  0  0
  9 38  1  0  0  0
  9 39  1  0  0  0
 10 40  1  0  0  0
 11 12  1  0  0  0
 11 14  2  0  0  0
 11 15  1  0  0  0
 12 17  1  0  0  0
 12 28  2  0  0  0
 13 28  1  0  0  0
 13 29  2  0  0  0
 13 55  1  0  0  0
 14 29  1  0  0  0
 14 31  1  0  0  0
 15 30  2  0  0  0
 15 41  1  0  0  0
 16 17  2  0  0  0
 16 18  1  0  0  0
 16 30  1  0  0  0
 17 26  1  0  0  0
 18 23  2  0  0  0
 19 20  1  0  0  0
 19 31  1  0  0  0
 19 42  1  0  0  0
 19 43  1  0  0  0
 20 22  1  0  0  0
 20 32  1  0  0  0
 20 44  1  0  0  0
 21 32  1  0  0  0
 21 45  1  0  0  0
 22 46  1  0  0  0
 22 47  1  0  0  0
 23 48  1  0  0  0
 24 25  3  0  0  0
 25 49  1  0  0  0
 32 50  1  0  0  0
 33 51  1  0  0  0
 52 53  1  0  0  0
 52 54  1  0  0  0
 52 56  1  0  0  0
 52 57  1  0  0  0
 53 54  1  0  0  0
 53 59  1  0  0  0
 53 60  1  0  0  0
 54 61  1  0  0  0
 54 62  1  0  0  0
 55 57  1  0  0  0
 55 63  1  0  0  0
 55 64  1  0  0  0
 56 58  1  0  0  0
 56 65  1  0  0  0
 56 66  1  0  0  0
 57 67  1  0  0  0
 57 68  1  0  0  0
 58 69  1  0  0  0
 58 70  1  0  0  0
 58 71  1  0  0  0
M  CHG  1  52   1
M  END
> <s_m_entry_id>
126

> <s_m_entry_name>
000000126.1

> <s_m_Source_Path>
/Users/zaksoul/Documents/2

> <s_m_Source_File>
000000126.mol2

> <i_m_Source_File_Index>
1

$$$$
No_0_137
                    3D
 Schrodinger Suite 2022-4.
 71 77  0  0  1  0            999 V2000
   -5.2710    3.4400  -22.1230 C   0  0  0  0  0  0
   -5.5200    3.6270  -23.4620 C   0  0  0  0  0  0
   -4.0340    3.2050  -21.7640 C   0  0  0  0  0  0
   -3.1120    3.3490  -23.9150 C   0  0  0  0  0  0
   -2.9690    3.1050  -22.4930 C   0  0  0  0  0  0
   -4.4560    3.5910  -24.4570 C   0  0  0  0  0  0
   -3.6680    3.6280  -26.6430 C   0  0  0  0  0  0
    5.9910    3.0350  -21.2310 C   0  0  0  0  0  0
    5.8880    3.1790  -23.7820 C   0  0  0  0  0  0
   -4.6890    3.7170  -25.7950 C   0  0  0  0  0  0
    2.0960    3.6690  -23.8570 C   0  0  0  0  0  0
    1.2540    4.7640  -23.5680 C   0  0  0  0  0  0
    3.0230    5.9860  -22.8600 C   0  0  0  0  0  0
    3.4890    3.8800  -23.5220 C   0  0  0  0  0  0
    1.5770    2.5440  -24.5270 C   0  0  0  0  0  0
   -0.5640    3.3250  -24.4480 C   0  0  0  0  0  0
   -0.0650    4.5520  -23.8400 C   0  0  0  0  0  0
   -2.0110    3.3090  -24.8240 C   0  0  0  0  0  0
    4.1280    1.3920  -23.2240 C   0  0  0  0  0  0
    5.0500    1.0490  -22.0640 C   0  0  2  0  0  0
    6.6270    2.6140  -22.5740 C   0  0  2  0  0  0
    4.9990    2.0480  -20.8960 C   0  0  0  0  0  0
   -2.3170    3.4660  -26.2570 C   0  0  0  0  0  0
   -1.6280    2.7110  -21.8750 C   0  0  0  0  0  0
   -0.6000    2.3780  -21.3540 C   0  0  0  0  0  0
   -0.9280    5.5840  -23.5070 F   0  0  0  0  0  0
   -3.8410    2.9640  -20.3790 F   0  0  0  0  0  0
    1.7050    5.9290  -23.0280 N   0  0  0  0  0  0
    3.9380    5.0380  -23.0680 N   0  0  0  0  0  0
    0.2770    2.4350  -24.8530 N   0  0  0  0  0  0
    4.4250    2.8470  -23.6860 N   0  0  0  0  0  0
    6.4620    1.1380  -22.5250 N   0  0  1  0  0  0
   -3.8200    3.6420  -28.0350 O   0  0  0  0  0  0
   -6.0847    3.4902  -21.4086 H   0  0  0  0  0  0
   -6.5323    3.8068  -23.8055 H   0  0  0  0  0  0
    5.5067    4.0158  -21.3470 H   0  0  0  0  0  0
    6.7651    3.0562  -20.4498 H   0  0  0  0  0  0
    6.3036    2.7422  -24.7020 H   0  0  0  0  0  0
    6.0152    4.2712  -23.8123 H   0  0  0  0  0  0
   -5.6968    3.8866  -26.1564 H   0  0  0  0  0  0
    2.2334    1.7260  -24.8010 H   0  0  0  0  0  0
    3.0813    1.3183  -22.8939 H   0  0  0  0  0  0
    4.3137    0.6976  -24.0567 H   0  0  0  0  0  0
    4.8351    0.0332  -21.7008 H   0  0  0  0  0  0
    7.6920    2.8876  -22.6043 H   0  0  0  0  0  0
    4.0073    2.5231  -20.8667 H   0  0  0  0  0  0
    5.2926    1.5375  -19.9669 H   0  0  0  0  0  0
   -1.5361    3.4590  -27.0088 H   0  0  0  0  0  0
    0.3048    2.0851  -20.8951 H   0  0  0  0  0  0
    7.1068    0.6493  -21.8096 H   0  0  0  0  0  0
   -2.9674    3.5678  -28.4474 H   0  0  0  0  0  0
    5.6570    8.5760  -21.5770 N   0  3  0  0  0  0
    5.1050    9.3260  -20.4270 C   0  0  0  0  0  0
    6.5310    8.6290  -20.3840 C   0  0  0  0  0  0
    3.5550    7.3330  -22.3820 C   0  0  0  0  0  0
    6.1400    9.3970  -22.7500 C   0  0  0  0  0  0
    5.0050    7.2420  -21.8550 C   0  0  0  0  0  0
    7.3730    8.7800  -23.4370 C   0  0  0  0  0  0
    4.5192    8.5113  -19.9762 H   0  0  0  0  0  0
    5.4329   10.3326  -20.7259 H   0  0  0  0  0  0
    7.1381    9.4992  -20.6741 H   0  0  0  0  0  0
    6.2251    7.6772  -19.9251 H   0  0  0  0  0  0
    3.5110    8.0580  -23.2081 H   0  0  0  0  0  0
    2.9011    7.7230  -21.5881 H   0  0  0  0  0  0
    6.3821   10.4144  -22.4089 H   0  0  0  0  0  0
    5.3262    9.5010  -23.4828 H   0  0  0  0  0  0
    5.0220    6.6312  -20.9403 H   0  0  0  0  0  0
    5.6191    6.6789  -22.5732 H   0  0  0  0  0  0
    7.6810    9.4160  -24.2800 H   0  0  0  0  0  0
    8.1988    8.7060  -22.7141 H   0  0  0  0  0  0
    7.1221    7.7756  -23.8088 H   0  0  0  0  0  0
  1  2  2  0  0  0
  1  3  1  0  0  0
  1 34  1  0  0  0
  2  6  1  0  0  0
  2 35  1  0  0  0
  3  5  2  0  0  0
  3 27  1  0  0  0
  4  5  1  0  0  0
  4  6  2  0  0  0
  4 18  1  0  0  0
  5 24  1  0  0  0
  6 10  1  0  0  0
  7 10  2  0  0  0
  7 23  1  0  0  0
  7 33  1  0  0  0
  8 21  1  0  0  0
  8 22  1  0  0  0
  8 36  1  0  0  0
  8 37  1  0  0  0
  9 21  1  0  0  0
  9 31  1  0  0  0
  9 38  1  0  0  0
  9 39  1  0  0  0
 10 40  1  0  0  0
 11 12  1  0  0  0
 11 14  2  0  0  0
 11 15  1  0  0  0
 12 17  1  0  0  0
 12 28  2  0  0  0
 13 28  1  0  0  0
 13 29  2  0  0  0
 13 55  1  0  0  0
 14 29  1  0  0  0
 14 31  1  0  0  0
 15 30  2  0  0  0
 15 41  1  0  0  0
 16 17  2  0  0  0
 16 18  1  0  0  0
 16 30  1  0  0  0
 17 26  1  0  0  0
 18 23  2  0  0  0
 19 20  1  0  0  0
 19 31  1  0  0  0
 19 42  1  0  0  0
 19 43  1  0  0  0
 20 22  1  0  0  0
 20 32  1  0  0  0
 20 44  1  0  0  0
 21 32  1  0  0  0
 21 45  1  0  0  0
 22 46  1  0  0  0
 22 47  1  0  0  0
 23 48  1  0  0  0
 24 25  3  0  0  0
 25 49  1  0  0  0
 32 50  1  0  0  0
 33 51  1  0  0  0
 52 53  1  0  0  0
 52 54  1  0  0  0
 52 56  1  0  0  0
 52 57  1  0  0  0
 53 54  1  0  0  0
 53 59  1  0  0  0
 53 60  1  0  0  0
 54 61  1  0  0  0
 54 62  1  0  0  0
 55 57  1  0  0  0
 55 63  1  0  0  0
 55 64  1  0  0  0
 56 58  1  0  0  0
 56 65  1  0  0  0
 56 66  1  0  0  0
 57 67  1  0  0  0
 57 68  1  0  0  0
 58 69  1  0  0  0
 58 70  1  0  0  0
 58 71  1  0  0  0
M  CHG  1  52   1
M  END
> <s_m_entry_id>
127

> <s_m_entry_name>
000000127.1

> <s_m_Source_Path>
/Users/zaksoul/Documents/2

> <s_m_Source_File>
000000127.mol2

> <i_m_Source_File_Index>
1

$$$$
No_0_138
                    3D
 Schrodinger Suite 2022-4.
 71 77  0  0  1  0            999 V2000
   -5.3920    3.3660  -22.0930 C   0  0  0  0  0  0
   -5.6030    3.5430  -23.4400 C   0  0  0  0  0  0
   -4.1650    3.1370  -21.6970 C   0  0  0  0  0  0
   -3.1830    3.2680  -23.8230 C   0  0  0  0  0  0
   -3.0800    3.0340  -22.3950 C   0  0  0  0  0  0
   -4.5110    3.5030  -24.4040 C   0  0  0  0  0  0
   -3.6620    3.5260  -26.5670 C   0  0  0  0  0  0
    5.8410    2.9960  -20.8820 C   0  0  0  0  0  0
    5.8100    3.1220  -23.4360 C   0  0  0  0  0  0
   -4.7070    3.6190  -25.7490 C   0  0  0  0  0  0
    2.0210    3.6010  -23.6200 C   0  0  0  0  0  0
    1.1680    4.6970  -23.3630 C   0  0  0  0  0  0
    2.9140    5.9280  -22.6140 C   0  0  0  0  0  0
    3.4030    3.8190  -23.2480 C   0  0  0  0  0  0
    1.5240    2.4710  -24.2970 C   0  0  0  0  0  0
   -0.6200    3.2470  -24.2840 C   0  0  0  0  0  0
   -0.1420    4.4800  -23.6700 C   0  0  0  0  0  0
   -2.0570    3.2250  -24.7000 C   0  0  0  0  0  0
    4.0390    1.3340  -22.9140 C   0  0  0  0  0  0
    4.9290    1.0010  -21.7260 C   0  0  2  0  0  0
    6.5160    2.5680  -22.2030 C   0  0  2  0  0  0
    4.8420    2.0090  -20.5670 C   0  0  0  0  0  0
   -2.3230    3.3710  -26.1420 C   0  0  0  0  0  0
   -1.7560    2.6480  -21.7370 C   0  0  0  0  0  0
   -0.7420    2.3220  -21.1850 C   0  0  0  0  0  0
   -1.0160    5.5110  -23.3690 F   0  0  0  0  0  0
   -4.0110    2.9060  -20.3060 F   0  0  0  0  0  0
    1.6010    5.8670  -22.8190 N   0  0  0  0  0  0
    3.8360    4.9810  -22.7890 N   0  0  0  0  0  0
    0.2340    2.3560  -24.6580 N   0  0  0  0  0  0
    4.3460    2.7870  -23.3780 N   0  0  0  0  0  0
    6.3540    1.0910  -22.1480 N   0  0  1  0  0  0
   -3.7750    3.5300  -27.9630 O   0  0  0  0  0  0
   -6.2256    3.4192  -21.4021 H   0  0  0  0  0  0
   -6.6059    3.7177  -23.8125 H   0  0  0  0  0  0
    5.3577    3.9747  -21.0182 H   0  0  0  0  0  0
    6.5929    3.0243  -20.0796 H   0  0  0  0  0  0
    6.2522    2.6788  -24.3405 H   0  0  0  0  0  0
    5.9352    4.2143  -23.4693 H   0  0  0  0  0  0
   -5.7044    3.7836  -26.1403 H   0  0  0  0  0  0
    2.1887    1.6517  -24.5460 H   0  0  0  0  0  0
    2.9834    1.2613  -22.6133 H   0  0  0  0  0  0
    4.2499    0.6347  -23.7365 H   0  0  0  0  0  0
    4.7069   -0.0128  -21.3615 H   0  0  0  0  0  0
    7.5809    2.8436  -22.2050 H   0  0  0  0  0  0
    3.8492    2.4827  -20.5690 H   0  0  0  0  0  0
    5.1114    1.5056  -19.6268 H   0  0  0  0  0  0
   -1.5203    3.3610  -26.8704 H   0  0  0  0  0  0
    0.1501    2.0340  -20.6989 H   0  0  0  0  0  0
    6.9788    0.6085  -21.4109 H   0  0  0  0  0  0
   -2.9111    3.4548  -28.3509 H   0  0  0  0  0  0
    5.5500    8.6500  -21.6490 N   0  3  0  0  0  0
    5.1910    9.2590  -20.3490 C   0  0  0  0  0  0
    6.6440    8.6950  -20.6530 C   0  0  0  0  0  0
    3.4290    7.2800  -22.1300 C   0  0  0  0  0  0
    5.7190    9.5960  -22.8150 C   0  0  0  0  0  0
    4.9580    7.2850  -21.9110 C   0  0  0  0  0  0
    6.8290    9.1470  -23.7860 C   0  0  0  0  0  0
    4.7741    8.3623  -19.8672 H   0  0  0  0  0  0
    5.3730   10.3107  -20.6149 H   0  0  0  0  0  0
    7.1108    9.6366  -20.9779 H   0  0  0  0  0  0
    6.5120    7.6882  -20.2301 H   0  0  0  0  0  0
    3.1610    8.0561  -22.8621 H   0  0  0  0  0  0
    2.9237    7.5482  -21.1904 H   0  0  0  0  0  0
    5.9491   10.6034  -22.4379 H   0  0  0  0  0  0
    4.7670    9.6780  -23.3600 H   0  0  0  0  0  0
    5.2101    6.6127  -21.0776 H   0  0  0  0  0  0
    5.4529    6.8361  -22.7848 H   0  0  0  0  0  0
    6.9070    9.8691  -24.6121 H   0  0  0  0  0  0
    7.7882    9.0980  -23.2499 H   0  0  0  0  0  0
    6.5830    8.1539  -24.1900 H   0  0  0  0  0  0
  1  2  2  0  0  0
  1  3  1  0  0  0
  1 34  1  0  0  0
  2  6  1  0  0  0
  2 35  1  0  0  0
  3  5  2  0  0  0
  3 27  1  0  0  0
  4  5  1  0  0  0
  4  6  2  0  0  0
  4 18  1  0  0  0
  5 24  1  0  0  0
  6 10  1  0  0  0
  7 10  2  0  0  0
  7 23  1  0  0  0
  7 33  1  0  0  0
  8 21  1  0  0  0
  8 22  1  0  0  0
  8 36  1  0  0  0
  8 37  1  0  0  0
  9 21  1  0  0  0
  9 31  1  0  0  0
  9 38  1  0  0  0
  9 39  1  0  0  0
 10 40  1  0  0  0
 11 12  1  0  0  0
 11 14  2  0  0  0
 11 15  1  0  0  0
 12 17  1  0  0  0
 12 28  2  0  0  0
 13 28  1  0  0  0
 13 29  2  0  0  0
 13 55  1  0  0  0
 14 29  1  0  0  0
 14 31  1  0  0  0
 15 30  2  0  0  0
 15 41  1  0  0  0
 16 17  2  0  0  0
 16 18  1  0  0  0
 16 30  1  0  0  0
 17 26  1  0  0  0
 18 23  2  0  0  0
 19 20  1  0  0  0
 19 31  1  0  0  0
 19 42  1  0  0  0
 19 43  1  0  0  0
 20 22  1  0  0  0
 20 32  1  0  0  0
 20 44  1  0  0  0
 21 32  1  0  0  0
 21 45  1  0  0  0
 22 46  1  0  0  0
 22 47  1  0  0  0
 23 48  1  0  0  0
 24 25  3  0  0  0
 25 49  1  0  0  0
 32 50  1  0  0  0
 33 51  1  0  0  0
 52 53  1  0  0  0
 52 54  1  0  0  0
 52 56  1  0  0  0
 52 57  1  0  0  0
 53 54  1  0  0  0
 53 59  1  0  0  0
 53 60  1  0  0  0
 54 61  1  0  0  0
 54 62  1  0  0  0
 55 57  1  0  0  0
 55 63  1  0  0  0
 55 64  1  0  0  0
 56 58  1  0  0  0
 56 65  1  0  0  0
 56 66  1  0  0  0
 57 67  1  0  0  0
 57 68  1  0  0  0
 58 69  1  0  0  0
 58 70  1  0  0  0
 58 71  1  0  0  0
M  CHG  1  52   1
M  END
> <s_m_entry_id>
128

> <s_m_entry_name>
000000128.1

> <s_m_Source_Path>
/Users/zaksoul/Documents/2

> <s_m_Source_File>
000000128.mol2

> <i_m_Source_File_Index>
1

$$$$
No_0_139
                    3D
 Schrodinger Suite 2022-4.
 71 77  0  0  1  0            999 V2000
   -5.2550    3.5970  -22.3100 C   0  0  0  0  0  0
   -5.4480    3.7980  -23.6560 C   0  0  0  0  0  0
   -4.0370    3.3460  -21.9030 C   0  0  0  0  0  0
   -3.0270    3.4980  -24.0150 C   0  0  0  0  0  0
   -2.9440    3.2400  -22.5900 C   0  0  0  0  0  0
   -4.3450    3.7600  -24.6070 C   0  0  0  0  0  0
   -3.4690    3.8070  -26.7600 C   0  0  0  0  0  0
    5.9560    3.0640  -20.9680 C   0  0  0  0  0  0
    5.9590    3.2310  -23.5200 C   0  0  0  0  0  0
   -4.5220    3.9000  -25.9530 C   0  0  0  0  0  0
    2.1780    3.7620  -23.7420 C   0  0  0  0  0  0
    1.3360    4.8640  -23.4780 C   0  0  0  0  0  0
    3.0880    6.0610  -22.6880 C   0  0  0  0  0  0
    3.5580    3.9560  -23.3500 C   0  0  0  0  0  0
    1.6750    2.6490  -24.4440 C   0  0  0  0  0  0
   -0.4590    3.4520  -24.4440 C   0  0  0  0  0  0
    0.0270    4.6680  -23.8050 C   0  0  0  0  0  0
   -1.8900    3.4550  -24.8790 C   0  0  0  0  0  0
    4.1590    1.4580  -23.0490 C   0  0  0  0  0  0
    5.0290    1.0950  -21.8560 C   0  0  2  0  0  0
    6.6420    2.6480  -22.2880 C   0  0  2  0  0  0
    4.9410    2.0840  -20.6820 C   0  0  0  0  0  0
   -2.1360    3.6270  -26.3210 C   0  0  0  0  0  0
   -1.6330    2.8270  -21.9210 C   0  0  0  0  0  0
   -0.6300    2.4790  -21.3620 C   0  0  0  0  0  0
   -0.8380    5.7060  -23.4970 F   0  0  0  0  0  0
   -3.9020    3.0900  -20.5140 F   0  0  0  0  0  0
    1.7770    6.0200  -22.9100 N   0  0  0  0  0  0
    4.0000    5.1050  -22.8670 N   0  0  0  0  0  0
    0.3880    2.5570  -24.8220 N   0  0  0  0  0  0
    4.4900    2.9140  -23.4860 N   0  0  0  0  0  0
    6.4600    1.1730  -22.2590 N   0  0  1  0  0  0
   -3.5640    3.8350  -28.1570 O   0  0  0  0  0  0
   -6.0967    3.6492  -21.6289 H   0  0  0  0  0  0
   -6.4436    3.9917  -24.0384 H   0  0  0  0  0  0
    5.4868    4.0509  -21.0941 H   0  0  0  0  0  0
    6.6982    3.0701  -20.1562 H   0  0  0  0  0  0
    6.4063    2.7978  -24.4268 H   0  0  0  0  0  0
    6.0983    4.3221  -23.5341 H   0  0  0  0  0  0
   -5.5125    4.0836  -26.3534 H   0  0  0  0  0  0
    2.3333    1.8261  -24.6979 H   0  0  0  0  0  0
    3.0990    1.3934  -22.7623 H   0  0  0  0  0  0
    4.3709    0.7698  -23.8805 H   0  0  0  0  0  0
    4.7897    0.0784  -21.5107 H   0  0  0  0  0  0
    7.7101    2.9105  -22.2729 H   0  0  0  0  0  0
    3.9545    2.5707  -20.6881 H   0  0  0  0  0  0
    5.1922    1.5624  -19.7467 H   0  0  0  0  0  0
   -1.3247    3.6190  -27.0399 H   0  0  0  0  0  0
    0.2524    2.1719  -20.8698 H   0  0  0  0  0  0
    7.0704    0.6716  -21.5225 H   0  0  0  0  0  0
   -2.6961    3.7548  -28.5350 H   0  0  0  0  0  0
    5.7020    8.8870  -22.0050 N   0  3  0  0  0  0
    5.6010    9.3360  -20.5990 C   0  0  0  0  0  0
    6.9840    8.9280  -21.2650 C   0  0  0  0  0  0
    3.6130    7.3980  -22.1760 C   0  0  0  0  0  0
    5.5520    9.9520  -23.0670 C   0  0  0  0  0  0
    5.1510    7.5100  -22.2880 C   0  0  0  0  0  0
    6.4460    9.6940  -24.2960 C   0  0  0  0  0  0
    5.3551    8.3655  -20.1432 H   0  0  0  0  0  0
    5.6560   10.4201  -20.7770 H   0  0  0  0  0  0
    7.3091    9.9324  -21.5741 H   0  0  0  0  0  0
    7.0080    7.8773  -20.9401 H   0  0  0  0  0  0
    3.1447    8.2165  -22.7424 H   0  0  0  0  0  0
    3.3121    7.5310  -21.1263 H   0  0  0  0  0  0
    5.7979   10.9338  -22.6361 H   0  0  0  0  0  0
    4.5001   10.0060  -23.3843 H   0  0  0  0  0  0
    5.6187    6.7834  -21.6074 H   0  0  0  0  0  0
    5.4672    7.1898  -23.2917 H   0  0  0  0  0  0
    6.2969   10.4965  -25.0334 H   0  0  0  0  0  0
    7.5009    9.6730  -23.9850 H   0  0  0  0  0  0
    6.1790    8.7269  -24.7470 H   0  0  0  0  0  0
  1  2  2  0  0  0
  1  3  1  0  0  0
  1 34  1  0  0  0
  2  6  1  0  0  0
  2 35  1  0  0  0
  3  5  2  0  0  0
  3 27  1  0  0  0
  4  5  1  0  0  0
  4  6  2  0  0  0
  4 18  1  0  0  0
  5 24  1  0  0  0
  6 10  1  0  0  0
  7 10  2  0  0  0
  7 23  1  0  0  0
  7 33  1  0  0  0
  8 21  1  0  0  0
  8 22  1  0  0  0
  8 36  1  0  0  0
  8 37  1  0  0  0
  9 21  1  0  0  0
  9 31  1  0  0  0
  9 38  1  0  0  0
  9 39  1  0  0  0
 10 40  1  0  0  0
 11 12  1  0  0  0
 11 14  2  0  0  0
 11 15  1  0  0  0
 12 17  1  0  0  0
 12 28  2  0  0  0
 13 28  1  0  0  0
 13 29  2  0  0  0
 13 55  1  0  0  0
 14 29  1  0  0  0
 14 31  1  0  0  0
 15 30  2  0  0  0
 15 41  1  0  0  0
 16 17  2  0  0  0
 16 18  1  0  0  0
 16 30  1  0  0  0
 17 26  1  0  0  0
 18 23  2  0  0  0
 19 20  1  0  0  0
 19 31  1  0  0  0
 19 42  1  0  0  0
 19 43  1  0  0  0
 20 22  1  0  0  0
 20 32  1  0  0  0
 20 44  1  0  0  0
 21 32  1  0  0  0
 21 45  1  0  0  0
 22 46  1  0  0  0
 22 47  1  0  0  0
 23 48  1  0  0  0
 24 25  3  0  0  0
 25 49  1  0  0  0
 32 50  1  0  0  0
 33 51  1  0  0  0
 52 53  1  0  0  0
 52 54  1  0  0  0
 52 56  1  0  0  0
 52 57  1  0  0  0
 53 54  1  0  0  0
 53 59  1  0  0  0
 53 60  1  0  0  0
 54 61  1  0  0  0
 54 62  1  0  0  0
 55 57  1  0  0  0
 55 63  1  0  0  0
 55 64  1  0  0  0
 56 58  1  0  0  0
 56 65  1  0  0  0
 56 66  1  0  0  0
 57 67  1  0  0  0
 57 68  1  0  0  0
 58 69  1  0  0  0
 58 70  1  0  0  0
 58 71  1  0  0  0
M  CHG  1  52   1
M  END
> <s_m_entry_id>
129

> <s_m_entry_name>
000000129.1

> <s_m_Source_Path>
/Users/zaksoul/Documents/2

> <s_m_Source_File>
000000129.mol2

> <i_m_Source_File_Index>
1

$$$$
No_0_140
                    3D
 Schrodinger Suite 2022-4.
 71 77  0  0  1  0            999 V2000
   -5.3800    3.3180  -21.8950 C   0  0  0  0  0  0
   -5.6270    3.5430  -23.2290 C   0  0  0  0  0  0
   -4.1420    3.0830  -21.5400 C   0  0  0  0  0  0
   -3.2160    3.3000  -23.6840 C   0  0  0  0  0  0
   -3.0750    3.0130  -22.2690 C   0  0  0  0  0  0
   -4.5600    3.5480  -24.2210 C   0  0  0  0  0  0
   -3.7670    3.6580  -26.4030 C   0  0  0  0  0  0
    5.8820    2.9830  -20.9840 C   0  0  0  0  0  0
    5.7860    3.2040  -23.5300 C   0  0  0  0  0  0
   -4.7900    3.7120  -25.5560 C   0  0  0  0  0  0
    1.9900    3.6630  -23.6000 C   0  0  0  0  0  0
    1.1370    4.7420  -23.2810 C   0  0  0  0  0  0
    2.8940    5.9570  -22.5300 C   0  0  0  0  0  0
    3.3790    3.8770  -23.2550 C   0  0  0  0  0  0
    1.4820    2.5560  -24.3060 C   0  0  0  0  0  0
   -0.6660    3.3150  -24.2090 C   0  0  0  0  0  0
   -0.1790    4.5270  -23.5620 C   0  0  0  0  0  0
   -2.1120    3.2980  -24.5900 C   0  0  0  0  0  0
    4.0400    1.3860  -23.0320 C   0  0  0  0  0  0
    4.9610    1.0150  -21.8800 C   0  0  2  0  0  0
    6.5260    2.6090  -22.3380 C   0  0  2  0  0  0
    4.8980    1.9770  -20.6820 C   0  0  0  0  0  0
   -2.4160    3.4960  -26.0180 C   0  0  0  0  0  0
   -1.7320    2.6130  -21.6590 C   0  0  0  0  0  0
   -0.7020    2.2730  -21.1460 C   0  0  0  0  0  0
   -1.0520    5.5400  -23.2000 F   0  0  0  0  0  0
   -3.9510    2.8000  -20.1630 F   0  0  0  0  0  0
    1.5770    5.8940  -22.7030 N   0  0  0  0  0  0
    3.8170    5.0230  -22.7640 N   0  0  0  0  0  0
    0.1840    2.4450  -24.6390 N   0  0  0  0  0  0
    4.3250    2.8570  -23.4480 N   0  0  0  0  0  0
    6.3740    1.1310  -22.3340 N   0  0  1  0  0  0
   -3.9150    3.7140  -27.7940 O   0  0  0  0  0  0
   -6.1963    3.3381  -21.1821 H   0  0  0  0  0  0
   -6.6400    3.7247  -23.5693 H   0  0  0  0  0  0
    5.3892    3.9626  -21.0708 H   0  0  0  0  0  0
    6.6542    2.9860  -20.2007 H   0  0  0  0  0  0
    6.2071    2.7991  -24.4620 H   0  0  0  0  0  0
    5.9030    4.2977  -23.5250 H   0  0  0  0  0  0
   -5.7984    3.8846  -25.9142 H   0  0  0  0  0  0
    2.1462    1.7524  -24.6030 H   0  0  0  0  0  0
    2.9929    1.2932  -22.7082 H   0  0  0  0  0  0
    4.2338    0.7189  -23.8849 H   0  0  0  0  0  0
    4.7551   -0.0136  -21.5489 H   0  0  0  0  0  0
    7.5887    2.8926  -22.3562 H   0  0  0  0  0  0
    3.9026    2.4434  -20.6406 H   0  0  0  0  0  0
    5.1948    1.4410  -19.7684 H   0  0  0  0  0  0
   -1.6323    3.5191  -26.7666 H   0  0  0  0  0  0
    0.2042    1.9739  -20.6939 H   0  0  0  0  0  0
    7.0209    0.6252  -21.6325 H   0  0  0  0  0  0
   -3.0610    3.6596  -28.2066 H   0  0  0  0  0  0
    5.3240    9.0020  -22.1970 N   0  3  0  0  0  0
    5.5630    9.3000  -20.7670 C   0  0  0  0  0  0
    6.7470    9.1280  -21.8120 C   0  0  0  0  0  0
    3.4120    7.2930  -22.0080 C   0  0  0  0  0  0
    4.7970   10.1370  -23.0440 C   0  0  0  0  0  0
    4.8460    7.6010  -22.4960 C   0  0  0  0  0  0
    5.3470   10.1070  -24.4830 C   0  0  0  0  0  0
    5.5390    8.2676  -20.3882 H   0  0  0  0  0  0
    5.4689   10.3948  -20.8180 H   0  0  0  0  0  0
    6.8840   10.1892  -22.0671 H   0  0  0  0  0  0
    6.9549    8.0623  -21.6360 H   0  0  0  0  0  0
    2.7361    8.0989  -22.3300 H   0  0  0  0  0  0
    3.3930    7.2890  -20.9082 H   0  0  0  0  0  0
    5.0571   11.0963  -22.5728 H   0  0  0  0  0  0
    3.6982   10.0930  -23.0720 H   0  0  0  0  0  0
    5.5454    6.8756  -22.0548 H   0  0  0  0  0  0
    4.9090    7.4180  -23.5788 H   0  0  0  0  0  0
    4.9331   10.9519  -25.0529 H   0  0  0  0  0  0
    6.4440   10.1850  -24.4590 H   0  0  0  0  0  0
    5.0590    9.1621  -24.9670 H   0  0  0  0  0  0
  1  2  2  0  0  0
  1  3  1  0  0  0
  1 34  1  0  0  0
  2  6  1  0  0  0
  2 35  1  0  0  0
  3  5  2  0  0  0
  3 27  1  0  0  0
  4  5  1  0  0  0
  4  6  2  0  0  0
  4 18  1  0  0  0
  5 24  1  0  0  0
  6 10  1  0  0  0
  7 10  2  0  0  0
  7 23  1  0  0  0
  7 33  1  0  0  0
  8 21  1  0  0  0
  8 22  1  0  0  0
  8 36  1  0  0  0
  8 37  1  0  0  0
  9 21  1  0  0  0
  9 31  1  0  0  0
  9 38  1  0  0  0
  9 39  1  0  0  0
 10 40  1  0  0  0
 11 12  1  0  0  0
 11 14  2  0  0  0
 11 15  1  0  0  0
 12 17  1  0  0  0
 12 28  2  0  0  0
 13 28  1  0  0  0
 13 29  2  0  0  0
 13 55  1  0  0  0
 14 29  1  0  0  0
 14 31  1  0  0  0
 15 30  2  0  0  0
 15 41  1  0  0  0
 16 17  2  0  0  0
 16 18  1  0  0  0
 16 30  1  0  0  0
 17 26  1  0  0  0
 18 23  2  0  0  0
 19 20  1  0  0  0
 19 31  1  0  0  0
 19 42  1  0  0  0
 19 43  1  0  0  0
 20 22  1  0  0  0
 20 32  1  0  0  0
 20 44  1  0  0  0
 21 32  1  0  0  0
 21 45  1  0  0  0
 22 46  1  0  0  0
 22 47  1  0  0  0
 23 48  1  0  0  0
 24 25  3  0  0  0
 25 49  1  0  0  0
 32 50  1  0  0  0
 33 51  1  0  0  0
 52 53  1  0  0  0
 52 54  1  0  0  0
 52 56  1  0  0  0
 52 57  1  0  0  0
 53 54  1  0  0  0
 53 59  1  0  0  0
 53 60  1  0  0  0
 54 61  1  0  0  0
 54 62  1  0  0  0
 55 57  1  0  0  0
 55 63  1  0  0  0
 55 64  1  0  0  0
 56 58  1  0  0  0
 56 65  1  0  0  0
 56 66  1  0  0  0
 57 67  1  0  0  0
 57 68  1  0  0  0
 58 69  1  0  0  0
 58 70  1  0  0  0
 58 71  1  0  0  0
M  CHG  1  52   1
M  END
> <s_m_entry_id>
130

> <s_m_entry_name>
000000130.1

> <s_m_Source_Path>
/Users/zaksoul/Documents/2

> <s_m_Source_File>
000000130.mol2

> <i_m_Source_File_Index>
1

$$$$
No_0_141
                    3D
 Schrodinger Suite 2022-4.
 71 77  0  0  1  0            999 V2000
   -5.3330    3.3650  -21.8680 C   0  0  0  0  0  0
   -5.5720    3.5840  -23.2050 C   0  0  0  0  0  0
   -4.0940    3.1540  -21.5020 C   0  0  0  0  0  0
   -3.1530    3.3840  -23.6370 C   0  0  0  0  0  0
   -3.0190    3.1030  -22.2210 C   0  0  0  0  0  0
   -4.4970    3.6060  -24.1870 C   0  0  0  0  0  0
   -3.6860    3.7270  -26.3620 C   0  0  0  0  0  0
    5.9250    3.2380  -20.8570 C   0  0  0  0  0  0
    5.8470    3.4530  -23.4040 C   0  0  0  0  0  0
   -4.7180    3.7640  -25.5240 C   0  0  0  0  0  0
    2.0440    3.8420  -23.5090 C   0  0  0  0  0  0
    1.1690    4.9060  -23.1990 C   0  0  0  0  0  0
    2.8960    6.1540  -22.4350 C   0  0  0  0  0  0
    3.4260    4.0820  -23.1520 C   0  0  0  0  0  0
    1.5630    2.7240  -24.2170 C   0  0  0  0  0  0
   -0.5990    3.4440  -24.1410 C   0  0  0  0  0  0
   -0.1400    4.6660  -23.4920 C   0  0  0  0  0  0
   -2.0410    3.4010  -24.5340 C   0  0  0  0  0  0
    4.1300    1.6040  -22.9180 C   0  0  0  0  0  0
    5.0480    1.2520  -21.7570 C   0  0  2  0  0  0
    6.5870    2.8740  -22.2040 C   0  0  2  0  0  0
    4.9570    2.2150  -20.5620 C   0  0  0  0  0  0
   -2.3360    3.5900  -25.9650 C   0  0  0  0  0  0
   -1.6750    2.7280  -21.5980 C   0  0  0  0  0  0
   -0.6430    2.4080  -21.0750 C   0  0  0  0  0  0
   -1.0350    5.6640  -23.1390 F   0  0  0  0  0  0
   -3.9100    2.8780  -20.1220 F   0  0  0  0  0  0
    1.5820    6.0670  -22.6210 N   0  0  0  0  0  0
    3.8380    5.2370  -22.6590 N   0  0  0  0  0  0
    0.2700    2.5900  -24.5610 N   0  0  0  0  0  0
    4.3930    3.0790  -23.3350 N   0  0  0  0  0  0
    6.4620    1.3920  -22.1990 N   0  0  1  0  0  0
   -3.8230    3.7770  -27.7550 O   0  0  0  0  0  0
   -6.1555    3.3730  -21.1620 H   0  0  0  0  0  0
   -6.5852    3.7467  -23.5544 H   0  0  0  0  0  0
    5.4152    4.2082  -20.9509 H   0  0  0  0  0  0
    6.6900    3.2572  -20.0668 H   0  0  0  0  0  0
    6.2838    3.0535  -24.3311 H   0  0  0  0  0  0
    5.9439    4.5487  -23.4010 H   0  0  0  0  0  0
   -5.7261    3.9165  -25.8921 H   0  0  0  0  0  0
    2.2445    1.9321  -24.5061 H   0  0  0  0  0  0
    3.0821    1.4931  -22.6023 H   0  0  0  0  0  0
    4.3430    0.9389  -23.7678 H   0  0  0  0  0  0
    4.8573    0.2208  -21.4250 H   0  0  0  0  0  0
    7.6445    3.1767  -22.2141 H   0  0  0  0  0  0
    3.9529    2.6631  -20.5307 H   0  0  0  0  0  0
    5.2547    1.6861  -19.6446 H   0  0  0  0  0  0
   -1.5467    3.6261  -26.7071 H   0  0  0  0  0  0
    0.2646    2.1258  -20.6147 H   0  0  0  0  0  0
    7.1119    0.9003  -21.4903 H   0  0  0  0  0  0
   -2.9646    3.7374  -28.1600 H   0  0  0  0  0  0
    5.0320    9.4290  -22.3420 N   0  3  0  0  0  0
    5.5540    9.6480  -20.9760 C   0  0  0  0  0  0
    6.4860    9.6900  -22.2610 C   0  0  0  0  0  0
    3.3860    7.5000  -21.9120 C   0  0  0  0  0  0
    4.2210   10.5520  -22.9440 C   0  0  0  0  0  0
    4.6370    8.0070  -22.6650 C   0  0  0  0  0  0
    4.4360   10.6900  -24.4640 C   0  0  0  0  0  0
    5.7170    8.5958  -20.6999 H   0  0  0  0  0  0
    5.3451   10.7253  -20.9000 H   0  0  0  0  0  0
    6.4590   10.7755  -22.4371 H   0  0  0  0  0  0
    6.8311    8.6458  -22.2370 H   0  0  0  0  0  0
    2.5800    8.2430  -22.0030 H   0  0  0  0  0  0
    3.6142    7.4149  -20.8393 H   0  0  0  0  0  0
    4.4860   11.4990  -22.4510 H   0  0  0  0  0  0
    3.1533   10.3839  -22.7399 H   0  0  0  0  0  0
    5.4837    7.3372  -22.4541 H   0  0  0  0  0  0
    4.4739    7.9109  -23.7486 H   0  0  0  0  0  0
    3.8242   11.5197  -24.8479 H   0  0  0  0  0  0
    5.4977   10.8929  -24.6679 H   0  0  0  0  0  0
    4.1401    9.7553  -24.9628 H   0  0  0  0  0  0
  1  2  2  0  0  0
  1  3  1  0  0  0
  1 34  1  0  0  0
  2  6  1  0  0  0
  2 35  1  0  0  0
  3  5  2  0  0  0
  3 27  1  0  0  0
  4  5  1  0  0  0
  4  6  2  0  0  0
  4 18  1  0  0  0
  5 24  1  0  0  0
  6 10  1  0  0  0
  7 10  2  0  0  0
  7 23  1  0  0  0
  7 33  1  0  0  0
  8 21  1  0  0  0
  8 22  1  0  0  0
  8 36  1  0  0  0
  8 37  1  0  0  0
  9 21  1  0  0  0
  9 31  1  0  0  0
  9 38  1  0  0  0
  9 39  1  0  0  0
 10 40  1  0  0  0
 11 12  1  0  0  0
 11 14  2  0  0  0
 11 15  1  0  0  0
 12 17  1  0  0  0
 12 28  2  0  0  0
 13 28  1  0  0  0
 13 29  2  0  0  0
 13 55  1  0  0  0
 14 29  1  0  0  0
 14 31  1  0  0  0
 15 30  2  0  0  0
 15 41  1  0  0  0
 16 17  2  0  0  0
 16 18  1  0  0  0
 16 30  1  0  0  0
 17 26  1  0  0  0
 18 23  2  0  0  0
 19 20  1  0  0  0
 19 31  1  0  0  0
 19 42  1  0  0  0
 19 43  1  0  0  0
 20 22  1  0  0  0
 20 32  1  0  0  0
 20 44  1  0  0  0
 21 32  1  0  0  0
 21 45  1  0  0  0
 22 46  1  0  0  0
 22 47  1  0  0  0
 23 48  1  0  0  0
 24 25  3  0  0  0
 25 49  1  0  0  0
 32 50  1  0  0  0
 33 51  1  0  0  0
 52 53  1  0  0  0
 52 54  1  0  0  0
 52 56  1  0  0  0
 52 57  1  0  0  0
 53 54  1  0  0  0
 53 59  1  0  0  0
 53 60  1  0  0  0
 54 61  1  0  0  0
 54 62  1  0  0  0
 55 57  1  0  0  0
 55 63  1  0  0  0
 55 64  1  0  0  0
 56 58  1  0  0  0
 56 65  1  0  0  0
 56 66  1  0  0  0
 57 67  1  0  0  0
 57 68  1  0  0  0
 58 69  1  0  0  0
 58 70  1  0  0  0
 58 71  1  0  0  0
M  CHG  1  52   1
M  END
> <s_m_entry_id>
131

> <s_m_entry_name>
000000131.1

> <s_m_Source_Path>
/Users/zaksoul/Documents/2

> <s_m_Source_File>
000000131.mol2

> <i_m_Source_File_Index>
1

$$$$
No_0_142
                    3D
 Schrodinger Suite 2022-4.
 66 72  0  0  1  0            999 V2000
   -5.3430    3.3870  -21.9110 C   0  0  0  0  0  0
   -5.6490    3.5440  -23.2420 C   0  0  0  0  0  0
   -4.0880    3.1830  -21.5980 C   0  0  0  0  0  0
   -3.2560    3.3060  -23.7870 C   0  0  0  0  0  0
   -3.0510    3.0910  -22.3670 C   0  0  0  0  0  0
   -4.6250    3.5130  -24.2770 C   0  0  0  0  0  0
   -3.9260    3.5260  -26.4940 C   0  0  0  0  0  0
    5.9510    3.2220  -21.4680 C   0  0  0  0  0  0
    5.7440    3.3180  -24.0150 C   0  0  0  0  0  0
   -4.9140    3.6100  -25.6080 C   0  0  0  0  0  0
    1.9430    3.7310  -23.9440 C   0  0  0  0  0  0
    1.0910    4.8150  -23.6410 C   0  0  0  0  0  0
    2.8610    6.0840  -23.0250 C   0  0  0  0  0  0
    3.3430    3.9770  -23.6690 C   0  0  0  0  0  0
    1.4210    2.5850  -24.5740 C   0  0  0  0  0  0
   -0.7310    3.3240  -24.4220 C   0  0  0  0  0  0
   -0.2330    4.5720  -23.8550 C   0  0  0  0  0  0
   -2.1910    3.2730  -24.7390 C   0  0  0  0  0  0
    4.0450    1.5070  -23.3560 C   0  0  0  0  0  0
    5.0190    1.2030  -22.2280 C   0  0  2  0  0  0
    6.5420    2.7900  -22.8280 C   0  0  2  0  0  0
    4.9940    2.2210  -21.0760 C   0  0  0  0  0  0
   -2.5580    3.3980  -26.1600 C   0  0  0  0  0  0
   -1.6790    2.7350  -21.7970 C   0  0  0  0  0  0
   -0.6240    2.4320  -21.3130 C   0  0  0  0  0  0
   -1.1030    5.5920  -23.5050 F   0  0  0  0  0  0
   -3.8350    2.9700  -20.2180 F   0  0  0  0  0  0
    1.5390    5.9980  -23.1390 N   0  0  0  0  0  0
    3.7860    5.1500  -23.2530 N   0  0  0  0  0  0
    0.1110    2.4440  -24.8450 N   0  0  0  0  0  0
    4.2940    2.9590  -23.8540 N   0  0  0  0  0  0
    6.4100    1.3120  -22.7470 N   0  0  1  0  0  0
   -4.1340    3.5130  -27.8790 O   0  0  0  0  0  0
   -6.1281    3.4332  -21.1650 H   0  0  0  0  0  0
   -6.6776    3.6985  -23.5471 H   0  0  0  0  0  0
    5.4431    4.1913  -21.5801 H   0  0  0  0  0  0
    6.7553    3.2725  -20.7192 H   0  0  0  0  0  0
    6.1315    2.8730  -24.9433 H   0  0  0  0  0  0
    5.8469    4.4119  -24.0675 H   0  0  0  0  0  0
   -5.9387    3.7535  -25.9312 H   0  0  0  0  0  0
    2.0823    1.7751  -24.8600 H   0  0  0  0  0  0
    3.0140    1.4192  -22.9827 H   0  0  0  0  0  0
    4.2115    0.8016  -24.1835 H   0  0  0  0  0  0
    4.8404    0.1899  -21.8385 H   0  0  0  0  0  0
    7.5989    3.0848  -22.9057 H   0  0  0  0  0  0
    3.9949    2.6771  -21.0144 H   0  0  0  0  0  0
    5.3360    1.7338  -20.1510 H   0  0  0  0  0  0
   -1.8077    3.3930  -26.9424 H   0  0  0  0  0  0
    0.3044    2.1652  -20.8863 H   0  0  0  0  0  0
    7.0924    0.8489  -22.0497 H   0  0  0  0  0  0
   -3.2973    3.4477  -28.3241 H   0  0  0  0  0  0
    4.3750    8.7000  -20.6740 N   0  3  0  0  0  0
    5.8120   10.2720  -20.1560 N   0  0  0  0  0  0
    3.7650    7.4590  -21.1000 C   0  0  0  0  0  0
    5.8240    8.9090  -20.7380 C   0  0  0  0  0  0
    3.6850    9.7150  -20.1880 C   0  0  0  0  0  0
    4.6540   10.7200  -19.8560 C   0  0  0  0  0  0
    3.3840    7.4500  -22.5910 C   0  0  0  0  0  0
    2.8687    7.2639  -20.4928 H   0  0  0  0  0  0
    4.4526    6.6255  -20.8941 H   0  0  0  0  0  0
    6.1219    8.9800  -21.7945 H   0  0  0  0  0  0
    6.3101    8.2269  -20.0249 H   0  0  0  0  0  0
    2.6002    9.6510  -20.1170 H   0  0  0  0  0  0
    4.5490   11.7150  -19.4260 H   0  0  0  0  0  0
    4.2640    7.7140  -23.1960 H   0  0  0  0  0  0
    2.6128    8.2122  -22.7761 H   0  0  0  0  0  0
  1  2  2  0  0  0
  1  3  1  0  0  0
  1 34  1  0  0  0
  2  6  1  0  0  0
  2 35  1  0  0  0
  3  5  2  0  0  0
  3 27  1  0  0  0
  4  5  1  0  0  0
  4  6  2  0  0  0
  4 18  1  0  0  0
  5 24  1  0  0  0
  6 10  1  0  0  0
  7 10  2  0  0  0
  7 23  1  0  0  0
  7 33  1  0  0  0
  8 21  1  0  0  0
  8 22  1  0  0  0
  8 36  1  0  0  0
  8 37  1  0  0  0
  9 21  1  0  0  0
  9 31  1  0  0  0
  9 38  1  0  0  0
  9 39  1  0  0  0
 10 40  1  0  0  0
 11 12  1  0  0  0
 11 14  2  0  0  0
 11 15  1  0  0  0
 12 17  1  0  0  0
 12 28  2  0  0  0
 13 28  1  0  0  0
 13 29  2  0  0  0
 13 58  1  0  0  0
 14 29  1  0  0  0
 14 31  1  0  0  0
 15 30  2  0  0  0
 15 41  1  0  0  0
 16 17  2  0  0  0
 16 18  1  0  0  0
 16 30  1  0  0  0
 17 26  1  0  0  0
 18 23  2  0  0  0
 19 20  1  0  0  0
 19 31  1  0  0  0
 19 42  1  0  0  0
 19 43  1  0  0  0
 20 22  1  0  0  0
 20 32  1  0  0  0
 20 44  1  0  0  0
 21 32  1  0  0  0
 21 45  1  0  0  0
 22 46  1  0  0  0
 22 47  1  0  0  0
 23 48  1  0  0  0
 24 25  3  0  0  0
 25 49  1  0  0  0
 32 50  1  0  0  0
 33 51  1  0  0  0
 52 54  1  0  0  0
 52 55  1  0  0  0
 52 56  2  0  0  0
 53 55  1  0  0  0
 53 57  2  0  0  0
 54 58  1  0  0  0
 54 59  1  0  0  0
 54 60  1  0  0  0
 55 61  1  0  0  0
 55 62  1  0  0  0
 56 57  1  0  0  0
 56 63  1  0  0  0
 57 64  1  0  0  0
 58 65  1  0  0  0
 58 66  1  0  0  0
M  CHG  1  52   1
M  END
> <s_m_entry_id>
132

> <s_m_entry_name>
000000132.1

> <s_m_Source_Path>
/Users/zaksoul/Documents/2

> <s_m_Source_File>
000000132.mol2

> <i_m_Source_File_Index>
1

$$$$
No_0_143
                    3D
 Schrodinger Suite 2022-4.
 66 72  0  0  1  0            999 V2000
   -5.2640    3.5260  -22.0100 C   0  0  0  0  0  0
   -5.5240    3.6560  -23.3540 C   0  0  0  0  0  0
   -4.0230    3.3120  -21.6510 C   0  0  0  0  0  0
   -3.1190    3.3700  -23.8150 C   0  0  0  0  0  0
   -2.9630    3.1860  -22.3840 C   0  0  0  0  0  0
   -4.4680    3.5840  -24.3540 C   0  0  0  0  0  0
   -3.6970    3.5340  -26.5470 C   0  0  0  0  0  0
    6.0060    3.2090  -21.1940 C   0  0  0  0  0  0
    5.8830    3.2470  -23.7480 C   0  0  0  0  0  0
   -4.7120    3.6530  -25.6950 C   0  0  0  0  0  0
    2.0890    3.7160  -23.8110 C   0  0  0  0  0  0
    1.2430    4.8190  -23.5620 C   0  0  0  0  0  0
    3.0120    6.0770  -22.9190 C   0  0  0  0  0  0
    3.4830    3.9480  -23.4970 C   0  0  0  0  0  0
    1.5700    2.5630  -24.4310 C   0  0  0  0  0  0
   -0.5740    3.3360  -24.3660 C   0  0  0  0  0  0
   -0.0770    4.5900  -23.8130 C   0  0  0  0  0  0
   -2.0240    3.2980  -24.7300 C   0  0  0  0  0  0
    4.1360    1.4770  -23.1020 C   0  0  0  0  0  0
    5.0690    1.1860  -21.9360 C   0  0  2  0  0  0
    6.6340    2.7360  -22.5230 C   0  0  2  0  0  0
    5.0220    2.2320  -20.8100 C   0  0  0  0  0  0
   -2.3430    3.3940  -26.1650 C   0  0  0  0  0  0
   -1.6150    2.8240  -21.7610 C   0  0  0  0  0  0
   -0.5820    2.5180  -21.2350 C   0  0  0  0  0  0
   -0.9420    5.6300  -23.5160 F   0  0  0  0  0  0
   -3.8180    3.1290  -20.2590 F   0  0  0  0  0  0
    1.6930    6.0080  -23.0740 N   0  0  0  0  0  0
    3.9290    5.1250  -23.0950 N   0  0  0  0  0  0
    0.2680    2.4340  -24.7410 N   0  0  0  0  0  0
    4.4230    2.9130  -23.6260 N   0  0  0  0  0  0
    6.4770    1.2630  -22.4110 N   0  0  1  0  0  0
   -3.8600    3.4900  -27.9370 O   0  0  0  0  0  0
   -6.0720    3.6013  -21.2913 H   0  0  0  0  0  0
   -6.5399    3.8166  -23.6963 H   0  0  0  0  0  0
    5.5164    4.1822  -21.3464 H   0  0  0  0  0  0
    6.7868    3.2665  -20.4213 H   0  0  0  0  0  0
    6.2938    2.7746  -24.6525 H   0  0  0  0  0  0
    6.0051    4.3376  -23.8237 H   0  0  0  0  0  0
   -5.7231    3.8036  -26.0555 H   0  0  0  0  0  0
    2.2277    1.7366  -24.6750 H   0  0  0  0  0  0
    3.0922    1.4124  -22.7608 H   0  0  0  0  0  0
    4.3187    0.7493  -23.9064 H   0  0  0  0  0  0
    4.8622    0.1854  -21.5285 H   0  0  0  0  0  0
    7.6972    3.0134  -22.5734 H   0  0  0  0  0  0
    4.0288    2.7044  -20.7918 H   0  0  0  0  0  0
    5.3257    1.7628  -19.8626 H   0  0  0  0  0  0
   -1.5674    3.3599  -26.9215 H   0  0  0  0  0  0
    0.3281    2.2490  -20.7719 H   0  0  0  0  0  0
    7.1295    0.8063  -21.6815 H   0  0  0  0  0  0
   -3.0108    3.4019  -28.3537 H   0  0  0  0  0  0
    5.1940    8.5890  -21.0240 N   0  3  0  0  0  0
    6.5430   10.3130  -20.9020 N   0  0  0  0  0  0
    4.5800    7.3260  -21.3710 C   0  0  0  0  0  0
    6.4110    9.0630  -21.6880 C   0  0  0  0  0  0
    4.7200    9.3900  -20.0880 C   0  0  0  0  0  0
    5.6270   10.5010  -20.0310 C   0  0  0  0  0  0
    3.5410    7.4450  -22.5010 C   0  0  0  0  0  0
    4.1018    6.8938  -20.4796 H   0  0  0  0  0  0
    5.3607    6.6102  -21.6679 H   0  0  0  0  0  0
    6.1649    9.3261  -22.7273 H   0  0  0  0  0  0
    7.2409    8.3921  -21.4210 H   0  0  0  0  0  0
    3.8103    9.1231  -19.5522 H   0  0  0  0  0  0
    5.6410   11.3949  -19.4091 H   0  0  0  0  0  0
    3.9992    7.9412  -23.3693 H   0  0  0  0  0  0
    2.7042    8.0739  -22.1631 H   0  0  0  0  0  0
  1  2  2  0  0  0
  1  3  1  0  0  0
  1 34  1  0  0  0
  2  6  1  0  0  0
  2 35  1  0  0  0
  3  5  2  0  0  0
  3 27  1  0  0  0
  4  5  1  0  0  0
  4  6  2  0  0  0
  4 18  1  0  0  0
  5 24  1  0  0  0
  6 10  1  0  0  0
  7 10  2  0  0  0
  7 23  1  0  0  0
  7 33  1  0  0  0
  8 21  1  0  0  0
  8 22  1  0  0  0
  8 36  1  0  0  0
  8 37  1  0  0  0
  9 21  1  0  0  0
  9 31  1  0  0  0
  9 38  1  0  0  0
  9 39  1  0  0  0
 10 40  1  0  0  0
 11 12  1  0  0  0
 11 14  2  0  0  0
 11 15  1  0  0  0
 12 17  1  0  0  0
 12 28  2  0  0  0
 13 28  1  0  0  0
 13 29  2  0  0  0
 13 58  1  0  0  0
 14 29  1  0  0  0
 14 31  1  0  0  0
 15 30  2  0  0  0
 15 41  1  0  0  0
 16 17  2  0  0  0
 16 18  1  0  0  0
 16 30  1  0  0  0
 17 26  1  0  0  0
 18 23  2  0  0  0
 19 20  1  0  0  0
 19 31  1  0  0  0
 19 42  1  0  0  0
 19 43  1  0  0  0
 20 22  1  0  0  0
 20 32  1  0  0  0
 20 44  1  0  0  0
 21 32  1  0  0  0
 21 45  1  0  0  0
 22 46  1  0  0  0
 22 47  1  0  0  0
 23 48  1  0  0  0
 24 25  3  0  0  0
 25 49  1  0  0  0
 32 50  1  0  0  0
 33 51  1  0  0  0
 52 54  1  0  0  0
 52 55  1  0  0  0
 52 56  2  0  0  0
 53 55  1  0  0  0
 53 57  2  0  0  0
 54 58  1  0  0  0
 54 59  1  0  0  0
 54 60  1  0  0  0
 55 61  1  0  0  0
 55 62  1  0  0  0
 56 57  1  0  0  0
 56 63  1  0  0  0
 57 64  1  0  0  0
 58 65  1  0  0  0
 58 66  1  0  0  0
M  CHG  1  52   1
M  END
> <s_m_entry_id>
133

> <s_m_entry_name>
000000133.1

> <s_m_Source_Path>
/Users/zaksoul/Documents/2

> <s_m_Source_File>
000000133.mol2

> <i_m_Source_File_Index>
1

$$$$
No_0_144
                    3D
 Schrodinger Suite 2022-4.
 66 72  0  0  1  0            999 V2000
   -5.4950    3.3130  -22.3470 C   0  0  0  0  0  0
   -5.6960    3.4590  -23.6990 C   0  0  0  0  0  0
   -4.2700    3.1030  -21.9360 C   0  0  0  0  0  0
   -3.2710    3.1980  -24.0560 C   0  0  0  0  0  0
   -3.1780    2.9950  -22.6230 C   0  0  0  0  0  0
   -4.5960    3.4100  -24.6520 C   0  0  0  0  0  0
   -3.7280    3.3960  -26.8090 C   0  0  0  0  0  0
    5.7290    3.0700  -21.0320 C   0  0  0  0  0  0
    5.7200    3.1420  -23.5880 C   0  0  0  0  0  0
   -4.7800    3.4950  -26.0020 C   0  0  0  0  0  0
    1.9280    3.5830  -23.8150 C   0  0  0  0  0  0
    1.0640    4.6760  -23.5890 C   0  0  0  0  0  0
    2.7920    5.9390  -22.8500 C   0  0  0  0  0  0
    3.3050    3.8210  -23.4350 C   0  0  0  0  0  0
    1.4470    2.4350  -24.4730 C   0  0  0  0  0  0
   -0.7040    3.1910  -24.4940 C   0  0  0  0  0  0
   -0.2420    4.4410  -23.9020 C   0  0  0  0  0  0
   -2.1360    3.1470  -24.9220 C   0  0  0  0  0  0
    3.9610    1.3500  -23.0450 C   0  0  0  0  0  0
    4.8420    1.0500  -21.8420 C   0  0  2  0  0  0
    6.4200    2.6200  -22.3380 C   0  0  2  0  0  0
    4.7370    2.0800  -20.7050 C   0  0  0  0  0  0
   -2.3910    3.2610  -26.3690 C   0  0  0  0  0  0
   -1.8560    2.6350  -21.9450 C   0  0  0  0  0  0
   -0.8440    2.3300  -21.3770 C   0  0  0  0  0  0
   -1.1280    5.4700  -23.6300 F   0  0  0  0  0  0
   -4.1260    2.9030  -20.5390 F   0  0  0  0  0  0
    1.4820    5.8610  -23.0650 N   0  0  0  0  0  0
    3.7240    4.9960  -22.9980 N   0  0  0  0  0  0
    0.1610    2.3010  -24.8420 N   0  0  0  0  0  0
    4.2590    2.7950  -23.5360 N   0  0  0  0  0  0
    6.2700    1.1440  -22.2540 N   0  0  1  0  0  0
   -3.8290    3.3700  -28.2050 O   0  0  0  0  0  0
   -6.3351    3.3722  -21.6645 H   0  0  0  0  0  0
   -6.6967    3.6176  -24.0844 H   0  0  0  0  0  0
    5.2383    4.0413  -21.1925 H   0  0  0  0  0  0
    6.4735    3.1215  -20.2239 H   0  0  0  0  0  0
    6.1739    2.6850  -24.4797 H   0  0  0  0  0  0
    5.8360    4.2345  -23.6435 H   0  0  0  0  0  0
   -5.7755    3.6435  -26.4044 H   0  0  0  0  0  0
    2.1215    1.6170  -24.6988 H   0  0  0  0  0  0
    2.9037    1.2733  -22.7514 H   0  0  0  0  0  0
    4.1841    0.6351  -23.8507 H   0  0  0  0  0  0
    4.6260    0.0419  -21.4585 H   0  0  0  0  0  0
    7.4822    2.9058  -22.3370 H   0  0  0  0  0  0
    3.7400    2.5442  -20.7262 H   0  0  0  0  0  0
    5.0024    1.5986  -19.7522 H   0  0  0  0  0  0
   -1.5822    3.2429  -27.0905 H   0  0  0  0  0  0
    0.0467    2.0608  -20.8776 H   0  0  0  0  0  0
    6.8928    0.6825  -21.5020 H   0  0  0  0  0  0
   -2.9612    3.2938  -28.5840 H   0  0  0  0  0  0
    5.2730    8.5110  -21.4740 N   0  3  0  0  0  0
    6.3440   10.4230  -21.5250 N   0  0  0  0  0  0
    4.7160    7.2190  -21.8150 C   0  0  0  0  0  0
    6.0340    9.3020  -22.4450 C   0  0  0  0  0  0
    5.1520    9.0570  -20.2790 C   0  0  0  0  0  0
    5.8670   10.3000  -20.3460 C   0  0  0  0  0  0
    3.2900    7.3050  -22.3900 C   0  0  0  0  0  0
    4.7110    6.5758  -20.9227 H   0  0  0  0  0  0
    5.3731    6.7179  -22.5411 H   0  0  0  0  0  0
    5.3434    9.6648  -23.2205 H   0  0  0  0  0  0
    6.9683    8.7698  -22.6771 H   0  0  0  0  0  0
    4.5902    8.5432  -19.5003 H   0  0  0  0  0  0
    6.0430   11.0772  -19.6038 H   0  0  0  0  0  0
    3.2800    8.0031  -23.2401 H   0  0  0  0  0  0
    2.6095    7.7043  -21.6235 H   0  0  0  0  0  0
  1  2  2  0  0  0
  1  3  1  0  0  0
  1 34  1  0  0  0
  2  6  1  0  0  0
  2 35  1  0  0  0
  3  5  2  0  0  0
  3 27  1  0  0  0
  4  5  1  0  0  0
  4  6  2  0  0  0
  4 18  1  0  0  0
  5 24  1  0  0  0
  6 10  1  0  0  0
  7 10  2  0  0  0
  7 23  1  0  0  0
  7 33  1  0  0  0
  8 21  1  0  0  0
  8 22  1  0  0  0
  8 36  1  0  0  0
  8 37  1  0  0  0
  9 21  1  0  0  0
  9 31  1  0  0  0
  9 38  1  0  0  0
  9 39  1  0  0  0
 10 40  1  0  0  0
 11 12  1  0  0  0
 11 14  2  0  0  0
 11 15  1  0  0  0
 12 17  1  0  0  0
 12 28  2  0  0  0
 13 28  1  0  0  0
 13 29  2  0  0  0
 13 58  1  0  0  0
 14 29  1  0  0  0
 14 31  1  0  0  0
 15 30  2  0  0  0
 15 41  1  0  0  0
 16 17  2  0  0  0
 16 18  1  0  0  0
 16 30  1  0  0  0
 17 26  1  0  0  0
 18 23  2  0  0  0
 19 20  1  0  0  0
 19 31  1  0  0  0
 19 42  1  0  0  0
 19 43  1  0  0  0
 20 22  1  0  0  0
 20 32  1  0  0  0
 20 44  1  0  0  0
 21 32  1  0  0  0
 21 45  1  0  0  0
 22 46  1  0  0  0
 22 47  1  0  0  0
 23 48  1  0  0  0
 24 25  3  0  0  0
 25 49  1  0  0  0
 32 50  1  0  0  0
 33 51  1  0  0  0
 52 54  1  0  0  0
 52 55  1  0  0  0
 52 56  2  0  0  0
 53 55  1  0  0  0
 53 57  2  0  0  0
 54 58  1  0  0  0
 54 59  1  0  0  0
 54 60  1  0  0  0
 55 61  1  0  0  0
 55 62  1  0  0  0
 56 57  1  0  0  0
 56 63  1  0  0  0
 57 64  1  0  0  0
 58 65  1  0  0  0
 58 66  1  0  0  0
M  CHG  1  52   1
M  END
> <s_m_entry_id>
134

> <s_m_entry_name>
000000134.1

> <s_m_Source_Path>
/Users/zaksoul/Documents/2

> <s_m_Source_File>
000000134.mol2

> <i_m_Source_File_Index>
1

$$$$
No_0_145
                    3D
 Schrodinger Suite 2022-4.
 66 72  0  0  1  0            999 V2000
   -5.2810    3.4560  -21.9320 C   0  0  0  0  0  0
   -5.5410    3.6030  -23.2740 C   0  0  0  0  0  0
   -4.0400    3.2420  -21.5760 C   0  0  0  0  0  0
   -3.1350    3.3340  -23.7370 C   0  0  0  0  0  0
   -2.9800    3.1310  -22.3100 C   0  0  0  0  0  0
   -4.4840    3.5500  -24.2750 C   0  0  0  0  0  0
   -3.7130    3.5330  -26.4670 C   0  0  0  0  0  0
    5.9900    3.1760  -21.1140 C   0  0  0  0  0  0
    5.8680    3.2480  -23.6670 C   0  0  0  0  0  0
   -4.7280    3.6360  -25.6150 C   0  0  0  0  0  0
    2.0710    3.7020  -23.7260 C   0  0  0  0  0  0
    1.2210    4.7980  -23.4620 C   0  0  0  0  0  0
    2.9840    6.0550  -22.8010 C   0  0  0  0  0  0
    3.4640    3.9360  -23.4080 C   0  0  0  0  0  0
    1.5570    2.5550  -24.3620 C   0  0  0  0  0  0
   -0.5900    3.3180  -24.2880 C   0  0  0  0  0  0
   -0.0980    4.5670  -23.7170 C   0  0  0  0  0  0
   -2.0400    3.2800  -24.6530 C   0  0  0  0  0  0
    4.1280    1.4620  -23.0460 C   0  0  0  0  0  0
    5.0610    1.1590  -21.8840 C   0  0  2  0  0  0
    6.6200    2.7240  -22.4490 C   0  0  2  0  0  0
    5.0090    2.1900  -20.7440 C   0  0  0  0  0  0
   -2.3580    3.3940  -26.0870 C   0  0  0  0  0  0
   -1.6300    2.7660  -21.6910 C   0  0  0  0  0  0
   -0.5950    2.4570  -21.1690 C   0  0  0  0  0  0
   -0.9680    5.5990  -23.4060 F   0  0  0  0  0  0
   -3.8350    3.0410  -20.1860 F   0  0  0  0  0  0
    1.6650    5.9810  -22.9570 N   0  0  0  0  0  0
    3.9050    5.1090  -22.9890 N   0  0  0  0  0  0
    0.2560    2.4260  -24.6740 N   0  0  0  0  0  0
    4.4090    2.9060  -23.5510 N   0  0  0  0  0  0
    6.4690    1.2480  -22.3580 N   0  0  1  0  0  0
   -3.8750    3.5070  -27.8580 O   0  0  0  0  0  0
   -6.0901    3.5182  -21.2133 H   0  0  0  0  0  0
   -6.5575    3.7646  -23.6142 H   0  0  0  0  0  0
    5.4955    4.1488  -21.2523 H   0  0  0  0  0  0
    6.7690    3.2254  -20.3390 H   0  0  0  0  0  0
    6.2801    2.7895  -24.5780 H   0  0  0  0  0  0
    5.9841    4.3402  -23.7276 H   0  0  0  0  0  0
   -5.7398    3.7876  -25.9733 H   0  0  0  0  0  0
    2.2185    1.7349  -24.6170 H   0  0  0  0  0  0
    3.0842    1.3883  -22.7068 H   0  0  0  0  0  0
    4.3136    0.7469  -23.8610 H   0  0  0  0  0  0
    4.8582    0.1520  -21.4905 H   0  0  0  0  0  0
    7.6821    3.0067  -22.4944 H   0  0  0  0  0  0
    4.0136    2.6574  -20.7198 H   0  0  0  0  0  0
    5.3147    1.7078  -19.8038 H   0  0  0  0  0  0
   -1.5822    3.3729  -26.8438 H   0  0  0  0  0  0
    0.3156    2.1848  -20.7087 H   0  0  0  0  0  0
    7.1233    0.7850  -21.6342 H   0  0  0  0  0  0
   -3.0248    3.4288  -28.2747 H   0  0  0  0  0  0
    5.5890    8.7150  -21.9070 N   0  3  0  0  0  0
    6.4860   10.7100  -22.0610 N   0  0  0  0  0  0
    5.0380    7.4110  -22.2070 C   0  0  0  0  0  0
    6.0010    9.6400  -22.9660 C   0  0  0  0  0  0
    5.7720    9.1560  -20.6760 C   0  0  0  0  0  0
    6.3630   10.4570  -20.8150 C   0  0  0  0  0  0
    3.5070    7.4190  -22.3630 C   0  0  0  0  0  0
    5.3211    6.7036  -21.4136 H   0  0  0  0  0  0
    5.4969    7.0241  -23.1288 H   0  0  0  0  0  0
    5.1023   10.0019  -23.4869 H   0  0  0  0  0  0
    6.8643    9.2078  -23.4932 H   0  0  0  0  0  0
    5.4797    8.5395  -19.8272 H   0  0  0  0  0  0
    6.6900   11.1870  -20.0760 H   0  0  0  0  0  0
    3.2182    8.1765  -23.1065 H   0  0  0  0  0  0
    3.0429    7.6991  -21.4058 H   0  0  0  0  0  0
  1  2  2  0  0  0
  1  3  1  0  0  0
  1 34  1  0  0  0
  2  6  1  0  0  0
  2 35  1  0  0  0
  3  5  2  0  0  0
  3 27  1  0  0  0
  4  5  1  0  0  0
  4  6  2  0  0  0
  4 18  1  0  0  0
  5 24  1  0  0  0
  6 10  1  0  0  0
  7 10  2  0  0  0
  7 23  1  0  0  0
  7 33  1  0  0  0
  8 21  1  0  0  0
  8 22  1  0  0  0
  8 36  1  0  0  0
  8 37  1  0  0  0
  9 21  1  0  0  0
  9 31  1  0  0  0
  9 38  1  0  0  0
  9 39  1  0  0  0
 10 40  1  0  0  0
 11 12  1  0  0  0
 11 14  2  0  0  0
 11 15  1  0  0  0
 12 17  1  0  0  0
 12 28  2  0  0  0
 13 28  1  0  0  0
 13 29  2  0  0  0
 13 58  1  0  0  0
 14 29  1  0  0  0
 14 31  1  0  0  0
 15 30  2  0  0  0
 15 41  1  0  0  0
 16 17  2  0  0  0
 16 18  1  0  0  0
 16 30  1  0  0  0
 17 26  1  0  0  0
 18 23  2  0  0  0
 19 20  1  0  0  0
 19 31  1  0  0  0
 19 42  1  0  0  0
 19 43  1  0  0  0
 20 22  1  0  0  0
 20 32  1  0  0  0
 20 44  1  0  0  0
 21 32  1  0  0  0
 21 45  1  0  0  0
 22 46  1  0  0  0
 22 47  1  0  0  0
 23 48  1  0  0  0
 24 25  3  0  0  0
 25 49  1  0  0  0
 32 50  1  0  0  0
 33 51  1  0  0  0
 52 54  1  0  0  0
 52 55  1  0  0  0
 52 56  2  0  0  0
 53 55  1  0  0  0
 53 57  2  0  0  0
 54 58  1  0  0  0
 54 59  1  0  0  0
 54 60  1  0  0  0
 55 61  1  0  0  0
 55 62  1  0  0  0
 56 57  1  0  0  0
 56 63  1  0  0  0
 57 64  1  0  0  0
 58 65  1  0  0  0
 58 66  1  0  0  0
M  CHG  1  52   1
M  END
> <s_m_entry_id>
135

> <s_m_entry_name>
000000135.1

> <s_m_Source_Path>
/Users/zaksoul/Documents/2

> <s_m_Source_File>
000000135.mol2

> <i_m_Source_File_Index>
1

$$$$
No_0_146
                    3D
 Schrodinger Suite 2022-4.
 66 72  0  0  1  0            999 V2000
   -5.4860    3.3390  -21.9280 C   0  0  0  0  0  0
   -5.7210    3.5490  -23.2660 C   0  0  0  0  0  0
   -4.2580    3.0710  -21.5630 C   0  0  0  0  0  0
   -3.3170    3.2230  -23.7060 C   0  0  0  0  0  0
   -3.1900    2.9560  -22.2860 C   0  0  0  0  0  0
   -4.6500    3.5030  -24.2530 C   0  0  0  0  0  0
   -3.8460    3.5510  -26.4340 C   0  0  0  0  0  0
    5.7570    2.6680  -20.9630 C   0  0  0  0  0  0
    5.6770    2.8480  -23.5120 C   0  0  0  0  0  0
   -4.8710    3.6520  -25.5920 C   0  0  0  0  0  0
    1.8970    3.4250  -23.6060 C   0  0  0  0  0  0
    1.0780    4.5350  -23.3090 C   0  0  0  0  0  0
    2.8690    5.7070  -22.5720 C   0  0  0  0  0  0
    3.2920    3.6000  -23.2590 C   0  0  0  0  0  0
    1.3580    2.3210  -24.2960 C   0  0  0  0  0  0
   -0.7650    3.1490  -24.2210 C   0  0  0  0  0  0
   -0.2430    4.3560  -23.5930 C   0  0  0  0  0  0
   -2.2100    3.1710  -24.6080 C   0  0  0  0  0  0
    3.8730    1.0940  -22.9910 C   0  0  0  0  0  0
    4.7780    0.7150  -21.8290 C   0  0  2  0  0  0
    6.3930    2.2510  -22.3070 C   0  0  2  0  0  0
    4.7410    1.6990  -20.6480 C   0  0  0  0  0  0
   -2.5020    3.3540  -26.0400 C   0  0  0  0  0  0
   -1.8620    2.5240  -21.6640 C   0  0  0  0  0  0
   -0.8460    2.1610  -21.1400 C   0  0  0  0  0  0
   -1.0850    5.4020  -23.2520 F   0  0  0  0  0  0
   -4.0800    2.8070  -20.1810 F   0  0  0  0  0  0
    1.5510    5.6820  -22.7500 N   0  0  0  0  0  0
    3.7630    4.7410  -22.7860 N   0  0  0  0  0  0
    0.0580    2.2460  -24.6320 N   0  0  0  0  0  0
    4.2060    2.5480  -23.4310 N   0  0  0  0  0  0
    6.1960    0.7780  -22.2790 N   0  0  1  0  0  0
   -3.9870    3.5880  -27.8260 O   0  0  0  0  0  0
   -6.3032    3.3972  -21.2182 H   0  0  0  0  0  0
   -6.7264    3.7559  -23.6145 H   0  0  0  0  0  0
    5.2958    3.6611  -21.0680 H   0  0  0  0  0  0
    6.5257    2.6609  -20.1762 H   0  0  0  0  0  0
    6.0888    2.4150  -24.4355 H   0  0  0  0  0  0
    5.8283    3.9375  -23.5261 H   0  0  0  0  0  0
   -5.8720    3.8488  -25.9585 H   0  0  0  0  0  0
    1.9975    1.4918  -24.5761 H   0  0  0  0  0  0
    2.8225    1.0405  -22.6691 H   0  0  0  0  0  0
    4.0487    0.4073  -23.8322 H   0  0  0  0  0  0
    4.5380   -0.3005  -21.4811 H   0  0  0  0  0  0
    7.4640    2.5011  -22.3252 H   0  0  0  0  0  0
    3.7603    2.1964  -20.6187 H   0  0  0  0  0  0
    5.0164    1.1694  -19.7240 H   0  0  0  0  0  0
   -1.7153    3.3389  -26.7856 H   0  0  0  0  0  0
    0.0489    1.8420  -20.6790 H   0  0  0  0  0  0
    6.8236    0.2658  -21.5647 H   0  0  0  0  0  0
   -3.1340    3.4989  -28.2347 H   0  0  0  0  0  0
    5.4960    8.4240  -21.9580 N   0  3  0  0  0  0
    6.2310   10.4890  -22.0170 N   0  0  0  0  0  0
    4.9440    7.1340  -22.3120 C   0  0  0  0  0  0
    5.5730    9.5210  -22.9270 C   0  0  0  0  0  0
    5.9760    8.7010  -20.7610 C   0  0  0  0  0  0
    6.4520   10.0540  -20.8370 C   0  0  0  0  0  0
    3.4270    7.0350  -22.0710 C   0  0  0  0  0  0
    5.4569    6.3481  -21.7381 H   0  0  0  0  0  0
    5.1611    6.9219  -23.3693 H   0  0  0  0  0  0
    4.5533    9.8749  -23.1389 H   0  0  0  0  0  0
    6.2850    9.2430  -23.7180 H   0  0  0  0  0  0
    5.9470    7.9484  -19.9744 H   0  0  0  0  0  0
    6.9294   10.6975  -20.0994 H   0  0  0  0  0  0
    2.9190    7.8630  -22.5870 H   0  0  0  0  0  0
    3.2189    7.1370  -20.9957 H   0  0  0  0  0  0
  1  2  2  0  0  0
  1  3  1  0  0  0
  1 34  1  0  0  0
  2  6  1  0  0  0
  2 35  1  0  0  0
  3  5  2  0  0  0
  3 27  1  0  0  0
  4  5  1  0  0  0
  4  6  2  0  0  0
  4 18  1  0  0  0
  5 24  1  0  0  0
  6 10  1  0  0  0
  7 10  2  0  0  0
  7 23  1  0  0  0
  7 33  1  0  0  0
  8 21  1  0  0  0
  8 22  1  0  0  0
  8 36  1  0  0  0
  8 37  1  0  0  0
  9 21  1  0  0  0
  9 31  1  0  0  0
  9 38  1  0  0  0
  9 39  1  0  0  0
 10 40  1  0  0  0
 11 12  1  0  0  0
 11 14  2  0  0  0
 11 15  1  0  0  0
 12 17  1  0  0  0
 12 28  2  0  0  0
 13 28  1  0  0  0
 13 29  2  0  0  0
 13 58  1  0  0  0
 14 29  1  0  0  0
 14 31  1  0  0  0
 15 30  2  0  0  0
 15 41  1  0  0  0
 16 17  2  0  0  0
 16 18  1  0  0  0
 16 30  1  0  0  0
 17 26  1  0  0  0
 18 23  2  0  0  0
 19 20  1  0  0  0
 19 31  1  0  0  0
 19 42  1  0  0  0
 19 43  1  0  0  0
 20 22  1  0  0  0
 20 32  1  0  0  0
 20 44  1  0  0  0
 21 32  1  0  0  0
 21 45  1  0  0  0
 22 46  1  0  0  0
 22 47  1  0  0  0
 23 48  1  0  0  0
 24 25  3  0  0  0
 25 49  1  0  0  0
 32 50  1  0  0  0
 33 51  1  0  0  0
 52 54  1  0  0  0
 52 55  1  0  0  0
 52 56  2  0  0  0
 53 55  1  0  0  0
 53 57  2  0  0  0
 54 58  1  0  0  0
 54 59  1  0  0  0
 54 60  1  0  0  0
 55 61  1  0  0  0
 55 62  1  0  0  0
 56 57  1  0  0  0
 56 63  1  0  0  0
 57 64  1  0  0  0
 58 65  1  0  0  0
 58 66  1  0  0  0
M  CHG  1  52   1
M  END
> <s_m_entry_id>
136

> <s_m_entry_name>
000000136.1

> <s_m_Source_Path>
/Users/zaksoul/Documents/2

> <s_m_Source_File>
000000136.mol2

> <i_m_Source_File_Index>
1

$$$$
No_0_147
                    3D
 Schrodinger Suite 2022-4.
 66 72  0  0  1  0            999 V2000
   -5.3620    3.5540  -22.1640 C   0  0  0  0  0  0
   -5.5630    3.7310  -23.5130 C   0  0  0  0  0  0
   -4.1400    3.3150  -21.7600 C   0  0  0  0  0  0
   -3.1430    3.4360  -23.8790 C   0  0  0  0  0  0
   -3.0510    3.2030  -22.4510 C   0  0  0  0  0  0
   -4.4650    3.6820  -24.4690 C   0  0  0  0  0  0
   -3.6010    3.6970  -26.6270 C   0  0  0  0  0  0
    5.8590    3.0960  -20.8760 C   0  0  0  0  0  0
    5.8470    3.2200  -23.4300 C   0  0  0  0  0  0
   -4.6500    3.7980  -25.8160 C   0  0  0  0  0  0
    2.0630    3.7300  -23.6400 C   0  0  0  0  0  0
    1.2170    4.8320  -23.3910 C   0  0  0  0  0  0
    2.9670    6.0500  -22.6300 C   0  0  0  0  0  0
    3.4440    3.9370  -23.2590 C   0  0  0  0  0  0
    1.5610    2.6030  -24.3200 C   0  0  0  0  0  0
   -0.5770    3.3950  -24.3220 C   0  0  0  0  0  0
   -0.0930    4.6250  -23.7060 C   0  0  0  0  0  0
   -2.0100    3.3840  -24.7490 C   0  0  0  0  0  0
    4.0580    1.4470  -22.9190 C   0  0  0  0  0  0
    4.9370    1.1080  -21.7250 C   0  0  2  0  0  0
    6.5390    2.6620  -22.1920 C   0  0  2  0  0  0
    4.8510    2.1170  -20.5670 C   0  0  0  0  0  0
   -2.2650    3.5310  -26.1920 C   0  0  0  0  0  0
   -1.7340    2.8070  -21.7830 C   0  0  0  0  0  0
   -0.7270    2.4740  -21.2230 C   0  0  0  0  0  0
   -0.9610    5.6630  -23.4120 F   0  0  0  0  0  0
   -3.9970    3.0840  -20.3680 F   0  0  0  0  0  0
    1.6550    5.9990  -22.8440 N   0  0  0  0  0  0
    3.8830    5.0950  -22.7980 N   0  0  0  0  0  0
    0.2730    2.4980  -24.6900 N   0  0  0  0  0  0
    4.3800    2.8970  -23.3820 N   0  0  0  0  0  0
    6.3650    1.1870  -22.1370 N   0  0  1  0  0  0
   -3.7040    3.7000  -28.0230 O   0  0  0  0  0  0
   -6.2003    3.6132  -21.4793 H   0  0  0  0  0  0
   -6.5618    3.9137  -23.8925 H   0  0  0  0  0  0
    5.3848    4.0786  -21.0162 H   0  0  0  0  0  0
    6.6053    3.1202  -20.0682 H   0  0  0  0  0  0
    6.2922    2.7738  -24.3315 H   0  0  0  0  0  0
    5.9811    4.3113  -23.4633 H   0  0  0  0  0  0
   -5.6436    3.9706  -26.2134 H   0  0  0  0  0  0
    2.2211    1.7784  -24.5638 H   0  0  0  0  0  0
    2.9997    1.3824  -22.6261 H   0  0  0  0  0  0
    4.2690    0.7455  -23.7396 H   0  0  0  0  0  0
    4.7048    0.0964  -21.3606 H   0  0  0  0  0  0
    7.6060    2.9293  -22.1870 H   0  0  0  0  0  0
    3.8618    2.5980  -20.5761 H   0  0  0  0  0  0
    5.1094    1.6124  -19.6243 H   0  0  0  0  0  0
   -1.4581    3.5139  -26.9156 H   0  0  0  0  0  0
    0.1599    2.1800  -20.7310 H   0  0  0  0  0  0
    6.9815    0.7008  -21.3954 H   0  0  0  0  0  0
   -2.8384    3.6179  -28.4058 H   0  0  0  0  0  0
    5.3990    8.9930  -22.3280 N   0  3  0  0  0  0
    5.9100   11.1240  -22.3650 N   0  0  0  0  0  0
    4.9090    7.6740  -22.6690 C   0  0  0  0  0  0
    5.1740   10.1480  -23.2020 C   0  0  0  0  0  0
    6.0850    9.2470  -21.2310 C   0  0  0  0  0  0
    6.4070   10.6450  -21.2900 C   0  0  0  0  0  0
    3.4890    7.3980  -22.1440 C   0  0  0  0  0  0
    5.5993    6.9147  -22.2728 H   0  0  0  0  0  0
    4.9250    7.5500  -23.7619 H   0  0  0  0  0  0
    4.1040   10.4020  -23.1800 H   0  0  0  0  0  0
    5.7330    9.9950  -24.1370 H   0  0  0  0  0  0
    6.2870    8.4500  -20.5170 H   0  0  0  0  0  0
    6.9629   11.2909  -20.6121 H   0  0  0  0  0  0
    2.8118    8.1962  -22.4821 H   0  0  0  0  0  0
    3.4960    7.4130  -21.0441 H   0  0  0  0  0  0
  1  2  2  0  0  0
  1  3  1  0  0  0
  1 34  1  0  0  0
  2  6  1  0  0  0
  2 35  1  0  0  0
  3  5  2  0  0  0
  3 27  1  0  0  0
  4  5  1  0  0  0
  4  6  2  0  0  0
  4 18  1  0  0  0
  5 24  1  0  0  0
  6 10  1  0  0  0
  7 10  2  0  0  0
  7 23  1  0  0  0
  7 33  1  0  0  0
  8 21  1  0  0  0
  8 22  1  0  0  0
  8 36  1  0  0  0
  8 37  1  0  0  0
  9 21  1  0  0  0
  9 31  1  0  0  0
  9 38  1  0  0  0
  9 39  1  0  0  0
 10 40  1  0  0  0
 11 12  1  0  0  0
 11 14  2  0  0  0
 11 15  1  0  0  0
 12 17  1  0  0  0
 12 28  2  0  0  0
 13 28  1  0  0  0
 13 29  2  0  0  0
 13 58  1  0  0  0
 14 29  1  0  0  0
 14 31  1  0  0  0
 15 30  2  0  0  0
 15 41  1  0  0  0
 16 17  2  0  0  0
 16 18  1  0  0  0
 16 30  1  0  0  0
 17 26  1  0  0  0
 18 23  2  0  0  0
 19 20  1  0  0  0
 19 31  1  0  0  0
 19 42  1  0  0  0
 19 43  1  0  0  0
 20 22  1  0  0  0
 20 32  1  0  0  0
 20 44  1  0  0  0
 21 32  1  0  0  0
 21 45  1  0  0  0
 22 46  1  0  0  0
 22 47  1  0  0  0
 23 48  1  0  0  0
 24 25  3  0  0  0
 25 49  1  0  0  0
 32 50  1  0  0  0
 33 51  1  0  0  0
 52 54  1  0  0  0
 52 55  1  0  0  0
 52 56  2  0  0  0
 53 55  1  0  0  0
 53 57  2  0  0  0
 54 58  1  0  0  0
 54 59  1  0  0  0
 54 60  1  0  0  0
 55 61  1  0  0  0
 55 62  1  0  0  0
 56 57  1  0  0  0
 56 63  1  0  0  0
 57 64  1  0  0  0
 58 65  1  0  0  0
 58 66  1  0  0  0
M  CHG  1  52   1
M  END
> <s_m_entry_id>
137

> <s_m_entry_name>
000000137.1

> <s_m_Source_Path>
/Users/zaksoul/Documents/2

> <s_m_Source_File>
000000137.mol2

> <i_m_Source_File_Index>
1

$$$$
No_0_148
                    3D
 Schrodinger Suite 2022-4.
 72 78  0  0  1  0            999 V2000
   -4.9940    3.3580  -22.0960 C   0  0  0  0  0  0
   -5.2700    3.5260  -23.4320 C   0  0  0  0  0  0
   -3.7460    3.1630  -21.7550 C   0  0  0  0  0  0
   -2.8630    3.3160  -23.9220 C   0  0  0  0  0  0
   -2.6900    3.0870  -22.5010 C   0  0  0  0  0  0
   -4.2210    3.5150  -24.4430 C   0  0  0  0  0  0
   -3.4700    3.5570  -26.6420 C   0  0  0  0  0  0
    6.2870    3.2920  -21.3840 C   0  0  0  0  0  0
    6.1400    3.4130  -23.9340 C   0  0  0  0  0  0
   -4.4790    3.6230  -25.7790 C   0  0  0  0  0  0
    2.3350    3.7900  -23.9500 C   0  0  0  0  0  0
    1.4650    4.8630  -23.6560 C   0  0  0  0  0  0
    3.2080    6.1420  -22.9860 C   0  0  0  0  0  0
    3.7250    4.0460  -23.6400 C   0  0  0  0  0  0
    1.8390    2.6460  -24.6040 C   0  0  0  0  0  0
   -0.3230    3.3640  -24.4960 C   0  0  0  0  0  0
    0.1490    4.6100  -23.9050 C   0  0  0  0  0  0
   -1.7750    3.3020  -24.8490 C   0  0  0  0  0  0
    4.4430    1.5800  -23.3340 C   0  0  0  0  0  0
    5.3930    1.2730  -22.1860 C   0  0  2  0  0  0
    6.9140    2.8800  -22.7330 C   0  0  2  0  0  0
    5.3310    2.2790  -21.0250 C   0  0  0  0  0  0
   -2.1090    3.4380  -26.2770 C   0  0  0  0  0  0
   -1.3280    2.7390  -21.9010 C   0  0  0  0  0  0
   -0.2820    2.4410  -21.3940 C   0  0  0  0  0  0
   -0.7390    5.6180  -23.5650 F   0  0  0  0  0  0
   -3.5230    2.9380  -20.3720 F   0  0  0  0  0  0
    1.8900    6.0450  -23.1320 N   0  0  0  0  0  0
    4.1470    5.2190  -23.2010 N   0  0  0  0  0  0
    0.5370    2.4960  -24.9070 N   0  0  0  0  0  0
    4.6890    3.0390  -23.8120 N   0  0  0  0  0  0
    6.7940    1.4000  -22.6700 N   0  0  1  0  0  0
   -3.6440    3.5560  -28.0320 O   0  0  0  0  0  0
   -5.7974    3.3891  -21.3689 H   0  0  0  0  0  0
   -6.2924    3.6736  -23.7604 H   0  0  0  0  0  0
    5.7725    4.2574  -21.4990 H   0  0  0  0  0  0
    7.0725    3.3424  -20.6156 H   0  0  0  0  0  0
    6.5537    2.9811  -24.8572 H   0  0  0  0  0  0
    6.2338    4.5083  -23.9733 H   0  0  0  0  0  0
   -5.4969    3.7605  -26.1253 H   0  0  0  0  0  0
    2.5145    1.8451  -24.8820 H   0  0  0  0  0  0
    3.4041    1.4781  -22.9870 H   0  0  0  0  0  0
    4.6357    0.8848  -24.1644 H   0  0  0  0  0  0
    5.2144    0.2541  -21.8118 H   0  0  0  0  0  0
    7.9698    3.1848  -22.7825 H   0  0  0  0  0  0
    4.3263    2.7249  -20.9826 H   0  0  0  0  0  0
    5.6547    1.7848  -20.0971 H   0  0  0  0  0  0
   -1.3395    3.4490  -27.0404 H   0  0  0  0  0  0
    0.6383    2.1779  -20.9479 H   0  0  0  0  0  0
    7.4646    0.9358  -21.9620 H   0  0  0  0  0  0
   -2.7968    3.5035  -28.4586 H   0  0  0  0  0  0
    5.1660    6.3920  -20.9870 O   0  0  0  0  0  0
    7.8460   10.3810  -23.0760 N   0  0  0  0  0  0
    8.1040    8.5830  -21.5870 N   0  0  0  0  0  0
    5.9410    9.6290  -21.8460 C   0  0  0  0  0  0
    4.7470    7.4390  -21.4260 C   0  0  0  0  0  0
    5.7670   11.4380  -23.4140 C   0  0  0  0  0  0
    3.7070    7.5080  -22.5260 C   0  0  0  0  0  0
    5.2150    8.7490  -20.8360 C   0  0  0  0  0  0
    7.2990    9.5280  -22.1670 C   0  0  0  0  0  0
    5.1920   10.5790  -22.4730 C   0  0  0  0  0  0
    7.0820   11.3280  -23.7010 C   0  0  0  0  0  0
    8.8490   10.3190  -23.3020 H   0  0  0  0  0  0
    7.7130    7.9269  -20.8959 H   0  0  0  0  0  0
    9.1005    8.5280  -21.8419 H   0  0  0  0  0  0
    5.1578   12.1862  -23.9081 H   0  0  0  0  0  0
    4.1222    8.0533  -23.3864 H   0  0  0  0  0  0
    2.8538    8.1122  -22.1839 H   0  0  0  0  0  0
    4.3516    9.2963  -20.4298 H   0  0  0  0  0  0
    5.8783    8.5489  -19.9816 H   0  0  0  0  0  0
    4.1371   10.6760  -22.2430 H   0  0  0  0  0  0
    7.5318   11.9937  -24.4287 H   0  0  0  0  0  0
  1  2  2  0  0  0
  1  3  1  0  0  0
  1 34  1  0  0  0
  2  6  1  0  0  0
  2 35  1  0  0  0
  3  5  2  0  0  0
  3 27  1  0  0  0
  4  5  1  0  0  0
  4  6  2  0  0  0
  4 18  1  0  0  0
  5 24  1  0  0  0
  6 10  1  0  0  0
  7 10  2  0  0  0
  7 23  1  0  0  0
  7 33  1  0  0  0
  8 21  1  0  0  0
  8 22  1  0  0  0
  8 36  1  0  0  0
  8 37  1  0  0  0
  9 21  1  0  0  0
  9 31  1  0  0  0
  9 38  1  0  0  0
  9 39  1  0  0  0
 10 40  1  0  0  0
 11 12  2  0  0  0
 11 14  1  0  0  0
 11 15  1  0  0  0
 12 17  1  0  0  0
 12 28  1  0  0  0
 13 28  2  0  0  0
 13 29  1  0  0  0
 13 58  1  0  0  0
 14 29  2  0  0  0
 14 31  1  0  0  0
 15 30  2  0  0  0
 15 41  1  0  0  0
 16 17  2  0  0  0
 16 18  1  0  0  0
 16 30  1  0  0  0
 17 26  1  0  0  0
 18 23  2  0  0  0
 19 20  1  0  0  0
 19 31  1  0  0  0
 19 42  1  0  0  0
 19 43  1  0  0  0
 20 22  1  0  0  0
 20 32  1  0  0  0
 20 44  1  0  0  0
 21 32  1  0  0  0
 21 45  1  0  0  0
 22 46  1  0  0  0
 22 47  1  0  0  0
 23 48  1  0  0  0
 24 25  3  0  0  0
 25 49  1  0  0  0
 32 50  1  0  0  0
 33 51  1  0  0  0
 52 56  2  0  0  0
 53 60  1  0  0  0
 53 62  1  0  0  0
 53 63  1  0  0  0
 54 60  1  0  0  0
 54 64  1  0  0  0
 54 65  1  0  0  0
 55 59  1  0  0  0
 55 60  2  0  0  0
 55 61  1  0  0  0
 56 58  1  0  0  0
 56 59  1  0  0  0
 57 61  1  0  0  0
 57 62  2  0  0  0
 57 66  1  0  0  0
 58 67  1  0  0  0
 58 68  1  0  0  0
 59 69  1  0  0  0
 59 70  1  0  0  0
 61 71  1  0  0  0
 62 72  1  0  0  0
M  END
> <s_m_entry_id>
138

> <s_m_entry_name>
000000138.1

> <s_m_Source_Path>
/Users/zaksoul/Documents/2

> <s_m_Source_File>
000000138.mol2

> <i_m_Source_File_Index>
1

$$$$
No_0_149
                    3D
 Schrodinger Suite 2022-4.
 71 77  0  0  1  0            999 V2000
   -5.2510    3.5090  -22.2510 C   0  0  0  0  0  0
   -5.4590    3.7360  -23.5900 C   0  0  0  0  0  0
   -4.0260    3.2620  -21.8610 C   0  0  0  0  0  0
   -3.0390    3.4680  -23.9790 C   0  0  0  0  0  0
   -2.9400    3.1820  -22.5610 C   0  0  0  0  0  0
   -4.3660    3.7280  -24.5530 C   0  0  0  0  0  0
   -3.5120    3.8290  -26.7130 C   0  0  0  0  0  0
    5.9780    3.0630  -21.0320 C   0  0  0  0  0  0
    5.9530    3.2830  -23.5790 C   0  0  0  0  0  0
   -4.5580    3.8940  -25.8940 C   0  0  0  0  0  0
    2.1650    3.7790  -23.7530 C   0  0  0  0  0  0
    1.3150    4.8670  -23.4590 C   0  0  0  0  0  0
    3.0630    6.0650  -22.6610 C   0  0  0  0  0  0
    3.5470    3.9790  -23.3710 C   0  0  0  0  0  0
    1.6660    2.6760  -24.4730 C   0  0  0  0  0  0
   -0.4760    3.4570  -24.4350 C   0  0  0  0  0  0
    0.0050    4.6650  -23.7760 C   0  0  0  0  0  0
   -1.9110    3.4540  -24.8550 C   0  0  0  0  0  0
    4.1760    1.4820  -23.1280 C   0  0  0  0  0  0
    5.0620    1.1040  -21.9510 C   0  0  2  0  0  0
    6.6550    2.6820  -22.3670 C   0  0  2  0  0  0
    4.9760    2.0680  -20.7560 C   0  0  0  0  0  0
   -2.1740    3.6530  -26.2910 C   0  0  0  0  0  0
   -1.6180    2.7680  -21.9140 C   0  0  0  0  0  0
   -0.6060    2.4190  -21.3720 C   0  0  0  0  0  0
   -0.8670    5.6870  -23.4380 F   0  0  0  0  0  0
   -3.8750    2.9800  -20.4790 F   0  0  0  0  0  0
    1.7500    6.0150  -22.8710 N   0  0  0  0  0  0
    3.9820    5.1220  -22.8690 N   0  0  0  0  0  0
    0.3770    2.5780  -24.8400 N   0  0  0  0  0  0
    4.4880    2.9500  -23.5370 N   0  0  0  0  0  0
    6.4880    1.2050  -22.3660 N   0  0  1  0  0  0
   -3.6220    3.8840  -28.1080 O   0  0  0  0  0  0
   -6.0856    3.5391  -21.5599 H   0  0  0  0  0  0
   -6.4605    3.9267  -23.9583 H   0  0  0  0  0  0
    5.4987    4.0479  -21.1329 H   0  0  0  0  0  0
    6.7286    3.0600  -20.2279 H   0  0  0  0  0  0
    6.3957    2.8726  -24.4986 H   0  0  0  0  0  0
    6.0812    4.3755  -23.5729 H   0  0  0  0  0  0
   -5.5544    4.0756  -26.2803 H   0  0  0  0  0  0
    2.3302    1.8653  -24.7499 H   0  0  0  0  0  0
    3.1196    1.4013  -22.8324 H   0  0  0  0  0  0
    4.3870    0.8127  -23.9750 H   0  0  0  0  0  0
    4.8370    0.0781  -21.6242 H   0  0  0  0  0  0
    7.7206    2.9547  -22.3569 H   0  0  0  0  0  0
    3.9843    2.5437  -20.7419 H   0  0  0  0  0  0
    5.2423    1.5304  -19.8340 H   0  0  0  0  0  0
   -1.3704    3.6680  -27.0184 H   0  0  0  0  0  0
    0.2849    2.1110  -20.8960 H   0  0  0  0  0  0
    7.1103    0.6939  -21.6464 H   0  0  0  0  0  0
   -2.7575    3.8207  -28.4967 H   0  0  0  0  0  0
    7.7050    9.3360  -20.1350 N   0  3  0  0  0  0
    5.3500    9.0690  -22.5690 N   0  0  0  0  0  0
    5.1310    9.7810  -23.7000 N   0  0  0  0  0  0
    5.0700    7.6350  -22.4420 C   0  0  0  0  0  0
    5.8410    9.9630  -21.6690 C   0  0  0  0  0  0
    6.2300    9.6050  -20.2440 C   0  0  0  0  0  0
    3.5800    7.3970  -22.1270 C   0  0  0  0  0  0
    5.9330   11.1860  -22.2020 C   0  0  0  0  0  0
    5.4690   11.0300  -23.5110 C   0  0  0  0  0  0
    7.9350    9.1010  -19.1821 H   0  0  0  0  0  0
    7.9519    8.5674  -20.7387 H   0  0  0  0  0  0
    8.2181   10.1582  -20.4121 H   0  0  0  0  0  0
    5.6874    7.2107  -21.6365 H   0  0  0  0  0  0
    5.3320    7.1271  -23.3819 H   0  0  0  0  0  0
    5.9579   10.4322  -19.5719 H   0  0  0  0  0  0
    5.6702    8.7134  -19.9251 H   0  0  0  0  0  0
    2.9808    8.2172  -22.5491 H   0  0  0  0  0  0
    3.4260    7.4390  -21.0387 H   0  0  0  0  0  0
    6.3091   12.0102  -21.6068 H   0  0  0  0  0  0
    5.3620   11.7480  -24.3160 H   0  0  0  0  0  0
  1  2  2  0  0  0
  1  3  1  0  0  0
  1 34  1  0  0  0
  2  6  1  0  0  0
  2 35  1  0  0  0
  3  5  2  0  0  0
  3 27  1  0  0  0
  4  5  1  0  0  0
  4  6  2  0  0  0
  4 18  1  0  0  0
  5 24  1  0  0  0
  6 10  1  0  0  0
  7 10  2  0  0  0
  7 23  1  0  0  0
  7 33  1  0  0  0
  8 21  1  0  0  0
  8 22  1  0  0  0
  8 36  1  0  0  0
  8 37  1  0  0  0
  9 21  1  0  0  0
  9 31  1  0  0  0
  9 38  1  0  0  0
  9 39  1  0  0  0
 10 40  1  0  0  0
 11 12  1  0  0  0
 11 14  2  0  0  0
 11 15  1  0  0  0
 12 17  1  0  0  0
 12 28  2  0  0  0
 13 28  1  0  0  0
 13 29  2  0  0  0
 13 58  1  0  0  0
 14 29  1  0  0  0
 14 31  1  0  0  0
 15 30  2  0  0  0
 15 41  1  0  0  0
 16 17  2  0  0  0
 16 18  1  0  0  0
 16 30  1  0  0  0
 17 26  1  0  0  0
 18 23  2  0  0  0
 19 20  1  0  0  0
 19 31  1  0  0  0
 19 42  1  0  0  0
 19 43  1  0  0  0
 20 22  1  0  0  0
 20 32  1  0  0  0
 20 44  1  0  0  0
 21 32  1  0  0  0
 21 45  1  0  0  0
 22 46  1  0  0  0
 22 47  1  0  0  0
 23 48  1  0  0  0
 24 25  3  0  0  0
 25 49  1  0  0  0
 32 50  1  0  0  0
 33 51  1  0  0  0
 52 57  1  0  0  0
 52 61  1  0  0  0
 52 62  1  0  0  0
 52 63  1  0  0  0
 53 54  1  0  0  0
 53 55  1  0  0  0
 53 56  1  0  0  0
 54 60  2  0  0  0
 55 58  1  0  0  0
 55 64  1  0  0  0
 55 65  1  0  0  0
 56 57  1  0  0  0
 56 59  2  0  0  0
 57 66  1  0  0  0
 57 67  1  0  0  0
 58 68  1  0  0  0
 58 69  1  0  0  0
 59 60  1  0  0  0
 59 70  1  0  0  0
 60 71  1  0  0  0
M  CHG  1  52   1
M  END
> <s_m_entry_id>
139

> <s_m_entry_name>
000000139.1

> <s_m_Source_Path>
/Users/zaksoul/Documents/2

> <s_m_Source_File>
000000139.mol2

> <i_m_Source_File_Index>
1

$$$$
No_0_150
                    3D
 Schrodinger Suite 2022-4.
 71 77  0  0  1  0            999 V2000
   -5.2450    3.5230  -22.0270 C   0  0  0  0  0  0
   -5.4660    3.7480  -23.3650 C   0  0  0  0  0  0
   -4.0170    3.2720  -21.6490 C   0  0  0  0  0  0
   -3.0510    3.4710  -23.7770 C   0  0  0  0  0  0
   -2.9380    3.1860  -22.3600 C   0  0  0  0  0  0
   -4.3820    3.7350  -24.3380 C   0  0  0  0  0  0
   -3.5500    3.8290  -26.5060 C   0  0  0  0  0  0
    5.9940    3.0370  -20.9210 C   0  0  0  0  0  0
    5.9440    3.2520  -23.4690 C   0  0  0  0  0  0
   -4.5870    3.9000  -25.6770 C   0  0  0  0  0  0
    2.1570    3.7630  -23.6050 C   0  0  0  0  0  0
    1.3140    4.8540  -23.3030 C   0  0  0  0  0  0
    3.0740    6.0470  -22.5250 C   0  0  0  0  0  0
    3.5430    3.9590  -23.2370 C   0  0  0  0  0  0
    1.6460    2.6610  -24.3180 C   0  0  0  0  0  0
   -0.4920    3.4490  -24.2590 C   0  0  0  0  0  0
   -0.0000    4.6570  -23.6070 C   0  0  0  0  0  0
   -1.9320    3.4520  -24.6650 C   0  0  0  0  0  0
    4.1650    1.4590  -22.9960 C   0  0  0  0  0  0
    5.0620    1.0790  -21.8280 C   0  0  2  0  0  0
    6.6560    2.6510  -22.2630 C   0  0  2  0  0  0
    4.9920    2.0460  -20.6340 C   0  0  0  0  0  0
   -2.2080    3.6500  -26.0980 C   0  0  0  0  0  0
   -1.6110    2.7690  -21.7260 C   0  0  0  0  0  0
   -0.5950    2.4170  -21.1940 C   0  0  0  0  0  0
   -0.8650    5.6830  -23.2620 F   0  0  0  0  0  0
   -3.8530    2.9910  -20.2680 F   0  0  0  0  0  0
    1.7590    6.0020  -22.7220 N   0  0  0  0  0  0
    3.9880    5.1000  -22.7420 N   0  0  0  0  0  0
    0.3530    2.5670  -24.6720 N   0  0  0  0  0  0
    4.4780    2.9250  -23.4120 N   0  0  0  0  0  0
    6.4840    1.1740  -22.2580 N   0  0  1  0  0  0
   -3.6740    3.8830  -27.9000 O   0  0  0  0  0  0
   -6.0726    3.5571  -21.3278 H   0  0  0  0  0  0
   -6.4703    3.9428  -23.7235 H   0  0  0  0  0  0
    5.5166    4.0231  -21.0189 H   0  0  0  0  0  0
    6.7529    3.0320  -20.1247 H   0  0  0  0  0  0
    6.3760    2.8392  -24.3926 H   0  0  0  0  0  0
    6.0761    4.3440  -23.4650 H   0  0  0  0  0  0
   -5.5866    4.0847  -26.0534 H   0  0  0  0  0  0
    2.3041    1.8474  -24.6009 H   0  0  0  0  0  0
    3.1112    1.3823  -22.6901 H   0  0  0  0  0  0
    4.3648    0.7881  -23.8445 H   0  0  0  0  0  0
    4.8359    0.0546  -21.4970 H   0  0  0  0  0  0
    7.7227    2.9195  -22.2640 H   0  0  0  0  0  0
    4.0022    2.5253  -20.6108 H   0  0  0  0  0  0
    5.2644    1.5083  -19.7139 H   0  0  0  0  0  0
   -1.4120    3.6600  -26.8338 H   0  0  0  0  0  0
    0.2993    2.1069  -20.7258 H   0  0  0  0  0  0
    7.1119    0.6627  -21.5434 H   0  0  0  0  0  0
   -2.8140    3.8157  -28.2979 H   0  0  0  0  0  0
    7.9070    9.4920  -20.6810 N   0  3  0  0  0  0
    5.1460    9.2030  -22.6380 N   0  0  0  0  0  0
    4.6680    9.9670  -23.6500 N   0  0  0  0  0  0
    4.9840    7.7470  -22.5710 C   0  0  0  0  0  0
    5.7450   10.0720  -21.7820 C   0  0  0  0  0  0
    6.4240    9.6560  -20.4880 C   0  0  0  0  0  0
    3.6020    7.3780  -21.9990 C   0  0  0  0  0  0
    5.6570   11.3300  -22.2280 C   0  0  0  0  0  0
    4.9580   11.2230  -23.4330 C   0  0  0  0  0  0
    8.3309    9.2160  -19.8091 H   0  0  0  0  0  0
    8.0791    8.7837  -21.3773 H   0  0  0  0  0  0
    8.3048   10.3666  -20.9859 H   0  0  0  0  0  0
    5.7710    7.3200  -21.9320 H   0  0  0  0  0  0
    5.0900    7.3199  -23.5792 H   0  0  0  0  0  0
    6.2370   10.4160  -19.7150 H   0  0  0  0  0  0
    5.9940    8.7060  -20.1380 H   0  0  0  0  0  0
    2.8830    8.1760  -22.2360 H   0  0  0  0  0  0
    3.6590    7.3390  -20.9012 H   0  0  0  0  0  0
    6.0890   12.1410  -21.6530 H   0  0  0  0  0  0
    4.6531   11.9807  -24.1457 H   0  0  0  0  0  0
  1  2  2  0  0  0
  1  3  1  0  0  0
  1 34  1  0  0  0
  2  6  1  0  0  0
  2 35  1  0  0  0
  3  5  2  0  0  0
  3 27  1  0  0  0
  4  5  1  0  0  0
  4  6  2  0  0  0
  4 18  1  0  0  0
  5 24  1  0  0  0
  6 10  1  0  0  0
  7 10  2  0  0  0
  7 23  1  0  0  0
  7 33  1  0  0  0
  8 21  1  0  0  0
  8 22  1  0  0  0
  8 36  1  0  0  0
  8 37  1  0  0  0
  9 21  1  0  0  0
  9 31  1  0  0  0
  9 38  1  0  0  0
  9 39  1  0  0  0
 10 40  1  0  0  0
 11 12  1  0  0  0
 11 14  2  0  0  0
 11 15  1  0  0  0
 12 17  1  0  0  0
 12 28  2  0  0  0
 13 28  1  0  0  0
 13 29  2  0  0  0
 13 58  1  0  0  0
 14 29  1  0  0  0
 14 31  1  0  0  0
 15 30  2  0  0  0
 15 41  1  0  0  0
 16 17  2  0  0  0
 16 18  1  0  0  0
 16 30  1  0  0  0
 17 26  1  0  0  0
 18 23  2  0  0  0
 19 20  1  0  0  0
 19 31  1  0  0  0
 19 42  1  0  0  0
 19 43  1  0  0  0
 20 22  1  0  0  0
 20 32  1  0  0  0
 20 44  1  0  0  0
 21 32  1  0  0  0
 21 45  1  0  0  0
 22 46  1  0  0  0
 22 47  1  0  0  0
 23 48  1  0  0  0
 24 25  3  0  0  0
 25 49  1  0  0  0
 32 50  1  0  0  0
 33 51  1  0  0  0
 52 57  1  0  0  0
 52 61  1  0  0  0
 52 62  1  0  0  0
 52 63  1  0  0  0
 53 54  1  0  0  0
 53 55  1  0  0  0
 53 56  1  0  0  0
 54 60  2  0  0  0
 55 58  1  0  0  0
 55 64  1  0  0  0
 55 65  1  0  0  0
 56 57  1  0  0  0
 56 59  2  0  0  0
 57 66  1  0  0  0
 57 67  1  0  0  0
 58 68  1  0  0  0
 58 69  1  0  0  0
 59 60  1  0  0  0
 59 70  1  0  0  0
 60 71  1  0  0  0
M  CHG  1  52   1
M  END
> <s_m_entry_id>
140

> <s_m_entry_name>
000000140.1

> <s_m_Source_Path>
/Users/zaksoul/Documents/2

> <s_m_Source_File>
000000140.mol2

> <i_m_Source_File_Index>
1

$$$$
No_0_151
                    3D
 Schrodinger Suite 2022-4.
 71 77  0  0  1  0            999 V2000
   -5.3850    3.1470  -21.8670 C   0  0  0  0  0  0
   -5.6270    3.3900  -23.1980 C   0  0  0  0  0  0
   -4.1480    2.9070  -21.5100 C   0  0  0  0  0  0
   -3.2150    3.1510  -23.6480 C   0  0  0  0  0  0
   -3.0780    2.8460  -22.2370 C   0  0  0  0  0  0
   -4.5580    3.4070  -24.1860 C   0  0  0  0  0  0
   -3.7570    3.5450  -26.3640 C   0  0  0  0  0  0
    5.8740    2.7940  -20.9250 C   0  0  0  0  0  0
    5.7860    3.0490  -23.4680 C   0  0  0  0  0  0
   -4.7840    3.5890  -25.5200 C   0  0  0  0  0  0
    1.9900    3.5110  -23.5440 C   0  0  0  0  0  0
    1.1370    4.5860  -23.2130 C   0  0  0  0  0  0
    2.8920    5.7900  -22.4410 C   0  0  0  0  0  0
    3.3790    3.7190  -23.1920 C   0  0  0  0  0  0
    1.4840    2.4130  -24.2660 C   0  0  0  0  0  0
   -0.6630    3.1720  -24.1660 C   0  0  0  0  0  0
   -0.1780    4.3750  -23.5010 C   0  0  0  0  0  0
   -2.1080    3.1610  -24.5510 C   0  0  0  0  0  0
    4.0370    1.2250  -22.9990 C   0  0  0  0  0  0
    4.9550    0.8390  -21.8490 C   0  0  2  0  0  0
    6.5220    2.4380  -22.2810 C   0  0  2  0  0  0
    4.8890    1.7860  -20.6390 C   0  0  0  0  0  0
   -2.4080    3.3780  -25.9770 C   0  0  0  0  0  0
   -1.7380    2.4370  -21.6280 C   0  0  0  0  0  0
   -0.7100    2.0900  -21.1160 C   0  0  0  0  0  0
   -1.0520    5.3840  -23.1290 F   0  0  0  0  0  0
   -3.9610    2.6060  -20.1360 F   0  0  0  0  0  0
    1.5750    5.7300  -22.6200 N   0  0  0  0  0  0
    3.8150    4.8590  -22.6840 N   0  0  0  0  0  0
    0.1870    2.3080  -24.6040 N   0  0  0  0  0  0
    4.3250    2.7020  -23.3960 N   0  0  0  0  0  0
    6.3700    0.9600  -22.2980 N   0  0  1  0  0  0
   -3.9020    3.6190  -27.7550 O   0  0  0  0  0  0
   -6.2028    3.1580  -21.1556 H   0  0  0  0  0  0
   -6.6389    3.5765  -23.5390 H   0  0  0  0  0  0
    5.3828    3.7753  -21.0006 H   0  0  0  0  0  0
    6.6437    2.7879  -20.1392 H   0  0  0  0  0  0
    6.2100    2.6563  -24.4039 H   0  0  0  0  0  0
    5.9030    4.1426  -23.4488 H   0  0  0  0  0  0
   -5.7911    3.7667  -25.8795 H   0  0  0  0  0  0
    2.1486    1.6129  -24.5712 H   0  0  0  0  0  0
    2.9890    1.1291  -22.6789 H   0  0  0  0  0  0
    4.2338    0.5702  -23.8607 H   0  0  0  0  0  0
    4.7471   -0.1936  -21.5320 H   0  0  0  0  0  0
    7.5847    2.7216  -22.2931 H   0  0  0  0  0  0
    3.8933    2.2515  -20.5956 H   0  0  0  0  0  0
    5.1816    1.2370  -19.7318 H   0  0  0  0  0  0
   -1.6225    3.4101  -26.7234 H   0  0  0  0  0  0
    0.1949    1.7850  -20.6651 H   0  0  0  0  0  0
    7.0137    0.4457  -21.5998 H   0  0  0  0  0  0
   -3.0466    3.5705  -28.1654 H   0  0  0  0  0  0
    7.7240    9.4540  -21.0800 N   0  3  0  0  0  0
    4.7210    9.0890  -22.6240 N   0  0  0  0  0  0
    4.0470    9.8800  -23.4940 N   0  0  0  0  0  0
    4.6630    7.6250  -22.6420 C   0  0  0  0  0  0
    5.3880    9.9440  -21.8030 C   0  0  0  0  0  0
    6.2810    9.4960  -20.6580 C   0  0  0  0  0  0
    3.4090    7.1190  -21.9010 C   0  0  0  0  0  0
    5.1540   11.2180  -22.1360 C   0  0  0  0  0  0
    4.2870   11.1370  -23.2300 C   0  0  0  0  0  0
    8.2928    9.1551  -20.3033 H   0  0  0  0  0  0
    7.8321    8.8063  -21.8448 H   0  0  0  0  0  0
    8.0151   10.3732  -21.3741 H   0  0  0  0  0  0
    5.5631    7.2170  -22.1590 H   0  0  0  0  0  0
    4.6400    7.2718  -23.6835 H   0  0  0  0  0  0
    6.1670   10.1893  -19.8116 H   0  0  0  0  0  0
    5.9689    8.4968  -20.3199 H   0  0  0  0  0  0
    2.6139    7.8761  -21.9690 H   0  0  0  0  0  0
    3.6359    7.0151  -20.8297 H   0  0  0  0  0  0
    5.6171   12.0202  -21.5729 H   0  0  0  0  0  0
    3.8311   11.9148  -23.8319 H   0  0  0  0  0  0
  1  2  2  0  0  0
  1  3  1  0  0  0
  1 34  1  0  0  0
  2  6  1  0  0  0
  2 35  1  0  0  0
  3  5  2  0  0  0
  3 27  1  0  0  0
  4  5  1  0  0  0
  4  6  2  0  0  0
  4 18  1  0  0  0
  5 24  1  0  0  0
  6 10  1  0  0  0
  7 10  2  0  0  0
  7 23  1  0  0  0
  7 33  1  0  0  0
  8 21  1  0  0  0
  8 22  1  0  0  0
  8 36  1  0  0  0
  8 37  1  0  0  0
  9 21  1  0  0  0
  9 31  1  0  0  0
  9 38  1  0  0  0
  9 39  1  0  0  0
 10 40  1  0  0  0
 11 12  1  0  0  0
 11 14  2  0  0  0
 11 15  1  0  0  0
 12 17  1  0  0  0
 12 28  2  0  0  0
 13 28  1  0  0  0
 13 29  2  0  0  0
 13 58  1  0  0  0
 14 29  1  0  0  0
 14 31  1  0  0  0
 15 30  2  0  0  0
 15 41  1  0  0  0
 16 17  2  0  0  0
 16 18  1  0  0  0
 16 30  1  0  0  0
 17 26  1  0  0  0
 18 23  2  0  0  0
 19 20  1  0  0  0
 19 31  1  0  0  0
 19 42  1  0  0  0
 19 43  1  0  0  0
 20 22  1  0  0  0
 20 32  1  0  0  0
 20 44  1  0  0  0
 21 32  1  0  0  0
 21 45  1  0  0  0
 22 46  1  0  0  0
 22 47  1  0  0  0
 23 48  1  0  0  0
 24 25  3  0  0  0
 25 49  1  0  0  0
 32 50  1  0  0  0
 33 51  1  0  0  0
 52 57  1  0  0  0
 52 61  1  0  0  0
 52 62  1  0  0  0
 52 63  1  0  0  0
 53 54  1  0  0  0
 53 55  1  0  0  0
 53 56  1  0  0  0
 54 60  2  0  0  0
 55 58  1  0  0  0
 55 64  1  0  0  0
 55 65  1  0  0  0
 56 57  1  0  0  0
 56 59  2  0  0  0
 57 66  1  0  0  0
 57 67  1  0  0  0
 58 68  1  0  0  0
 58 69  1  0  0  0
 59 60  1  0  0  0
 59 70  1  0  0  0
 60 71  1  0  0  0
M  CHG  1  52   1
M  END
> <s_m_entry_id>
141

> <s_m_entry_name>
000000141.1

> <s_m_Source_Path>
/Users/zaksoul/Documents/2

> <s_m_Source_File>
000000141.mol2

> <i_m_Source_File_Index>
1

$$$$
No_0_152
                    3D
 Schrodinger Suite 2022-4.
 70 76  0  0  1  0            999 V2000
   -5.2880    3.6360  -21.9680 C   0  0  0  0  0  0
   -5.5500    3.8170  -23.3050 C   0  0  0  0  0  0
   -4.0510    3.3790  -21.6220 C   0  0  0  0  0  0
   -3.1550    3.4860  -23.7870 C   0  0  0  0  0  0
   -2.9980    3.2500  -22.3640 C   0  0  0  0  0  0
   -4.5000    3.7520  -24.3130 C   0  0  0  0  0  0
   -3.7400    3.7550  -26.5090 C   0  0  0  0  0  0
    5.9740    3.0040  -21.2170 C   0  0  0  0  0  0
    5.8420    3.1300  -23.7680 C   0  0  0  0  0  0
   -4.7470    3.8720  -25.6490 C   0  0  0  0  0  0
    2.0600    3.6980  -23.7970 C   0  0  0  0  0  0
    1.2440    4.8130  -23.5080 C   0  0  0  0  0  0
    3.0470    6.0040  -22.8320 C   0  0  0  0  0  0
    3.4610    3.8830  -23.4820 C   0  0  0  0  0  0
    1.5090    2.5790  -24.4520 C   0  0  0  0  0  0
   -0.6140    3.4050  -24.3520 C   0  0  0  0  0  0
   -0.0820    4.6260  -23.7600 C   0  0  0  0  0  0
   -2.0660    3.4160  -24.7100 C   0  0  0  0  0  0
    4.0520    1.3840  -23.1720 C   0  0  0  0  0  0
    4.9810    1.0310  -22.0210 C   0  0  2  0  0  0
    6.5840    2.5600  -22.5650 C   0  0  2  0  0  0
    4.9660    2.0410  -20.8610 C   0  0  0  0  0  0
   -2.3880    3.5680  -26.1390 C   0  0  0  0  0  0
   -1.6580    2.8340  -21.7600 C   0  0  0  0  0  0
   -0.6300    2.4840  -21.2500 C   0  0  0  0  0  0
   -0.9190    5.6780  -23.4250 F   0  0  0  0  0  0
   -3.8450    3.1450  -20.2380 F   0  0  0  0  0  0
    1.7260    5.9730  -22.9830 N   0  0  0  0  0  0
    3.9390    5.0350  -23.0440 N   0  0  0  0  0  0
    0.2030    2.4950  -24.7600 N   0  0  0  0  0  0
    4.3730    2.8290  -23.6500 N   0  0  0  0  0  0
    6.3890    1.0880  -22.5010 N   0  0  1  0  0  0
   -3.9090    3.7610  -27.8990 O   0  0  0  0  0  0
   -6.0909    3.7093  -21.2434 H   0  0  0  0  0  0
   -6.5625    4.0157  -23.6372 H   0  0  0  0  0  0
    5.5089    3.9938  -21.3351 H   0  0  0  0  0  0
    6.7583    3.0151  -20.4458 H   0  0  0  0  0  0
    6.2357    2.6767  -24.6897 H   0  0  0  0  0  0
    5.9904    4.2192  -23.8084 H   0  0  0  0  0  0
   -5.7556    4.0597  -25.9992 H   0  0  0  0  0  0
    2.1444    1.7449  -24.7270 H   0  0  0  0  0  0
    3.0081    1.3355  -22.8287 H   0  0  0  0  0  0
    4.2125    0.6796  -24.0015 H   0  0  0  0  0  0
    4.7509    0.0226  -21.6465 H   0  0  0  0  0  0
    7.6539    2.8113  -22.6104 H   0  0  0  0  0  0
    3.9848    2.5367  -20.8226 H   0  0  0  0  0  0
    5.2616    1.5316  -19.9319 H   0  0  0  0  0  0
   -1.6168    3.5389  -26.9002 H   0  0  0  0  0  0
    0.2745    2.1762  -20.8003 H   0  0  0  0  0  0
    7.0325    0.5910  -21.7902 H   0  0  0  0  0  0
   -3.0640    3.6650  -28.3225 H   0  0  0  0  0  0
    7.1250    8.7180  -20.2810 N   0  3  1  0  0  0
    5.0500    7.1700  -22.1160 N   0  0  1  0  0  0
    7.1850    8.3930  -21.7400 C   0  0  0  0  0  0
    5.6330    8.6740  -20.1740 C   0  0  0  0  0  0
    7.8730    7.7760  -19.3800 C   0  0  0  0  0  0
    5.6400    8.4520  -21.7060 C   0  0  2  0  0  0
    3.6130    7.3430  -22.3720 C   0  0  0  0  0  0
    7.4479    9.6609  -20.1300 H   0  0  0  0  0  0
    5.5336    6.8226  -23.0170 H   0  0  0  0  0  0
    7.4640    7.3321  -21.8210 H   0  0  0  0  0  0
    7.5290    9.3010  -22.2570 H   0  0  0  0  0  0
    5.2931    9.7056  -20.0001 H   0  0  0  0  0  0
    5.3731    7.7105  -19.7112 H   0  0  0  0  0  0
    7.7650    8.1029  -18.3353 H   0  0  0  0  0  0
    7.4639    6.7608  -19.4900 H   0  0  0  0  0  0
    8.9381    7.7730  -19.6550 H   0  0  0  0  0  0
    5.2319    9.3082  -22.2631 H   0  0  0  0  0  0
    3.4689    8.0933  -23.1634 H   0  0  0  0  0  0
    3.1101    7.6530  -21.4441 H   0  0  0  0  0  0
  1  2  2  0  0  0
  1  3  1  0  0  0
  1 34  1  0  0  0
  2  6  1  0  0  0
  2 35  1  0  0  0
  3  5  2  0  0  0
  3 27  1  0  0  0
  4  5  1  0  0  0
  4  6  2  0  0  0
  4 18  1  0  0  0
  5 24  1  0  0  0
  6 10  1  0  0  0
  7 10  2  0  0  0
  7 23  1  0  0  0
  7 33  1  0  0  0
  8 21  1  0  0  0
  8 22  1  0  0  0
  8 36  1  0  0  0
  8 37  1  0  0  0
  9 21  1  0  0  0
  9 31  1  0  0  0
  9 38  1  0  0  0
  9 39  1  0  0  0
 10 40  1  0  0  0
 11 12  1  0  0  0
 11 14  2  0  0  0
 11 15  1  0  0  0
 12 17  1  0  0  0
 12 28  2  0  0  0
 13 28  1  0  0  0
 13 29  2  0  0  0
 13 58  1  0  0  0
 14 29  1  0  0  0
 14 31  1  0  0  0
 15 30  2  0  0  0
 15 41  1  0  0  0
 16 17  2  0  0  0
 16 18  1  0  0  0
 16 30  1  0  0  0
 17 26  1  0  0  0
 18 23  2  0  0  0
 19 20  1  0  0  0
 19 31  1  0  0  0
 19 42  1  0  0  0
 19 43  1  0  0  0
 20 22  1  0  0  0
 20 32  1  0  0  0
 20 44  1  0  0  0
 21 32  1  0  0  0
 21 45  1  0  0  0
 22 46  1  0  0  0
 22 47  1  0  0  0
 23 48  1  0  0  0
 24 25  3  0  0  0
 25 49  1  0  0  0
 32 50  1  0  0  0
 33 51  1  0  0  0
 52 54  1  0  0  0
 52 55  1  0  0  0
 52 56  1  0  0  0
 52 59  1  0  0  0
 53 57  1  0  0  0
 53 58  1  0  0  0
 53 60  1  0  0  0
 54 57  1  0  0  0
 54 61  1  0  0  0
 54 62  1  0  0  0
 55 57  1  0  0  0
 55 63  1  0  0  0
 55 64  1  0  0  0
 56 65  1  0  0  0
 56 66  1  0  0  0
 56 67  1  0  0  0
 57 68  1  0  0  0
 58 69  1  0  0  0
 58 70  1  0  0  0
M  CHG  1  52   1
M  END
> <s_m_entry_id>
142

> <s_m_entry_name>
000000142.1

> <s_m_Source_Path>
/Users/zaksoul/Documents/2

> <s_m_Source_File>
000000142.mol2

> <i_m_Source_File_Index>
1

$$$$
No_0_153
                    3D
 Schrodinger Suite 2022-4.
 70 76  0  0  1  0            999 V2000
   -5.1850    3.6440  -22.0610 C   0  0  0  0  0  0
   -5.4400    3.8440  -23.3970 C   0  0  0  0  0  0
   -3.9460    3.4120  -21.7080 C   0  0  0  0  0  0
   -3.0330    3.5830  -23.8620 C   0  0  0  0  0  0
   -2.8830    3.3250  -22.4430 C   0  0  0  0  0  0
   -4.3790    3.8250  -24.3950 C   0  0  0  0  0  0
   -3.6000    3.8890  -26.5840 C   0  0  0  0  0  0
    6.0820    3.2890  -21.2150 C   0  0  0  0  0  0
    5.9690    3.4600  -23.7640 C   0  0  0  0  0  0
   -4.6180    3.9630  -25.7320 C   0  0  0  0  0  0
    2.1740    3.9300  -23.8190 C   0  0  0  0  0  0
    1.3270    5.0180  -23.5160 C   0  0  0  0  0  0
    3.0930    6.2420  -22.8010 C   0  0  0  0  0  0
    3.5670    4.1460  -23.4870 C   0  0  0  0  0  0
    1.6590    2.8110  -24.5000 C   0  0  0  0  0  0
   -0.4860    3.5790  -24.4040 C   0  0  0  0  0  0
    0.0090    4.8020  -23.7840 C   0  0  0  0  0  0
   -1.9350    3.5600  -24.7750 C   0  0  0  0  0  0
    4.2210    1.6580  -23.2190 C   0  0  0  0  0  0
    5.1480    1.3070  -22.0660 C   0  0  2  0  0  0
    6.7150    2.8860  -22.5650 C   0  0  2  0  0  0
    5.0960    2.2930  -20.8870 C   0  0  0  0  0  0
   -2.2470    3.7300  -26.2050 C   0  0  0  0  0  0
   -1.5380    2.9320  -21.8340 C   0  0  0  0  0  0
   -0.5060    2.5990  -21.3200 C   0  0  0  0  0  0
   -0.8580    5.8250  -23.4370 F   0  0  0  0  0  0
   -3.7460    3.1570  -20.3270 F   0  0  0  0  0  0
    1.7740    6.1800  -22.9650 N   0  0  0  0  0  0
    4.0110    5.3010  -23.0220 N   0  0  0  0  0  0
    0.3580    2.6980  -24.8210 N   0  0  0  0  0  0
    4.5080    3.1190  -23.6660 N   0  0  0  0  0  0
    6.5590    1.4090  -22.5310 N   0  0  1  0  0  0
   -3.7570    3.9170  -27.9760 O   0  0  0  0  0  0
   -5.9958    3.6821  -21.3425 H   0  0  0  0  0  0
   -6.4548    4.0217  -23.7343 H   0  0  0  0  0  0
    5.5919    4.2683  -21.3189 H   0  0  0  0  0  0
    6.8592    3.3062  -20.4368 H   0  0  0  0  0  0
    6.3828    3.0351  -24.6904 H   0  0  0  0  0  0
    6.0901    4.5532  -23.7822 H   0  0  0  0  0  0
   -5.6281    4.1317  -26.0874 H   0  0  0  0  0  0
    2.3180    1.9985  -24.7839 H   0  0  0  0  0  0
    3.1759    1.5753  -22.8861 H   0  0  0  0  0  0
    4.4067    0.9736  -24.0599 H   0  0  0  0  0  0
    4.9412    0.2863  -21.7120 H   0  0  0  0  0  0
    7.7784    3.1655  -22.5963 H   0  0  0  0  0  0
    4.1025    2.7635  -20.8486 H   0  0  0  0  0  0
    5.3967    1.7743  -19.9647 H   0  0  0  0  0  0
   -1.4686    3.7350  -26.9594 H   0  0  0  0  0  0
    0.4025    2.3062  -20.8683 H   0  0  0  0  0  0
    7.2084    0.9158  -21.8228 H   0  0  0  0  0  0
   -2.9058    3.8517  -28.3927 H   0  0  0  0  0  0
    7.3220    9.1180  -20.7170 N   0  3  1  0  0  0
    5.0880    7.5350  -22.3200 N   0  0  1  0  0  0
    7.1480    8.9260  -22.1900 C   0  0  0  0  0  0
    5.8820    8.9180  -20.3630 C   0  0  0  0  0  0
    8.2930    8.1810  -20.0550 C   0  0  0  0  0  0
    5.6340    8.8290  -21.8880 C   0  0  2  0  0  0
    3.6190    7.5860  -22.3100 C   0  0  0  0  0  0
    7.5879   10.0718  -20.5280 H   0  0  0  0  0  0
    5.4302    7.3149  -23.3204 H   0  0  0  0  0  0
    7.4942    7.9085  -22.4241 H   0  0  0  0  0  0
    7.3190    9.9042  -22.6631 H   0  0  0  0  0  0
    5.4942    9.8924  -20.0312 H   0  0  0  0  0  0
    5.7890    7.8975  -19.9632 H   0  0  0  0  0  0
    8.3460    8.4061  -18.9796 H   0  0  0  0  0  0
    7.9558    7.1435  -20.1961 H   0  0  0  0  0  0
    9.2888    8.3070  -20.5049 H   0  0  0  0  0  0
    5.0647    9.6849  -22.2795 H   0  0  0  0  0  0
    3.2760    8.3831  -22.9860 H   0  0  0  0  0  0
    3.2659    7.7650  -21.2837 H   0  0  0  0  0  0
  1  2  2  0  0  0
  1  3  1  0  0  0
  1 34  1  0  0  0
  2  6  1  0  0  0
  2 35  1  0  0  0
  3  5  2  0  0  0
  3 27  1  0  0  0
  4  5  1  0  0  0
  4  6  2  0  0  0
  4 18  1  0  0  0
  5 24  1  0  0  0
  6 10  1  0  0  0
  7 10  2  0  0  0
  7 23  1  0  0  0
  7 33  1  0  0  0
  8 21  1  0  0  0
  8 22  1  0  0  0
  8 36  1  0  0  0
  8 37  1  0  0  0
  9 21  1  0  0  0
  9 31  1  0  0  0
  9 38  1  0  0  0
  9 39  1  0  0  0
 10 40  1  0  0  0
 11 12  1  0  0  0
 11 14  2  0  0  0
 11 15  1  0  0  0
 12 17  1  0  0  0
 12 28  2  0  0  0
 13 28  1  0  0  0
 13 29  2  0  0  0
 13 58  1  0  0  0
 14 29  1  0  0  0
 14 31  1  0  0  0
 15 30  2  0  0  0
 15 41  1  0  0  0
 16 17  2  0  0  0
 16 18  1  0  0  0
 16 30  1  0  0  0
 17 26  1  0  0  0
 18 23  2  0  0  0
 19 20  1  0  0  0
 19 31  1  0  0  0
 19 42  1  0  0  0
 19 43  1  0  0  0
 20 22  1  0  0  0
 20 32  1  0  0  0
 20 44  1  0  0  0
 21 32  1  0  0  0
 21 45  1  0  0  0
 22 46  1  0  0  0
 22 47  1  0  0  0
 23 48  1  0  0  0
 24 25  3  0  0  0
 25 49  1  0  0  0
 32 50  1  0  0  0
 33 51  1  0  0  0
 52 54  1  0  0  0
 52 55  1  0  0  0
 52 56  1  0  0  0
 52 59  1  0  0  0
 53 57  1  0  0  0
 53 58  1  0  0  0
 53 60  1  0  0  0
 54 57  1  0  0  0
 54 61  1  0  0  0
 54 62  1  0  0  0
 55 57  1  0  0  0
 55 63  1  0  0  0
 55 64  1  0  0  0
 56 65  1  0  0  0
 56 66  1  0  0  0
 56 67  1  0  0  0
 57 68  1  0  0  0
 58 69  1  0  0  0
 58 70  1  0  0  0
M  CHG  1  52   1
M  END
> <s_m_entry_id>
143

> <s_m_entry_name>
000000143.1

> <s_m_Source_Path>
/Users/zaksoul/Documents/2

> <s_m_Source_File>
000000143.mol2

> <i_m_Source_File_Index>
1

$$$$
No_0_154
                    3D
 Schrodinger Suite 2022-4.
 70 76  0  0  1  0            999 V2000
   -5.2360    3.4190  -22.0370 C   0  0  0  0  0  0
   -5.4840    3.6030  -23.3760 C   0  0  0  0  0  0
   -3.9950    3.2130  -21.6740 C   0  0  0  0  0  0
   -3.0700    3.3820  -23.8220 C   0  0  0  0  0  0
   -2.9260    3.1380  -22.4000 C   0  0  0  0  0  0
   -4.4160    3.5940  -24.3670 C   0  0  0  0  0  0
   -3.6220    3.6540  -26.5510 C   0  0  0  0  0  0
    6.0290    3.2730  -21.1070 C   0  0  0  0  0  0
    5.9320    3.4200  -23.6580 C   0  0  0  0  0  0
   -4.6480    3.7170  -25.7070 C   0  0  0  0  0  0
    2.1300    3.8220  -23.7440 C   0  0  0  0  0  0
    1.2620    4.8970  -23.4570 C   0  0  0  0  0  0
    3.0000    6.1580  -22.7400 C   0  0  0  0  0  0
    3.5160    4.0650  -23.4050 C   0  0  0  0  0  0
    1.6400    2.6880  -24.4190 C   0  0  0  0  0  0
   -0.5190    3.4180  -24.3460 C   0  0  0  0  0  0
   -0.0510    4.6550  -23.7330 C   0  0  0  0  0  0
   -1.9640    3.3700  -24.7270 C   0  0  0  0  0  0
    4.2120    1.5920  -23.1100 C   0  0  0  0  0  0
    5.1370    1.2670  -21.9470 C   0  0  2  0  0  0
    6.6790    2.8700  -22.4490 C   0  0  2  0  0  0
    5.0590    2.2620  -20.7770 C   0  0  0  0  0  0
   -2.2690    3.5220  -26.1610 C   0  0  0  0  0  0
   -1.5780    2.7740  -21.7770 C   0  0  0  0  0  0
   -0.5440    2.4640  -21.2540 C   0  0  0  0  0  0
   -0.9390    5.6660  -23.4010 F   0  0  0  0  0  0
   -3.8010    2.9730  -20.2890 F   0  0  0  0  0  0
    1.6840    6.0720  -22.9130 N   0  0  0  0  0  0
    3.9360    5.2320  -22.9460 N   0  0  0  0  0  0
    0.3430    2.5490  -24.7490 N   0  0  0  0  0  0
    4.4770    3.0540  -23.5680 N   0  0  0  0  0  0
    6.5490    1.3900  -22.4030 N   0  0  1  0  0  0
   -3.7700    3.6680  -27.9430 O   0  0  0  0  0  0
   -6.0531    3.4491  -21.3253 H   0  0  0  0  0  0
   -6.4988    3.7604  -23.7230 H   0  0  0  0  0  0
    5.5225    4.2426  -21.2220 H   0  0  0  0  0  0
    6.8003    3.3104  -20.3236 H   0  0  0  0  0  0
    6.3606    2.9954  -24.5778 H   0  0  0  0  0  0
    6.0339    4.5149  -23.6852 H   0  0  0  0  0  0
   -5.6582    3.8646  -26.0715 H   0  0  0  0  0  0
    2.3153    1.8852  -24.6919 H   0  0  0  0  0  0
    3.1659    1.4942  -22.7842 H   0  0  0  0  0  0
    4.4158    0.9038  -23.9435 H   0  0  0  0  0  0
    4.9452    0.2455  -21.5867 H   0  0  0  0  0  0
    7.7374    3.1686  -22.4742 H   0  0  0  0  0  0
    4.0570    2.7151  -20.7508 H   0  0  0  0  0  0
    5.3618    1.7563  -19.8483 H   0  0  0  0  0  0
   -1.4847    3.5351  -26.9092 H   0  0  0  0  0  0
    0.3656    2.1911  -20.7922 H   0  0  0  0  0  0
    7.2026    0.9151  -21.6863 H   0  0  0  0  0  0
   -2.9149    3.6136  -28.3533 H   0  0  0  0  0  0
    7.2950    9.2860  -21.2320 N   0  3  1  0  0  0
    4.9410    7.5980  -22.5260 N   0  0  1  0  0  0
    6.8750    9.1580  -22.6620 C   0  0  0  0  0  0
    5.9620    8.9380  -20.6470 C   0  0  0  0  0  0
    8.4400    8.4050  -20.8170 C   0  0  0  0  0  0
    5.4520    8.9100  -22.1090 C   0  0  2  0  0  0
    3.4980    7.5160  -22.2570 C   0  0  0  0  0  0
    7.5150   10.2481  -21.0270 H   0  0  0  0  0  0
    5.1139    7.4631  -23.5835 H   0  0  0  0  0  0
    7.2522    8.1895  -23.0222 H   0  0  0  0  0  0
    6.8810   10.1718  -23.0889 H   0  0  0  0  0  0
    5.5650    9.8550  -20.1870 H   0  0  0  0  0  0
    6.0230    7.8930  -20.3090 H   0  0  0  0  0  0
    8.6679    8.5749  -19.7544 H   0  0  0  0  0  0
    8.1651    7.3505  -20.9669 H   0  0  0  0  0  0
    9.3260    8.6430  -21.4240 H   0  0  0  0  0  0
    4.7562    9.7318  -22.3339 H   0  0  0  0  0  0
    2.9777    8.3145  -22.8063 H   0  0  0  0  0  0
    3.3220    7.6070  -21.1750 H   0  0  0  0  0  0
  1  2  2  0  0  0
  1  3  1  0  0  0
  1 34  1  0  0  0
  2  6  1  0  0  0
  2 35  1  0  0  0
  3  5  2  0  0  0
  3 27  1  0  0  0
  4  5  1  0  0  0
  4  6  2  0  0  0
  4 18  1  0  0  0
  5 24  1  0  0  0
  6 10  1  0  0  0
  7 10  2  0  0  0
  7 23  1  0  0  0
  7 33  1  0  0  0
  8 21  1  0  0  0
  8 22  1  0  0  0
  8 36  1  0  0  0
  8 37  1  0  0  0
  9 21  1  0  0  0
  9 31  1  0  0  0
  9 38  1  0  0  0
  9 39  1  0  0  0
 10 40  1  0  0  0
 11 12  1  0  0  0
 11 14  2  0  0  0
 11 15  1  0  0  0
 12 17  1  0  0  0
 12 28  2  0  0  0
 13 28  1  0  0  0
 13 29  2  0  0  0
 13 58  1  0  0  0
 14 29  1  0  0  0
 14 31  1  0  0  0
 15 30  2  0  0  0
 15 41  1  0  0  0
 16 17  2  0  0  0
 16 18  1  0  0  0
 16 30  1  0  0  0
 17 26  1  0  0  0
 18 23  2  0  0  0
 19 20  1  0  0  0
 19 31  1  0  0  0
 19 42  1  0  0  0
 19 43  1  0  0  0
 20 22  1  0  0  0
 20 32  1  0  0  0
 20 44  1  0  0  0
 21 32  1  0  0  0
 21 45  1  0  0  0
 22 46  1  0  0  0
 22 47  1  0  0  0
 23 48  1  0  0  0
 24 25  3  0  0  0
 25 49  1  0  0  0
 32 50  1  0  0  0
 33 51  1  0  0  0
 52 54  1  0  0  0
 52 55  1  0  0  0
 52 56  1  0  0  0
 52 59  1  0  0  0
 53 57  1  0  0  0
 53 58  1  0  0  0
 53 60  1  0  0  0
 54 57  1  0  0  0
 54 61  1  0  0  0
 54 62  1  0  0  0
 55 57  1  0  0  0
 55 63  1  0  0  0
 55 64  1  0  0  0
 56 65  1  0  0  0
 56 66  1  0  0  0
 56 67  1  0  0  0
 57 68  1  0  0  0
 58 69  1  0  0  0
 58 70  1  0  0  0
M  CHG  1  52   1
M  END
> <s_m_entry_id>
144

> <s_m_entry_name>
000000144.1

> <s_m_Source_Path>
/Users/zaksoul/Documents/2

> <s_m_Source_File>
000000144.mol2

> <i_m_Source_File_Index>
1

$$$$
No_0_155
                    3D
 Schrodinger Suite 2022-4.
 70 76  0  0  1  0            999 V2000
   -5.1550    3.4730  -22.0170 C   0  0  0  0  0  0
   -5.4000    3.6570  -23.3580 C   0  0  0  0  0  0
   -3.9170    3.2610  -21.6510 C   0  0  0  0  0  0
   -2.9850    3.4240  -23.7980 C   0  0  0  0  0  0
   -2.8460    3.1810  -22.3750 C   0  0  0  0  0  0
   -4.3300    3.6430  -24.3460 C   0  0  0  0  0  0
   -3.5300    3.6970  -26.5280 C   0  0  0  0  0  0
    6.1070    3.2740  -21.0620 C   0  0  0  0  0  0
    6.0160    3.4200  -23.6130 C   0  0  0  0  0  0
   -4.5570    3.7660  -25.6860 C   0  0  0  0  0  0
    2.2160    3.8400  -23.7080 C   0  0  0  0  0  0
    1.3520    4.9190  -23.4240 C   0  0  0  0  0  0
    3.0950    6.1730  -22.7030 C   0  0  0  0  0  0
    3.6030    4.0770  -23.3660 C   0  0  0  0  0  0
    1.7220    2.7070  -24.3840 C   0  0  0  0  0  0
   -0.4330    3.4480  -24.3160 C   0  0  0  0  0  0
    0.0390    4.6840  -23.7030 C   0  0  0  0  0  0
   -1.8780    3.4060  -24.7000 C   0  0  0  0  0  0
    4.2860    1.6000  -23.0670 C   0  0  0  0  0  0
    5.2070    1.2720  -21.9020 C   0  0  2  0  0  0
    6.7580    2.8680  -22.4020 C   0  0  2  0  0  0
    5.1310    2.2690  -20.7330 C   0  0  0  0  0  0
   -2.1790    3.5590  -26.1340 C   0  0  0  0  0  0
   -1.5010    2.8110  -21.7490 C   0  0  0  0  0  0
   -0.4700    2.4970  -21.2230 C   0  0  0  0  0  0
   -0.8440    5.6990  -23.3730 F   0  0  0  0  0  0
   -3.7270    3.0210  -20.2660 F   0  0  0  0  0  0
    1.7790    6.0920  -22.8790 N   0  0  0  0  0  0
    4.0270    5.2420  -22.9070 N   0  0  0  0  0  0
    0.4260    2.5750  -24.7160 N   0  0  0  0  0  0
    4.5590    3.0610  -23.5260 N   0  0  0  0  0  0
    6.6210    1.3880  -22.3550 N   0  0  1  0  0  0
   -3.6740    3.7100  -27.9210 O   0  0  0  0  0  0
   -5.9739    3.5071  -21.3075 H   0  0  0  0  0  0
   -6.4137    3.8186  -23.7063 H   0  0  0  0  0  0
    5.6058    4.2462  -21.1790 H   0  0  0  0  0  0
    6.8763    3.3093  -20.2766 H   0  0  0  0  0  0
    6.4448    2.9922  -24.5312 H   0  0  0  0  0  0
    6.1229    4.5145  -23.6402 H   0  0  0  0  0  0
   -5.5659    3.9176  -26.0524 H   0  0  0  0  0  0
    2.3946    1.9009  -24.6540 H   0  0  0  0  0  0
    3.2386    1.5072  -22.7441 H   0  0  0  0  0  0
    4.4889    0.9106  -23.8998 H   0  0  0  0  0  0
    5.0092    0.2517  -21.5417 H   0  0  0  0  0  0
    7.8181    3.1608  -22.4252 H   0  0  0  0  0  0
    4.1308    2.7262  -20.7088 H   0  0  0  0  0  0
    5.4297    1.7623  -19.8035 H   0  0  0  0  0  0
   -1.3932    3.5680  -26.8807 H   0  0  0  0  0  0
    0.4375    2.2202  -20.7593 H   0  0  0  0  0  0
    7.2702    0.9100  -21.6363 H   0  0  0  0  0  0
   -2.8179    3.6516  -28.3287 H   0  0  0  0  0  0
    7.4010    9.5400  -21.9150 N   0  3  1  0  0  0
    4.9310    7.7560  -22.7980 N   0  0  1  0  0  0
    6.6710    9.4840  -23.2190 C   0  0  0  0  0  0
    6.2660    9.0340  -21.0800 C   0  0  0  0  0  0
    8.6680    8.7330  -21.8510 C   0  0  0  0  0  0
    5.4350    9.0720  -22.3860 C   0  0  2  0  0  0
    3.5990    7.5290  -22.2200 C   0  0  0  0  0  0
    7.5971   10.4994  -21.6759 H   0  0  0  0  0  0
    4.8631    7.7170  -23.8752 H   0  0  0  0  0  0
    7.0194    8.5821  -23.7435 H   0  0  0  0  0  0
    6.5091   10.5236  -23.5399 H   0  0  0  0  0  0
    5.9260    9.8759  -20.4591 H   0  0  0  0  0  0
    6.4740    7.9759  -20.8630 H   0  0  0  0  0  0
    9.1232    8.8430  -20.8556 H   0  0  0  0  0  0
    8.4380    7.6730  -22.0340 H   0  0  0  0  0  0
    9.3708    9.0929  -22.6168 H   0  0  0  0  0  0
    4.6523    9.8447  -22.3710 H   0  0  0  0  0  0
    2.9124    8.3175  -22.5618 H   0  0  0  0  0  0
    3.6720    7.5220  -21.1224 H   0  0  0  0  0  0
  1  2  2  0  0  0
  1  3  1  0  0  0
  1 34  1  0  0  0
  2  6  1  0  0  0
  2 35  1  0  0  0
  3  5  2  0  0  0
  3 27  1  0  0  0
  4  5  1  0  0  0
  4  6  2  0  0  0
  4 18  1  0  0  0
  5 24  1  0  0  0
  6 10  1  0  0  0
  7 10  2  0  0  0
  7 23  1  0  0  0
  7 33  1  0  0  0
  8 21  1  0  0  0
  8 22  1  0  0  0
  8 36  1  0  0  0
  8 37  1  0  0  0
  9 21  1  0  0  0
  9 31  1  0  0  0
  9 38  1  0  0  0
  9 39  1  0  0  0
 10 40  1  0  0  0
 11 12  1  0  0  0
 11 14  2  0  0  0
 11 15  1  0  0  0
 12 17  1  0  0  0
 12 28  2  0  0  0
 13 28  1  0  0  0
 13 29  2  0  0  0
 13 58  1  0  0  0
 14 29  1  0  0  0
 14 31  1  0  0  0
 15 30  2  0  0  0
 15 41  1  0  0  0
 16 17  2  0  0  0
 16 18  1  0  0  0
 16 30  1  0  0  0
 17 26  1  0  0  0
 18 23  2  0  0  0
 19 20  1  0  0  0
 19 31  1  0  0  0
 19 42  1  0  0  0
 19 43  1  0  0  0
 20 22  1  0  0  0
 20 32  1  0  0  0
 20 44  1  0  0  0
 21 32  1  0  0  0
 21 45  1  0  0  0
 22 46  1  0  0  0
 22 47  1  0  0  0
 23 48  1  0  0  0
 24 25  3  0  0  0
 25 49  1  0  0  0
 32 50  1  0  0  0
 33 51  1  0  0  0
 52 54  1  0  0  0
 52 55  1  0  0  0
 52 56  1  0  0  0
 52 59  1  0  0  0
 53 57  1  0  0  0
 53 58  1  0  0  0
 53 60  1  0  0  0
 54 57  1  0  0  0
 54 61  1  0  0  0
 54 62  1  0  0  0
 55 57  1  0  0  0
 55 63  1  0  0  0
 55 64  1  0  0  0
 56 65  1  0  0  0
 56 66  1  0  0  0
 56 67  1  0  0  0
 57 68  1  0  0  0
 58 69  1  0  0  0
 58 70  1  0  0  0
M  CHG  1  52   1
M  END
> <s_m_entry_id>
145

> <s_m_entry_name>
000000145.1

> <s_m_Source_Path>
/Users/zaksoul/Documents/2

> <s_m_Source_File>
000000145.mol2

> <i_m_Source_File_Index>
1

$$$$
No_0_156
                    3D
 Schrodinger Suite 2022-4.
 70 76  0  0  1  0            999 V2000
   -5.4030    3.3460  -21.6530 C   0  0  0  0  0  0
   -5.6480    3.5650  -22.9880 C   0  0  0  0  0  0
   -4.1700    3.0920  -21.2970 C   0  0  0  0  0  0
   -3.2420    3.2750  -23.4440 C   0  0  0  0  0  0
   -3.1040    2.9970  -22.0270 C   0  0  0  0  0  0
   -4.5820    3.5420  -23.9810 C   0  0  0  0  0  0
   -3.7900    3.6200  -26.1650 C   0  0  0  0  0  0
    5.8520    2.8150  -20.7530 C   0  0  0  0  0  0
    5.7560    3.0170  -23.3000 C   0  0  0  0  0  0
   -4.8120    3.7000  -25.3180 C   0  0  0  0  0  0
    1.9690    3.5440  -23.3690 C   0  0  0  0  0  0
    1.1370    4.6410  -23.0580 C   0  0  0  0  0  0
    2.9160    5.8300  -22.3200 C   0  0  0  0  0  0
    3.3630    3.7350  -23.0280 C   0  0  0  0  0  0
    1.4410    2.4400  -24.0660 C   0  0  0  0  0  0
   -0.6930    3.2390  -23.9730 C   0  0  0  0  0  0
   -0.1840    4.4470  -23.3360 C   0  0  0  0  0  0
   -2.1400    3.2450  -24.3520 C   0  0  0  0  0  0
    3.9780    1.2340  -22.7850 C   0  0  0  0  0  0
    4.8940    0.8570  -21.6310 C   0  0  2  0  0  0
    6.4870    2.4180  -22.1040 C   0  0  2  0  0  0
    4.8510    1.8300  -20.4410 C   0  0  0  0  0  0
   -2.4420    3.4370  -25.7810 C   0  0  0  0  0  0
   -1.7680    2.5780  -21.4150 C   0  0  0  0  0  0
   -0.7440    2.2240  -20.9000 C   0  0  0  0  0  0
   -1.0370    5.4790  -22.9820 F   0  0  0  0  0  0
   -3.9810    2.8180  -19.9180 F   0  0  0  0  0  0
    1.5980    5.7890  -22.4910 N   0  0  0  0  0  0
    3.8220    4.8780  -22.5470 N   0  0  0  0  0  0
    0.1400    2.3500  -24.3960 N   0  0  0  0  0  0
    4.2900    2.6970  -23.2140 N   0  0  0  0  0  0
    6.3090    0.9430  -22.0870 N   0  0  1  0  0  0
   -3.9390    3.6670  -27.5570 O   0  0  0  0  0  0
   -6.2179    3.3882  -20.9394 H   0  0  0  0  0  0
   -6.6577    3.7627  -23.3293 H   0  0  0  0  0  0
    5.3777    3.8030  -20.8469 H   0  0  0  0  0  0
    6.6248    2.8110  -19.9702 H   0  0  0  0  0  0
    6.1685    2.5964  -24.2289 H   0  0  0  0  0  0
    5.8933    4.1084  -23.3050 H   0  0  0  0  0  0
   -5.8176    3.8879  -25.6766 H   0  0  0  0  0  0
    2.0893    1.6211  -24.3560 H   0  0  0  0  0  0
    2.9300    1.1644  -22.4582 H   0  0  0  0  0  0
    4.1587    0.5568  -23.6328 H   0  0  0  0  0  0
    4.6701   -0.1649  -21.2910 H   0  0  0  0  0  0
    7.5545    2.6824  -22.1262 H   0  0  0  0  0  0
    3.8641    2.3144  -20.4027 H   0  0  0  0  0  0
    5.1387    1.2960  -19.5234 H   0  0  0  0  0  0
   -1.6591    3.4390  -26.5308 H   0  0  0  0  0  0
    0.1573    1.9119  -20.4468 H   0  0  0  0  0  0
    6.9477    0.4316  -21.3820 H   0  0  0  0  0  0
   -3.0865    3.5937  -27.9699 H   0  0  0  0  0  0
    7.1860    9.3200  -22.0230 N   0  3  1  0  0  0
    4.6500    7.5020  -22.6010 N   0  0  1  0  0  0
    6.2240    9.3450  -23.1690 C   0  0  0  0  0  0
    6.2460    8.6880  -21.0450 C   0  0  0  0  0  0
    8.4660    8.5740  -22.2730 C   0  0  0  0  0  0
    5.1820    8.8010  -22.1640 C   0  0  2  0  0  0
    3.4590    7.1610  -21.8100 C   0  0  0  0  0  0
    7.3930   10.2632  -21.7339 H   0  0  0  0  0  0
    4.3820    7.5560  -23.6458 H   0  0  0  0  0  0
    6.4950    8.5110  -23.8330 H   0  0  0  0  0  0
    5.9718   10.3998  -23.3531 H   0  0  0  0  0  0
    6.0030    9.4541  -20.2939 H   0  0  0  0  0  0
    6.5240    7.6261  -20.9730 H   0  0  0  0  0  0
    9.0981    8.6170  -21.3738 H   0  0  0  0  0  0
    8.2391    7.5245  -22.5119 H   0  0  0  0  0  0
    8.9998    9.0339  -23.1177 H   0  0  0  0  0  0
    4.3915    9.5296  -21.9311 H   0  0  0  0  0  0
    2.6958    7.9422  -21.9410 H   0  0  0  0  0  0
    3.7390    7.0610  -20.7509 H   0  0  0  0  0  0
  1  2  2  0  0  0
  1  3  1  0  0  0
  1 34  1  0  0  0
  2  6  1  0  0  0
  2 35  1  0  0  0
  3  5  2  0  0  0
  3 27  1  0  0  0
  4  5  1  0  0  0
  4  6  2  0  0  0
  4 18  1  0  0  0
  5 24  1  0  0  0
  6 10  1  0  0  0
  7 10  2  0  0  0
  7 23  1  0  0  0
  7 33  1  0  0  0
  8 21  1  0  0  0
  8 22  1  0  0  0
  8 36  1  0  0  0
  8 37  1  0  0  0
  9 21  1  0  0  0
  9 31  1  0  0  0
  9 38  1  0  0  0
  9 39  1  0  0  0
 10 40  1  0  0  0
 11 12  1  0  0  0
 11 14  2  0  0  0
 11 15  1  0  0  0
 12 17  1  0  0  0
 12 28  2  0  0  0
 13 28  1  0  0  0
 13 29  2  0  0  0
 13 58  1  0  0  0
 14 29  1  0  0  0
 14 31  1  0  0  0
 15 30  2  0  0  0
 15 41  1  0  0  0
 16 17  2  0  0  0
 16 18  1  0  0  0
 16 30  1  0  0  0
 17 26  1  0  0  0
 18 23  2  0  0  0
 19 20  1  0  0  0
 19 31  1  0  0  0
 19 42  1  0  0  0
 19 43  1  0  0  0
 20 22  1  0  0  0
 20 32  1  0  0  0
 20 44  1  0  0  0
 21 32  1  0  0  0
 21 45  1  0  0  0
 22 46  1  0  0  0
 22 47  1  0  0  0
 23 48  1  0  0  0
 24 25  3  0  0  0
 25 49  1  0  0  0
 32 50  1  0  0  0
 33 51  1  0  0  0
 52 54  1  0  0  0
 52 55  1  0  0  0
 52 56  1  0  0  0
 52 59  1  0  0  0
 53 57  1  0  0  0
 53 58  1  0  0  0
 53 60  1  0  0  0
 54 57  1  0  0  0
 54 61  1  0  0  0
 54 62  1  0  0  0
 55 57  1  0  0  0
 55 63  1  0  0  0
 55 64  1  0  0  0
 56 65  1  0  0  0
 56 66  1  0  0  0
 56 67  1  0  0  0
 57 68  1  0  0  0
 58 69  1  0  0  0
 58 70  1  0  0  0
M  CHG  1  52   1
M  END
> <s_m_entry_id>
146

> <s_m_entry_name>
000000146.1

> <s_m_Source_Path>
/Users/zaksoul/Documents/2

> <s_m_Source_File>
000000146.mol2

> <i_m_Source_File_Index>
1

$$$$
No_0_157
                    3D
 Schrodinger Suite 2022-4.
 65 71  0  0  1  0            999 V2000
   -5.3030    3.3900  -22.3970 C   0  0  0  0  0  0
   -5.5470    3.5080  -23.7450 C   0  0  0  0  0  0
   -4.0640    3.1960  -22.0210 C   0  0  0  0  0  0
   -3.1320    3.2560  -24.1720 C   0  0  0  0  0  0
   -2.9930    3.0820  -22.7390 C   0  0  0  0  0  0
   -4.4760    3.4470  -24.7310 C   0  0  0  0  0  0
   -3.6760    3.3960  -26.9130 C   0  0  0  0  0  0
    5.9590    3.2440  -21.4290 C   0  0  0  0  0  0
    5.8700    3.2660  -23.9850 C   0  0  0  0  0  0
   -4.7030    3.5050  -26.0750 C   0  0  0  0  0  0
    2.0700    3.6790  -24.1010 C   0  0  0  0  0  0
    1.2050    4.7700  -23.8700 C   0  0  0  0  0  0
    2.9460    6.0580  -23.2100 C   0  0  0  0  0  0
    3.4560    3.9330  -23.7700 C   0  0  0  0  0  0
    1.5760    2.5140  -24.7210 C   0  0  0  0  0  0
   -0.5800    3.2560  -24.6900 C   0  0  0  0  0  0
   -0.1080    4.5200  -24.1370 C   0  0  0  0  0  0
   -2.0240    3.1950  -25.0730 C   0  0  0  0  0  0
    4.1400    1.4740  -23.3520 C   0  0  0  0  0  0
    5.0610    1.2030  -22.1720 C   0  0  2  0  0  0
    6.6110    2.7730  -22.7470 C   0  0  2  0  0  0
    4.9840    2.2550  -21.0520 C   0  0  0  0  0  0
   -2.3250    3.2780  -26.5120 C   0  0  0  0  0  0
   -1.6480    2.7440  -22.0960 C   0  0  0  0  0  0
   -0.6170    2.4560  -21.5540 C   0  0  0  0  0  0
   -0.9920    5.5490  -23.8580 F   0  0  0  0  0  0
   -3.8750    3.0240  -20.6250 F   0  0  0  0  0  0
    1.6300    5.9680  -23.3830 N   0  0  0  0  0  0
    3.8790    5.1190  -23.3680 N   0  0  0  0  0  0
    0.2800    2.3650  -25.0470 N   0  0  0  0  0  0
    4.4130    2.9110  -23.8810 N   0  0  0  0  0  0
    6.4750    1.2980  -22.6290 N   0  0  1  0  0  0
   -3.8190    3.3410  -28.3050 O   0  0  0  0  0  0
   -6.1217    3.4573  -21.6898 H   0  0  0  0  0  0
   -6.5604    3.6526  -24.1016 H   0  0  0  0  0  0
    5.4573    4.2090  -21.5935 H   0  0  0  0  0  0
    6.7280    3.3167  -20.6458 H   0  0  0  0  0  0
    6.2991    2.7945  -24.8815 H   0  0  0  0  0  0
    5.9760    4.3580  -24.0647 H   0  0  0  0  0  0
   -5.7115    3.6385  -26.4493 H   0  0  0  0  0  0
    2.2492    1.6963  -24.9518 H   0  0  0  0  0  0
    3.0930    1.3963  -23.0239 H   0  0  0  0  0  0
    4.3438    0.7447  -24.1499 H   0  0  0  0  0  0
    4.8641    0.2014  -21.7621 H   0  0  0  0  0  0
    7.6707    3.0657  -22.7843 H   0  0  0  0  0  0
    3.9836    2.7123  -21.0510 H   0  0  0  0  0  0
    5.2820    1.7944  -20.0985 H   0  0  0  0  0  0
   -1.5394    3.2509  -27.2584 H   0  0  0  0  0  0
    0.2908    2.2020  -21.0781 H   0  0  0  0  0  0
    7.1241    0.8553  -21.8880 H   0  0  0  0  0  0
   -2.9626    3.2638  -28.7089 H   0  0  0  0  0  0
    4.4300    7.3480  -21.7000 N   0  0  0  0  0  0
    5.0140    9.6670  -21.8660 N   0  0  0  0  0  0
    6.5340    9.7790  -20.2050 N   0  0  0  0  0  0
    3.4490    7.4360  -22.7930 C   0  0  0  0  0  0
    5.1150    8.4390  -21.3220 C   0  0  0  0  0  0
    5.8670   10.4380  -21.1820 C   0  0  0  0  0  0
    6.0940    8.5350  -20.2640 C   0  0  0  0  0  0
    4.5899    6.4485  -21.2243 H   0  0  0  0  0  0
    4.3652    9.8320  -22.6488 H   0  0  0  0  0  0
    7.2161   10.2800  -19.6179 H   0  0  0  0  0  0
    3.9097    7.9347  -23.6585 H   0  0  0  0  0  0
    2.5981    8.0549  -22.4721 H   0  0  0  0  0  0
    5.9710   11.4874  -21.4331 H   0  0  0  0  0  0
    6.4790    7.7901  -19.5770 H   0  0  0  0  0  0
  1  2  2  0  0  0
  1  3  1  0  0  0
  1 34  1  0  0  0
  2  6  1  0  0  0
  2 35  1  0  0  0
  3  5  2  0  0  0
  3 27  1  0  0  0
  4  5  1  0  0  0
  4  6  2  0  0  0
  4 18  1  0  0  0
  5 24  1  0  0  0
  6 10  1  0  0  0
  7 10  2  0  0  0
  7 23  1  0  0  0
  7 33  1  0  0  0
  8 21  1  0  0  0
  8 22  1  0  0  0
  8 36  1  0  0  0
  8 37  1  0  0  0
  9 21  1  0  0  0
  9 31  1  0  0  0
  9 38  1  0  0  0
  9 39  1  0  0  0
 10 40  1  0  0  0
 11 12  2  0  0  0
 11 14  1  0  0  0
 11 15  1  0  0  0
 12 17  1  0  0  0
 12 28  1  0  0  0
 13 28  2  0  0  0
 13 29  1  0  0  0
 13 55  1  0  0  0
 14 29  2  0  0  0
 14 31  1  0  0  0
 15 30  2  0  0  0
 15 41  1  0  0  0
 16 17  2  0  0  0
 16 18  1  0  0  0
 16 30  1  0  0  0
 17 26  1  0  0  0
 18 23  2  0  0  0
 19 20  1  0  0  0
 19 31  1  0  0  0
 19 42  1  0  0  0
 19 43  1  0  0  0
 20 22  1  0  0  0
 20 32  1  0  0  0
 20 44  1  0  0  0
 21 32  1  0  0  0
 21 45  1  0  0  0
 22 46  1  0  0  0
 22 47  1  0  0  0
 23 48  1  0  0  0
 24 25  3  0  0  0
 25 49  1  0  0  0
 32 50  1  0  0  0
 33 51  1  0  0  0
 52 55  1  0  0  0
 52 56  1  0  0  0
 52 59  1  0  0  0
 53 56  1  0  0  0
 53 57  1  0  0  0
 53 60  1  0  0  0
 54 57  1  0  0  0
 54 58  1  0  0  0
 54 61  1  0  0  0
 55 62  1  0  0  0
 55 63  1  0  0  0
 56 58  2  0  0  0
 57 64  1  0  0  0
 58 65  1  0  0  0
M  END
> <s_m_entry_id>
147

> <s_m_entry_name>
000000147.1

> <s_m_Source_Path>
/Users/zaksoul/Documents/2

> <s_m_Source_File>
000000147.mol2

> <i_m_Source_File_Index>
1

$$$$
No_0_158
                    3D
 Schrodinger Suite 2022-4.
 65 71  0  0  1  0            999 V2000
   -5.3210    3.2450  -22.0620 C   0  0  0  0  0  0
   -5.5650    3.4290  -23.4020 C   0  0  0  0  0  0
   -4.0820    3.0320  -21.6950 C   0  0  0  0  0  0
   -3.1510    3.1950  -23.8420 C   0  0  0  0  0  0
   -3.0120    2.9520  -22.4190 C   0  0  0  0  0  0
   -4.4950    3.4140  -24.3900 C   0  0  0  0  0  0
   -3.6950    3.4680  -26.5720 C   0  0  0  0  0  0
    5.9410    3.0420  -21.1050 C   0  0  0  0  0  0
    5.8510    3.1870  -23.6570 C   0  0  0  0  0  0
   -4.7220    3.5370  -25.7300 C   0  0  0  0  0  0
    2.0510    3.6090  -23.7520 C   0  0  0  0  0  0
    1.1880    4.6880  -23.4680 C   0  0  0  0  0  0
    2.9300    5.9410  -22.7470 C   0  0  0  0  0  0
    3.4370    3.8450  -23.4090 C   0  0  0  0  0  0
    1.5560    2.4760  -24.4270 C   0  0  0  0  0  0
   -0.5990    3.2180  -24.3590 C   0  0  0  0  0  0
   -0.1260    4.4530  -23.7470 C   0  0  0  0  0  0
   -2.0430    3.1770  -24.7440 C   0  0  0  0  0  0
    4.1200    1.3680  -23.1100 C   0  0  0  0  0  0
    5.0410    1.0400  -21.9450 C   0  0  2  0  0  0
    6.5920    2.6340  -22.4450 C   0  0  2  0  0  0
    4.9650    2.0370  -20.7760 C   0  0  0  0  0  0
   -2.3440    3.3290  -26.1780 C   0  0  0  0  0  0
   -1.6670    2.5810  -21.7930 C   0  0  0  0  0  0
   -0.6360    2.2670  -21.2660 C   0  0  0  0  0  0
   -1.0090    5.4690  -23.4170 F   0  0  0  0  0  0
   -3.8930    2.7930  -20.3100 F   0  0  0  0  0  0
    1.6140    5.8610  -22.9230 N   0  0  0  0  0  0
    3.8630    5.0100  -22.9510 N   0  0  0  0  0  0
    0.2600    2.3440  -24.7600 N   0  0  0  0  0  0
    4.3940    2.8290  -23.5690 N   0  0  0  0  0  0
    6.4540    1.1550  -22.3980 N   0  0  1  0  0  0
   -3.8390    3.4810  -27.9650 O   0  0  0  0  0  0
   -6.1389    3.2791  -21.3515 H   0  0  0  0  0  0
   -6.5784    3.5905  -23.7512 H   0  0  0  0  0  0
    5.4394    4.0139  -21.2221 H   0  0  0  0  0  0
    6.7103    3.0763  -20.3195 H   0  0  0  0  0  0
    6.2793    2.7587  -24.5752 H   0  0  0  0  0  0
    5.9579    4.2815  -23.6842 H   0  0  0  0  0  0
   -5.7304    3.6895  -26.0972 H   0  0  0  0  0  0
    2.2284    1.6701  -24.6980 H   0  0  0  0  0  0
    3.0725    1.2762  -22.7871 H   0  0  0  0  0  0
    4.3229    0.6786  -23.9428 H   0  0  0  0  0  0
    4.8423    0.0202  -21.5839 H   0  0  0  0  0  0
    7.6519    2.9275  -22.4682 H   0  0  0  0  0  0
    3.9648    2.4942  -20.7528 H   0  0  0  0  0  0
    5.2628    1.5302  -19.8462 H   0  0  0  0  0  0
   -1.5582    3.3380  -26.9247 H   0  0  0  0  0  0
    0.2716    1.9898  -20.8027 H   0  0  0  0  0  0
    7.1032    0.6770  -21.6793 H   0  0  0  0  0  0
   -2.9829    3.4226  -28.3727 H   0  0  0  0  0  0
    4.8140    7.2140  -21.7590 N   0  0  0  0  0  0
    5.0290    9.5960  -21.5870 N   0  0  0  0  0  0
    7.1280    9.7130  -20.7720 N   0  0  0  0  0  0
    3.4350    7.2970  -22.2640 C   0  0  0  0  0  0
    5.4880    8.3360  -21.4590 C   0  0  0  0  0  0
    6.0240   10.3880  -21.1710 C   0  0  0  0  0  0
    6.8320    8.4370  -20.9380 C   0  0  0  0  0  0
    5.2621    6.2949  -21.6350 H   0  0  0  0  0  0
    4.0787    9.7640  -21.9471 H   0  0  0  0  0  0
    7.9527   10.2288  -20.4331 H   0  0  0  0  0  0
    3.3910    8.0199  -23.0919 H   0  0  0  0  0  0
    2.7745    7.6703  -21.4675 H   0  0  0  0  0  0
    5.8980   11.4646  -21.1770 H   0  0  0  0  0  0
    7.5610    7.6740  -20.6900 H   0  0  0  0  0  0
  1  2  2  0  0  0
  1  3  1  0  0  0
  1 34  1  0  0  0
  2  6  1  0  0  0
  2 35  1  0  0  0
  3  5  2  0  0  0
  3 27  1  0  0  0
  4  5  1  0  0  0
  4  6  2  0  0  0
  4 18  1  0  0  0
  5 24  1  0  0  0
  6 10  1  0  0  0
  7 10  2  0  0  0
  7 23  1  0  0  0
  7 33  1  0  0  0
  8 21  1  0  0  0
  8 22  1  0  0  0
  8 36  1  0  0  0
  8 37  1  0  0  0
  9 21  1  0  0  0
  9 31  1  0  0  0
  9 38  1  0  0  0
  9 39  1  0  0  0
 10 40  1  0  0  0
 11 12  2  0  0  0
 11 14  1  0  0  0
 11 15  1  0  0  0
 12 17  1  0  0  0
 12 28  1  0  0  0
 13 28  2  0  0  0
 13 29  1  0  0  0
 13 55  1  0  0  0
 14 29  2  0  0  0
 14 31  1  0  0  0
 15 30  2  0  0  0
 15 41  1  0  0  0
 16 17  2  0  0  0
 16 18  1  0  0  0
 16 30  1  0  0  0
 17 26  1  0  0  0
 18 23  2  0  0  0
 19 20  1  0  0  0
 19 31  1  0  0  0
 19 42  1  0  0  0
 19 43  1  0  0  0
 20 22  1  0  0  0
 20 32  1  0  0  0
 20 44  1  0  0  0
 21 32  1  0  0  0
 21 45  1  0  0  0
 22 46  1  0  0  0
 22 47  1  0  0  0
 23 48  1  0  0  0
 24 25  3  0  0  0
 25 49  1  0  0  0
 32 50  1  0  0  0
 33 51  1  0  0  0
 52 55  1  0  0  0
 52 56  1  0  0  0
 52 59  1  0  0  0
 53 56  1  0  0  0
 53 57  1  0  0  0
 53 60  1  0  0  0
 54 57  1  0  0  0
 54 58  1  0  0  0
 54 61  1  0  0  0
 55 62  1  0  0  0
 55 63  1  0  0  0
 56 58  2  0  0  0
 57 64  1  0  0  0
 58 65  1  0  0  0
M  END
> <s_m_entry_id>
148

> <s_m_entry_name>
000000148.1

> <s_m_Source_Path>
/Users/zaksoul/Documents/2

> <s_m_Source_File>
000000148.mol2

> <i_m_Source_File_Index>
1

$$$$
No_0_159
                    3D
 Schrodinger Suite 2022-4.
 65 71  0  0  1  0            999 V2000
   -5.3050    3.3190  -22.3290 C   0  0  0  0  0  0
   -5.5130    3.5280  -23.6720 C   0  0  0  0  0  0
   -4.0790    3.0820  -21.9360 C   0  0  0  0  0  0
   -3.0920    3.2670  -24.0560 C   0  0  0  0  0  0
   -2.9910    2.9980  -22.6340 C   0  0  0  0  0  0
   -4.4190    3.5140  -24.6340 C   0  0  0  0  0  0
   -3.5640    3.5930  -26.7940 C   0  0  0  0  0  0
    5.9260    2.9390  -21.0990 C   0  0  0  0  0  0
    5.9010    3.1280  -23.6490 C   0  0  0  0  0  0
   -4.6110    3.6630  -25.9770 C   0  0  0  0  0  0
    2.1110    3.6050  -23.8310 C   0  0  0  0  0  0
    1.2560    4.6920  -23.5500 C   0  0  0  0  0  0
    2.9970    5.9080  -22.7660 C   0  0  0  0  0  0
    3.4920    3.8160  -23.4500 C   0  0  0  0  0  0
    1.6180    2.4910  -24.5380 C   0  0  0  0  0  0
   -0.5280    3.2620  -24.5100 C   0  0  0  0  0  0
   -0.0530    4.4800  -23.8650 C   0  0  0  0  0  0
   -1.9630    3.2480  -24.9310 C   0  0  0  0  0  0
    4.1320    1.3250  -23.1770 C   0  0  0  0  0  0
    5.0190    0.9650  -21.9950 C   0  0  2  0  0  0
    6.6050    2.5450  -22.4290 C   0  0  2  0  0  0
    4.9280    1.9420  -20.8120 C   0  0  0  0  0  0
   -2.2250    3.4290  -26.3690 C   0  0  0  0  0  0
   -1.6680    2.5990  -21.9820 C   0  0  0  0  0  0
   -0.6550    2.2600  -21.4360 C   0  0  0  0  0  0
   -0.9300    5.5030  -23.5410 F   0  0  0  0  0  0
   -3.9270    2.8170  -20.5510 F   0  0  0  0  0  0
    1.6850    5.8500  -22.9750 N   0  0  0  0  0  0
    3.9220    4.9670  -22.9620 N   0  0  0  0  0  0
    0.3290    2.3830  -24.9040 N   0  0  0  0  0  0
    4.4380    2.7890  -23.6040 N   0  0  0  0  0  0
    6.4450    1.0670  -22.4110 N   0  0  1  0  0  0
   -3.6740    3.6310  -28.1900 O   0  0  0  0  0  0
   -6.1405    3.3521  -21.6391 H   0  0  0  0  0  0
   -6.5149    3.7107  -24.0434 H   0  0  0  0  0  0
    5.4415    3.9201  -21.2120 H   0  0  0  0  0  0
    6.6761    2.9491  -20.2944 H   0  0  0  0  0  0
    6.3458    2.7094  -24.5638 H   0  0  0  0  0  0
    6.0241    4.2211  -23.6551 H   0  0  0  0  0  0
   -5.6081    3.8357  -26.3656 H   0  0  0  0  0  0
    2.2856    1.6798  -24.8050 H   0  0  0  0  0  0
    3.0758    1.2422  -22.8811 H   0  0  0  0  0  0
    4.3460    0.6465  -24.0160 H   0  0  0  0  0  0
    4.7980   -0.0582  -21.6570 H   0  0  0  0  0  0
    7.6693    2.8227  -22.4219 H   0  0  0  0  0  0
    3.9343    2.4136  -20.8049 H   0  0  0  0  0  0
    5.1964    1.4163  -19.8838 H   0  0  0  0  0  0
   -1.4214    3.4390  -27.0964 H   0  0  0  0  0  0
    0.2370    1.9630  -20.9550 H   0  0  0  0  0  0
    7.0694    0.5677  -21.6850 H   0  0  0  0  0  0
   -2.8088    3.5676  -28.5771 H   0  0  0  0  0  0
    4.9760    7.3300  -22.3090 N   0  0  0  0  0  0
    4.9950    9.6660  -21.7680 N   0  0  0  0  0  0
    7.2220   10.0210  -21.7740 N   0  0  0  0  0  0
    3.5090    7.2480  -22.2470 C   0  0  0  0  0  0
    5.5950    8.4960  -22.0650 C   0  0  0  0  0  0
    5.9870   10.5490  -21.6010 C   0  0  0  0  0  0
    7.0170    8.7490  -22.0650 C   0  0  0  0  0  0
    5.5289    6.4922  -22.5399 H   0  0  0  0  0  0
    3.9677    9.7190  -21.7150 H   0  0  0  0  0  0
    8.0555   10.6166  -21.6671 H   0  0  0  0  0  0
    3.0712    8.0617  -22.8438 H   0  0  0  0  0  0
    3.1779    7.3891  -21.2076 H   0  0  0  0  0  0
    5.7591   11.5786  -21.3501 H   0  0  0  0  0  0
    7.8597    8.0942  -22.2549 H   0  0  0  0  0  0
  1  2  2  0  0  0
  1  3  1  0  0  0
  1 34  1  0  0  0
  2  6  1  0  0  0
  2 35  1  0  0  0
  3  5  2  0  0  0
  3 27  1  0  0  0
  4  5  1  0  0  0
  4  6  2  0  0  0
  4 18  1  0  0  0
  5 24  1  0  0  0
  6 10  1  0  0  0
  7 10  2  0  0  0
  7 23  1  0  0  0
  7 33  1  0  0  0
  8 21  1  0  0  0
  8 22  1  0  0  0
  8 36  1  0  0  0
  8 37  1  0  0  0
  9 21  1  0  0  0
  9 31  1  0  0  0
  9 38  1  0  0  0
  9 39  1  0  0  0
 10 40  1  0  0  0
 11 12  2  0  0  0
 11 14  1  0  0  0
 11 15  1  0  0  0
 12 17  1  0  0  0
 12 28  1  0  0  0
 13 28  2  0  0  0
 13 29  1  0  0  0
 13 55  1  0  0  0
 14 29  2  0  0  0
 14 31  1  0  0  0
 15 30  2  0  0  0
 15 41  1  0  0  0
 16 17  2  0  0  0
 16 18  1  0  0  0
 16 30  1  0  0  0
 17 26  1  0  0  0
 18 23  2  0  0  0
 19 20  1  0  0  0
 19 31  1  0  0  0
 19 42  1  0  0  0
 19 43  1  0  0  0
 20 22  1  0  0  0
 20 32  1  0  0  0
 20 44  1  0  0  0
 21 32  1  0  0  0
 21 45  1  0  0  0
 22 46  1  0  0  0
 22 47  1  0  0  0
 23 48  1  0  0  0
 24 25  3  0  0  0
 25 49  1  0  0  0
 32 50  1  0  0  0
 33 51  1  0  0  0
 52 55  1  0  0  0
 52 56  1  0  0  0
 52 59  1  0  0  0
 53 56  1  0  0  0
 53 57  1  0  0  0
 53 60  1  0  0  0
 54 57  1  0  0  0
 54 58  1  0  0  0
 54 61  1  0  0  0
 55 62  1  0  0  0
 55 63  1  0  0  0
 56 58  2  0  0  0
 57 64  1  0  0  0
 58 65  1  0  0  0
M  END
> <s_m_entry_id>
149

> <s_m_entry_name>
000000149.1

> <s_m_Source_Path>
/Users/zaksoul/Documents/2

> <s_m_Source_File>
000000149.mol2

> <i_m_Source_File_Index>
1

$$$$
No_0_160
                    3D
 Schrodinger Suite 2022-4.
 65 71  0  0  1  0            999 V2000
   -5.2130    3.2220  -21.9540 C   0  0  0  0  0  0
   -5.4610    3.4240  -23.2910 C   0  0  0  0  0  0
   -3.9750    2.9990  -21.5940 C   0  0  0  0  0  0
   -3.0490    3.1830  -23.7410 C   0  0  0  0  0  0
   -2.9070    2.9220  -22.3220 C   0  0  0  0  0  0
   -4.3940    3.4160  -24.2830 C   0  0  0  0  0  0
   -3.6010    3.4920  -26.4660 C   0  0  0  0  0  0
    6.0500    2.9520  -21.0370 C   0  0  0  0  0  0
    5.9530    3.1290  -23.5860 C   0  0  0  0  0  0
   -4.6250    3.5560  -25.6200 C   0  0  0  0  0  0
    2.1550    3.5700  -23.6640 C   0  0  0  0  0  0
    1.2970    4.6510  -23.3630 C   0  0  0  0  0  0
    3.0490    5.8860  -22.6330 C   0  0  0  0  0  0
    3.5430    3.7960  -23.3230 C   0  0  0  0  0  0
    1.6520    2.4490  -24.3510 C   0  0  0  0  0  0
   -0.4990    3.2000  -24.2670 C   0  0  0  0  0  0
   -0.0180    4.4250  -23.6410 C   0  0  0  0  0  0
   -1.9450    3.1710  -24.6480 C   0  0  0  0  0  0
    4.2140    1.3120  -23.0570 C   0  0  0  0  0  0
    5.1370    0.9650  -21.8990 C   0  0  2  0  0  0
    6.6950    2.5580  -22.3840 C   0  0  2  0  0  0
    5.0700    1.9470  -20.7180 C   0  0  0  0  0  0
   -2.2500    3.3430  -26.0790 C   0  0  0  0  0  0
   -1.5620    2.5370  -21.7050 C   0  0  0  0  0  0
   -0.5310    2.2110  -21.1860 C   0  0  0  0  0  0
   -0.8950    5.4410  -23.2960 F   0  0  0  0  0  0
   -3.7820    2.7410  -20.2120 F   0  0  0  0  0  0
    1.7320    5.8140  -22.8060 N   0  0  0  0  0  0
    3.9760    4.9530  -22.8520 N   0  0  0  0  0  0
    0.3540    2.3270  -24.6810 N   0  0  0  0  0  0
    4.4940    2.7770  -23.4990 N   0  0  0  0  0  0
    6.5500    1.0790  -22.3550 N   0  0  1  0  0  0
   -3.7500    3.5230  -27.8580 O   0  0  0  0  0  0
   -6.0291    3.2511  -21.2411 H   0  0  0  0  0  0
   -6.4749    3.5947  -23.6343 H   0  0  0  0  0  0
    5.5534    3.9280  -21.1410 H   0  0  0  0  0  0
    6.8221    2.9722  -20.2538 H   0  0  0  0  0  0
    6.3757    2.7103  -24.5112 H   0  0  0  0  0  0
    6.0650    4.2232  -23.6001 H   0  0  0  0  0  0
   -5.6338    3.7184  -25.9820 H   0  0  0  0  0  0
    2.3190    1.6426  -24.6338 H   0  0  0  0  0  0
    3.1674    1.2212  -22.7310 H   0  0  0  0  0  0
    4.4108    0.6317  -23.8987 H   0  0  0  0  0  0
    4.9351   -0.0584  -21.5498 H   0  0  0  0  0  0
    7.7565    2.8456  -22.4072 H   0  0  0  0  0  0
    4.0725    2.4094  -20.6847 H   0  0  0  0  0  0
    5.3686    1.4285  -19.7950 H   0  0  0  0  0  0
   -1.4662    3.3560  -26.8277 H   0  0  0  0  0  0
    0.3768    1.9241  -20.7291 H   0  0  0  0  0  0
    7.1990    0.5893  -21.6440 H   0  0  0  0  0  0
   -2.8958    3.4656  -28.2698 H   0  0  0  0  0  0
    4.9510    7.4740  -22.5560 N   0  0  0  0  0  0
    4.9120    9.7550  -21.8180 N   0  0  0  0  0  0
    7.0230   10.3440  -22.3490 N   0  0  0  0  0  0
    3.5610    7.2330  -22.1350 C   0  0  0  0  0  0
    5.5110    8.6800  -22.3660 C   0  0  0  0  0  0
    5.8350   10.7240  -21.8220 C   0  0  0  0  0  0
    6.8580    9.0810  -22.6980 C   0  0  0  0  0  0
    5.4933    6.7176  -22.9972 H   0  0  0  0  0  0
    3.9329    9.6950  -21.5040 H   0  0  0  0  0  0
    7.8025   11.0154  -22.3990 H   0  0  0  0  0  0
    2.9170    8.0360  -22.5230 H   0  0  0  0  0  0
    3.5010    7.2650  -21.0371 H   0  0  0  0  0  0
    5.5941   11.7036  -21.4252 H   0  0  0  0  0  0
    7.6751    8.5339  -23.1541 H   0  0  0  0  0  0
  1  2  2  0  0  0
  1  3  1  0  0  0
  1 34  1  0  0  0
  2  6  1  0  0  0
  2 35  1  0  0  0
  3  5  2  0  0  0
  3 27  1  0  0  0
  4  5  1  0  0  0
  4  6  2  0  0  0
  4 18  1  0  0  0
  5 24  1  0  0  0
  6 10  1  0  0  0
  7 10  2  0  0  0
  7 23  1  0  0  0
  7 33  1  0  0  0
  8 21  1  0  0  0
  8 22  1  0  0  0
  8 36  1  0  0  0
  8 37  1  0  0  0
  9 21  1  0  0  0
  9 31  1  0  0  0
  9 38  1  0  0  0
  9 39  1  0  0  0
 10 40  1  0  0  0
 11 12  2  0  0  0
 11 14  1  0  0  0
 11 15  1  0  0  0
 12 17  1  0  0  0
 12 28  1  0  0  0
 13 28  2  0  0  0
 13 29  1  0  0  0
 13 55  1  0  0  0
 14 29  2  0  0  0
 14 31  1  0  0  0
 15 30  2  0  0  0
 15 41  1  0  0  0
 16 17  2  0  0  0
 16 18  1  0  0  0
 16 30  1  0  0  0
 17 26  1  0  0  0
 18 23  2  0  0  0
 19 20  1  0  0  0
 19 31  1  0  0  0
 19 42  1  0  0  0
 19 43  1  0  0  0
 20 22  1  0  0  0
 20 32  1  0  0  0
 20 44  1  0  0  0
 21 32  1  0  0  0
 21 45  1  0  0  0
 22 46  1  0  0  0
 22 47  1  0  0  0
 23 48  1  0  0  0
 24 25  3  0  0  0
 25 49  1  0  0  0
 32 50  1  0  0  0
 33 51  1  0  0  0
 52 55  1  0  0  0
 52 56  1  0  0  0
 52 59  1  0  0  0
 53 56  1  0  0  0
 53 57  1  0  0  0
 53 60  1  0  0  0
 54 57  1  0  0  0
 54 58  1  0  0  0
 54 61  1  0  0  0
 55 62  1  0  0  0
 55 63  1  0  0  0
 56 58  2  0  0  0
 57 64  1  0  0  0
 58 65  1  0  0  0
M  END
> <s_m_entry_id>
150

> <s_m_entry_name>
000000150.1

> <s_m_Source_Path>
/Users/zaksoul/Documents/2

> <s_m_Source_File>
000000150.mol2

> <i_m_Source_File_Index>
1

$$$$
No_0_161
                    3D
 Schrodinger Suite 2022-4.
 65 71  0  0  1  0            999 V2000
   -5.5040    3.4750  -21.9870 C   0  0  0  0  0  0
   -5.7070    3.6670  -23.3330 C   0  0  0  0  0  0
   -4.2830    3.2220  -21.5890 C   0  0  0  0  0  0
   -3.2910    3.3540  -23.7110 C   0  0  0  0  0  0
   -3.1970    3.1060  -22.2850 C   0  0  0  0  0  0
   -4.6130    3.6170  -24.2940 C   0  0  0  0  0  0
   -3.7560    3.6450  -26.4540 C   0  0  0  0  0  0
    5.7170    2.9040  -20.7400 C   0  0  0  0  0  0
    5.6980    3.0530  -23.2930 C   0  0  0  0  0  0
   -4.8010    3.7480  -25.6390 C   0  0  0  0  0  0
    1.9170    3.5990  -23.4860 C   0  0  0  0  0  0
    1.0820    4.7060  -23.2230 C   0  0  0  0  0  0
    2.8460    5.9010  -22.4560 C   0  0  0  0  0  0
    3.3010    3.7900  -23.1070 C   0  0  0  0  0  0
    1.4040    2.4830  -24.1750 C   0  0  0  0  0  0
   -0.7270    3.2940  -24.1620 C   0  0  0  0  0  0
   -0.2300    4.5130  -23.5360 C   0  0  0  0  0  0
   -2.1620    3.3000  -24.5840 C   0  0  0  0  0  0
    3.8950    1.2910  -22.7940 C   0  0  0  0  0  0
    4.7740    0.9330  -21.6050 C   0  0  2  0  0  0
    6.3890    2.4770  -22.0630 C   0  0  2  0  0  0
    4.7000    1.9320  -20.4380 C   0  0  0  0  0  0
   -2.4200    3.4630  -26.0260 C   0  0  0  0  0  0
   -1.8820    2.6920  -21.6250 C   0  0  0  0  0  0
   -0.8760    2.3440  -21.0720 C   0  0  0  0  0  0
   -1.0880    5.5570  -23.2290 F   0  0  0  0  0  0
   -4.1370    2.9760  -20.2000 F   0  0  0  0  0  0
    1.5330    5.8640  -22.6670 N   0  0  0  0  0  0
    3.7520    4.9400  -22.6370 N   0  0  0  0  0  0
    0.1130    2.3930  -24.5420 N   0  0  0  0  0  0
    4.2280    2.7430  -23.2440 N   0  0  0  0  0  0
    6.2020    1.0030  -22.0210 N   0  0  1  0  0  0
   -3.8630    3.6640  -27.8500 O   0  0  0  0  0  0
   -6.3396    3.5353  -21.2991 H   0  0  0  0  0  0
   -6.7052    3.8616  -23.7082 H   0  0  0  0  0  0
    5.2508    3.8919  -20.8692 H   0  0  0  0  0  0
    6.4660    2.9131  -19.9345 H   0  0  0  0  0  0
    6.1352    2.6117  -24.2008 H   0  0  0  0  0  0
    5.8412    4.1434  -23.3162 H   0  0  0  0  0  0
   -5.7943    3.9336  -26.0313 H   0  0  0  0  0  0
    2.0556    1.6547  -24.4290 H   0  0  0  0  0  0
    2.8373    1.2335  -22.4973 H   0  0  0  0  0  0
    4.0969    0.5954  -23.6219 H   0  0  0  0  0  0
    4.5338   -0.0803  -21.2507 H   0  0  0  0  0  0
    7.4584    2.7345  -22.0590 H   0  0  0  0  0  0
    3.7151    2.4219  -20.4390 H   0  0  0  0  0  0
    4.9573    1.4154  -19.5016 H   0  0  0  0  0  0
   -1.6154    3.4459  -26.7522 H   0  0  0  0  0  0
    0.0101    2.0380  -20.5859 H   0  0  0  0  0  0
    6.8160    0.5035  -21.2862 H   0  0  0  0  0  0
   -2.9993    3.5769  -28.2359 H   0  0  0  0  0  0
    4.6780    7.5660  -22.5720 N   0  0  0  0  0  0
    4.6740    9.7970  -21.6940 N   0  0  0  0  0  0
    6.6540   10.5100  -22.5040 N   0  0  0  0  0  0
    3.3810    7.2390  -21.9590 C   0  0  0  0  0  0
    5.2180    8.7830  -22.3940 C   0  0  0  0  0  0
    5.5500   10.8060  -21.7790 C   0  0  0  0  0  0
    6.4810    9.2630  -22.9030 C   0  0  0  0  0  0
    5.1732    6.8617  -23.1373 H   0  0  0  0  0  0
    3.7585    9.6759  -21.2378 H   0  0  0  0  0  0
    7.3916   11.2176  -22.6309 H   0  0  0  0  0  0
    2.6561    8.0329  -22.1920 H   0  0  0  0  0  0
    3.4910    7.2060  -20.8650 H   0  0  0  0  0  0
    5.3381   11.7495  -21.2892 H   0  0  0  0  0  0
    7.2359    8.7801  -23.5129 H   0  0  0  0  0  0
  1  2  2  0  0  0
  1  3  1  0  0  0
  1 34  1  0  0  0
  2  6  1  0  0  0
  2 35  1  0  0  0
  3  5  2  0  0  0
  3 27  1  0  0  0
  4  5  1  0  0  0
  4  6  2  0  0  0
  4 18  1  0  0  0
  5 24  1  0  0  0
  6 10  1  0  0  0
  7 10  2  0  0  0
  7 23  1  0  0  0
  7 33  1  0  0  0
  8 21  1  0  0  0
  8 22  1  0  0  0
  8 36  1  0  0  0
  8 37  1  0  0  0
  9 21  1  0  0  0
  9 31  1  0  0  0
  9 38  1  0  0  0
  9 39  1  0  0  0
 10 40  1  0  0  0
 11 12  2  0  0  0
 11 14  1  0  0  0
 11 15  1  0  0  0
 12 17  1  0  0  0
 12 28  1  0  0  0
 13 28  2  0  0  0
 13 29  1  0  0  0
 13 55  1  0  0  0
 14 29  2  0  0  0
 14 31  1  0  0  0
 15 30  2  0  0  0
 15 41  1  0  0  0
 16 17  2  0  0  0
 16 18  1  0  0  0
 16 30  1  0  0  0
 17 26  1  0  0  0
 18 23  2  0  0  0
 19 20  1  0  0  0
 19 31  1  0  0  0
 19 42  1  0  0  0
 19 43  1  0  0  0
 20 22  1  0  0  0
 20 32  1  0  0  0
 20 44  1  0  0  0
 21 32  1  0  0  0
 21 45  1  0  0  0
 22 46  1  0  0  0
 22 47  1  0  0  0
 23 48  1  0  0  0
 24 25  3  0  0  0
 25 49  1  0  0  0
 32 50  1  0  0  0
 33 51  1  0  0  0
 52 55  1  0  0  0
 52 56  1  0  0  0
 52 59  1  0  0  0
 53 56  1  0  0  0
 53 57  1  0  0  0
 53 60  1  0  0  0
 54 57  1  0  0  0
 54 58  1  0  0  0
 54 61  1  0  0  0
 55 62  1  0  0  0
 55 63  1  0  0  0
 56 58  2  0  0  0
 57 64  1  0  0  0
 58 65  1  0  0  0
M  END
> <s_m_entry_id>
151

> <s_m_entry_name>
000000151.1

> <s_m_Source_Path>
/Users/zaksoul/Documents/2

> <s_m_Source_File>
000000151.mol2

> <i_m_Source_File_Index>
1

$$$$
No_0_162
                    3D
 Schrodinger Suite 2022-4.
 65 71  0  0  1  0            999 V2000
   -5.1490    3.4890  -21.9500 C   0  0  0  0  0  0
   -5.4040    3.6820  -23.2870 C   0  0  0  0  0  0
   -3.9100    3.2570  -21.5960 C   0  0  0  0  0  0
   -2.9970    3.4150  -23.7500 C   0  0  0  0  0  0
   -2.8480    3.1630  -22.3300 C   0  0  0  0  0  0
   -4.3430    3.6560  -24.2850 C   0  0  0  0  0  0
   -3.5630    3.7070  -26.4740 C   0  0  0  0  0  0
    6.1170    3.1170  -21.1020 C   0  0  0  0  0  0
    6.0050    3.2740  -23.6520 C   0  0  0  0  0  0
   -4.5810    3.7880  -25.6230 C   0  0  0  0  0  0
    2.2110    3.7520  -23.7090 C   0  0  0  0  0  0
    1.3660    4.8430  -23.4120 C   0  0  0  0  0  0
    3.1340    6.0670  -22.7030 C   0  0  0  0  0  0
    3.6040    3.9670  -23.3780 C   0  0  0  0  0  0
    1.6930    2.6300  -24.3840 C   0  0  0  0  0  0
   -0.4500    3.4020  -24.2930 C   0  0  0  0  0  0
    0.0470    4.6280  -23.6790 C   0  0  0  0  0  0
   -1.8990    3.3840  -24.6640 C   0  0  0  0  0  0
    4.2530    1.4780  -23.0960 C   0  0  0  0  0  0
    5.1800    1.1320  -21.9410 C   0  0  2  0  0  0
    6.7500    2.7060  -22.4490 C   0  0  2  0  0  0
    5.1300    2.1250  -20.7680 C   0  0  0  0  0  0
   -2.2110    3.5470  -26.0940 C   0  0  0  0  0  0
   -1.5030    2.7710  -21.7190 C   0  0  0  0  0  0
   -0.4720    2.4390  -21.2030 C   0  0  0  0  0  0
   -0.8180    5.6550  -23.3380 F   0  0  0  0  0  0
   -3.7110    3.0090  -20.2130 F   0  0  0  0  0  0
    1.8150    6.0070  -22.8670 N   0  0  0  0  0  0
    4.0500    5.1230  -22.9200 N   0  0  0  0  0  0
    0.3920    2.5180  -24.7050 N   0  0  0  0  0  0
    4.5430    2.9370  -23.5520 N   0  0  0  0  0  0
    6.5900    1.2290  -22.4070 N   0  0  1  0  0  0
   -3.7210    3.7280  -27.8660 O   0  0  0  0  0  0
   -5.9597    3.5321  -21.2316 H   0  0  0  0  0  0
   -6.4182    3.8607  -23.6254 H   0  0  0  0  0  0
    5.6295    4.0971  -21.2100 H   0  0  0  0  0  0
    6.8942    3.1362  -20.3238 H   0  0  0  0  0  0
    6.4181    2.8437  -24.5762 H   0  0  0  0  0  0
    6.1281    4.3668  -23.6752 H   0  0  0  0  0  0
   -5.5908    3.9566  -25.9793 H   0  0  0  0  0  0
    2.3505    1.8149  -24.6641 H   0  0  0  0  0  0
    3.2075    1.4003  -22.7630 H   0  0  0  0  0  0
    4.4377    0.7896  -23.9338 H   0  0  0  0  0  0
    4.9700    0.1134  -21.5826 H   0  0  0  0  0  0
    7.8139    2.9836  -22.4823 H   0  0  0  0  0  0
    4.1371    2.5972  -20.7327 H   0  0  0  0  0  0
    5.4287    1.6104  -19.8428 H   0  0  0  0  0  0
   -1.4326    3.5470  -26.8484 H   0  0  0  0  0  0
    0.4361    2.1470  -20.7500 H   0  0  0  0  0  0
    7.2391    0.7382  -21.6970 H   0  0  0  0  0  0
   -2.8700    3.6587  -28.2826 H   0  0  0  0  0  0
    3.3370    8.4950  -23.1620 N   0  0  0  0  0  0
    4.0660   10.2050  -21.6490 N   0  0  0  0  0  0
    3.6790   12.0170  -22.9340 N   0  0  0  0  0  0
    3.6630    7.4130  -22.2200 C   0  0  0  0  0  0
    3.5630    9.7740  -22.8220 C   0  0  0  0  0  0
    4.1230   11.5390  -21.7480 C   0  0  0  0  0  0
    3.3210   10.9490  -23.6250 C   0  0  0  0  0  0
    2.9360    8.2710  -24.0839 H   0  0  0  0  0  0
    4.3132    9.5276  -20.9135 H   0  0  0  0  0  0
    3.6800   13.0311  -23.1140 H   0  0  0  0  0  0
    3.2310    7.6440  -21.2351 H   0  0  0  0  0  0
    4.7542    7.3540  -22.0940 H   0  0  0  0  0  0
    4.5001   12.1281  -20.9199 H   0  0  0  0  0  0
    2.9230   11.0610  -24.6270 H   0  0  0  0  0  0
  1  2  2  0  0  0
  1  3  1  0  0  0
  1 34  1  0  0  0
  2  6  1  0  0  0
  2 35  1  0  0  0
  3  5  2  0  0  0
  3 27  1  0  0  0
  4  5  1  0  0  0
  4  6  2  0  0  0
  4 18  1  0  0  0
  5 24  1  0  0  0
  6 10  1  0  0  0
  7 10  2  0  0  0
  7 23  1  0  0  0
  7 33  1  0  0  0
  8 21  1  0  0  0
  8 22  1  0  0  0
  8 36  1  0  0  0
  8 37  1  0  0  0
  9 21  1  0  0  0
  9 31  1  0  0  0
  9 38  1  0  0  0
  9 39  1  0  0  0
 10 40  1  0  0  0
 11 12  2  0  0  0
 11 14  1  0  0  0
 11 15  1  0  0  0
 12 17  1  0  0  0
 12 28  1  0  0  0
 13 28  2  0  0  0
 13 29  1  0  0  0
 13 55  1  0  0  0
 14 29  2  0  0  0
 14 31  1  0  0  0
 15 30  2  0  0  0
 15 41  1  0  0  0
 16 17  2  0  0  0
 16 18  1  0  0  0
 16 30  1  0  0  0
 17 26  1  0  0  0
 18 23  2  0  0  0
 19 20  1  0  0  0
 19 31  1  0  0  0
 19 42  1  0  0  0
 19 43  1  0  0  0
 20 22  1  0  0  0
 20 32  1  0  0  0
 20 44  1  0  0  0
 21 32  1  0  0  0
 21 45  1  0  0  0
 22 46  1  0  0  0
 22 47  1  0  0  0
 23 48  1  0  0  0
 24 25  3  0  0  0
 25 49  1  0  0  0
 32 50  1  0  0  0
 33 51  1  0  0  0
 52 55  1  0  0  0
 52 56  1  0  0  0
 52 59  1  0  0  0
 53 56  1  0  0  0
 53 57  1  0  0  0
 53 60  1  0  0  0
 54 57  1  0  0  0
 54 58  1  0  0  0
 54 61  1  0  0  0
 55 62  1  0  0  0
 55 63  1  0  0  0
 56 58  2  0  0  0
 57 64  1  0  0  0
 58 65  1  0  0  0
M  END
> <s_m_entry_id>
152

> <s_m_entry_name>
000000152.1

> <s_m_Source_Path>
/Users/zaksoul/Documents/2

> <s_m_Source_File>
000000152.mol2

> <i_m_Source_File_Index>
1

$$$$
No_0_163
                    3D
 Schrodinger Suite 2022-4.
 70 76  0  0  1  0            999 V2000
   -5.2880    3.3610  -21.8680 C   0  0  0  0  0  0
   -5.5540    3.5200  -23.2070 C   0  0  0  0  0  0
   -4.0470    3.1370  -21.5190 C   0  0  0  0  0  0
   -3.1520    3.2380  -23.6850 C   0  0  0  0  0  0
   -2.9910    3.0230  -22.2600 C   0  0  0  0  0  0
   -4.5030    3.4660  -24.2140 C   0  0  0  0  0  0
   -3.7430    3.4600  -26.4110 C   0  0  0  0  0  0
    5.9840    2.9980  -21.1110 C   0  0  0  0  0  0
    5.8500    3.0900  -23.6630 C   0  0  0  0  0  0
   -4.7530    3.5640  -25.5520 C   0  0  0  0  0  0
    2.0560    3.5700  -23.6990 C   0  0  0  0  0  0
    1.2150    4.6690  -23.4230 C   0  0  0  0  0  0
    2.9900    5.9090  -22.7620 C   0  0  0  0  0  0
    3.4520    3.7920  -23.3860 C   0  0  0  0  0  0
    1.5310    2.4310  -24.3400 C   0  0  0  0  0  0
   -0.6100    3.2080  -24.2490 C   0  0  0  0  0  0
   -0.1070    4.4490  -23.6730 C   0  0  0  0  0  0
   -2.0620    3.1820  -24.6070 C   0  0  0  0  0  0
    4.1010    1.3110  -23.0460 C   0  0  0  0  0  0
    5.0380    0.9940  -21.8900 C   0  0  2  0  0  0
    6.6050    2.5520  -22.4530 C   0  0  2  0  0  0
    4.9990    2.0160  -20.7420 C   0  0  0  0  0  0
   -2.3870    3.3090  -26.0380 C   0  0  0  0  0  0
   -1.6410    2.6450  -21.6510 C   0  0  0  0  0  0
   -0.6060    2.3250  -21.1360 C   0  0  0  0  0  0
   -0.9680    5.4850  -23.3500 F   0  0  0  0  0  0
   -3.8350    2.9240  -20.1330 F   0  0  0  0  0  0
    1.6700    5.8460  -22.9120 N   0  0  0  0  0  0
    3.9040    4.9590  -22.9620 N   0  0  0  0  0  0
    0.2270    2.3130  -24.6460 N   0  0  0  0  0  0
    4.3890    2.7570  -23.5410 N   0  0  0  0  0  0
    6.4440    1.0760  -22.3710 N   0  0  1  0  0  0
   -3.9120    3.4450  -27.8010 O   0  0  0  0  0  0
   -6.0928    3.4242  -21.1445 H   0  0  0  0  0  0
   -6.5711    3.6905  -23.5410 H   0  0  0  0  0  0
    5.4967    3.9757  -21.2401 H   0  0  0  0  0  0
    6.7678    3.0373  -20.3403 H   0  0  0  0  0  0
    6.2546    2.6350  -24.5791 H   0  0  0  0  0  0
    5.9731    4.1818  -23.7165 H   0  0  0  0  0  0
   -5.7655    3.7246  -25.9042 H   0  0  0  0  0  0
    2.1852    1.6082  -24.6049 H   0  0  0  0  0  0
    3.0588    1.2424  -22.7009 H   0  0  0  0  0  0
    4.2777    0.6003  -23.8668 H   0  0  0  0  0  0
    4.8312   -0.0149  -21.5036 H   0  0  0  0  0  0
    7.6691    2.8266  -22.5015 H   0  0  0  0  0  0
    4.0070    2.4903  -20.7107 H   0  0  0  0  0  0
    5.3070    1.5253  -19.8070 H   0  0  0  0  0  0
   -1.6156    3.2879  -26.7993 H   0  0  0  0  0  0
    0.3057    2.0441  -20.6832 H   0  0  0  0  0  0
    7.0991    0.6037  -21.6539 H   0  0  0  0  0  0
   -3.0646    3.3638  -28.2227 H   0  0  0  0  0  0
    6.5110    7.5610  -20.1320 N   0  3  0  0  0  0
    5.7920    9.1600  -21.4280 N   0  0  0  0  0  0
    4.5050    7.0630  -21.2580 N   0  0  0  0  0  0
    5.5300    7.9120  -20.9790 C   0  0  0  0  0  0
    7.0470    9.6960  -20.9230 C   0  0  0  0  0  0
    7.5520    8.5640  -19.9890 C   0  0  0  0  0  0
    4.9720    9.9830  -22.3050 C   0  0  0  0  0  0
    3.5240    7.2670  -22.3180 C   0  0  0  0  0  0
    6.4770    6.6496  -19.6533 H   0  0  0  0  0  0
    4.3811    6.2054  -20.7012 H   0  0  0  0  0  0
    6.8421   10.5957  -20.3242 H   0  0  0  0  0  0
    7.7512    9.8180  -21.7592 H   0  0  0  0  0  0
    8.4971    8.1630  -20.3840 H   0  0  0  0  0  0
    7.5630    8.9289  -18.9513 H   0  0  0  0  0  0
    5.4722   10.9474  -22.4771 H   0  0  0  0  0  0
    4.8290    9.4670  -23.2659 H   0  0  0  0  0  0
    3.9932   10.1570  -21.8341 H   0  0  0  0  0  0
    4.0058    7.7678  -23.1707 H   0  0  0  0  0  0
    2.6946    7.8803  -21.9358 H   0  0  0  0  0  0
  1  2  2  0  0  0
  1  3  1  0  0  0
  1 34  1  0  0  0
  2  6  1  0  0  0
  2 35  1  0  0  0
  3  5  2  0  0  0
  3 27  1  0  0  0
  4  5  1  0  0  0
  4  6  2  0  0  0
  4 18  1  0  0  0
  5 24  1  0  0  0
  6 10  1  0  0  0
  7 10  2  0  0  0
  7 23  1  0  0  0
  7 33  1  0  0  0
  8 21  1  0  0  0
  8 22  1  0  0  0
  8 36  1  0  0  0
  8 37  1  0  0  0
  9 21  1  0  0  0
  9 31  1  0  0  0
  9 38  1  0  0  0
  9 39  1  0  0  0
 10 40  1  0  0  0
 11 12  1  0  0  0
 11 14  2  0  0  0
 11 15  1  0  0  0
 12 17  1  0  0  0
 12 28  2  0  0  0
 13 28  1  0  0  0
 13 29  2  0  0  0
 13 59  1  0  0  0
 14 29  1  0  0  0
 14 31  1  0  0  0
 15 30  2  0  0  0
 15 41  1  0  0  0
 16 17  2  0  0  0
 16 18  1  0  0  0
 16 30  1  0  0  0
 17 26  1  0  0  0
 18 23  2  0  0  0
 19 20  1  0  0  0
 19 31  1  0  0  0
 19 42  1  0  0  0
 19 43  1  0  0  0
 20 22  1  0  0  0
 20 32  1  0  0  0
 20 44  1  0  0  0
 21 32  1  0  0  0
 21 45  1  0  0  0
 22 46  1  0  0  0
 22 47  1  0  0  0
 23 48  1  0  0  0
 24 25  3  0  0  0
 25 49  1  0  0  0
 32 50  1  0  0  0
 33 51  1  0  0  0
 52 55  2  0  0  0
 52 57  1  0  0  0
 52 60  1  0  0  0
 53 55  1  0  0  0
 53 56  1  0  0  0
 53 58  1  0  0  0
 54 55  1  0  0  0
 54 59  1  0  0  0
 54 61  1  0  0  0
 56 57  1  0  0  0
 56 62  1  0  0  0
 56 63  1  0  0  0
 57 64  1  0  0  0
 57 65  1  0  0  0
 58 66  1  0  0  0
 58 67  1  0  0  0
 58 68  1  0  0  0
 59 69  1  0  0  0
 59 70  1  0  0  0
M  CHG  1  52   1
M  END
> <s_m_entry_id>
153

> <s_m_entry_name>
000000153.1

> <s_m_Source_Path>
/Users/zaksoul/Documents/2

> <s_m_Source_File>
000000153.mol2

> <i_m_Source_File_Index>
1

$$$$
No_0_164
                    3D
 Schrodinger Suite 2022-4.
 70 76  0  0  1  0            999 V2000
   -5.3450    3.6020  -22.3810 C   0  0  0  0  0  0
   -5.5570    3.7550  -23.7310 C   0  0  0  0  0  0
   -4.1220    3.3580  -21.9840 C   0  0  0  0  0  0
   -3.1440    3.4260  -24.1140 C   0  0  0  0  0  0
   -3.0410    3.2200  -22.6830 C   0  0  0  0  0  0
   -4.4690    3.6750  -24.6960 C   0  0  0  0  0  0
   -3.6260    3.6370  -26.8620 C   0  0  0  0  0  0
    5.8820    3.0420  -21.1900 C   0  0  0  0  0  0
    5.8470    3.1160  -23.7460 C   0  0  0  0  0  0
   -4.6660    3.7660  -26.0440 C   0  0  0  0  0  0
    2.0660    3.6640  -23.9310 C   0  0  0  0  0  0
    1.2350    4.7810  -23.6950 C   0  0  0  0  0  0
    3.0060    5.9940  -22.9750 C   0  0  0  0  0  0
    3.4530    3.8630  -23.5660 C   0  0  0  0  0  0
    1.5460    2.5300  -24.5830 C   0  0  0  0  0  0
   -0.5830    3.3470  -24.5810 C   0  0  0  0  0  0
   -0.0790    4.5820  -23.9940 C   0  0  0  0  0  0
   -2.0210    3.3440  -24.9930 C   0  0  0  0  0  0
    4.0430    1.3740  -23.1840 C   0  0  0  0  0  0
    4.9290    1.0490  -21.9910 C   0  0  2  0  0  0
    6.5450    2.5740  -22.5040 C   0  0  2  0  0  0
    4.8660    2.0810  -20.8530 C   0  0  0  0  0  0
   -2.2880    3.4650  -26.4370 C   0  0  0  0  0  0
   -1.7230    2.8220  -22.0190 C   0  0  0  0  0  0
   -0.7140    2.4880  -21.4630 C   0  0  0  0  0  0
   -0.9330    5.6370  -23.7120 F   0  0  0  0  0  0
   -3.9680    3.1530  -20.5890 F   0  0  0  0  0  0
    1.6920    5.9530  -23.1760 N   0  0  0  0  0  0
    3.9100    5.0250  -23.1330 N   0  0  0  0  0  0
    0.2530    2.4330  -24.9390 N   0  0  0  0  0  0
    4.3760    2.8110  -23.6780 N   0  0  0  0  0  0
    6.3540    1.1030  -22.4180 N   0  0  1  0  0  0
   -3.7420    3.6150  -28.2580 O   0  0  0  0  0  0
   -6.1758    3.6853  -21.6897 H   0  0  0  0  0  0
   -6.5570    3.9417  -24.1055 H   0  0  0  0  0  0
    5.4169    4.0267  -21.3454 H   0  0  0  0  0  0
    6.6365    3.0733  -20.3901 H   0  0  0  0  0  0
    6.2772    2.6464  -24.6428 H   0  0  0  0  0  0
    5.9923    4.2049  -23.8025 H   0  0  0  0  0  0
   -5.6614    3.9426  -26.4353 H   0  0  0  0  0  0
    2.1946    1.6936  -24.8170 H   0  0  0  0  0  0
    2.9872    1.3266  -22.8792 H   0  0  0  0  0  0
    4.2377    0.6536  -23.9922 H   0  0  0  0  0  0
    4.6889    0.0471  -21.6056 H   0  0  0  0  0  0
    7.6149    2.8294  -22.5141 H   0  0  0  0  0  0
    3.8820    2.5725  -20.8621 H   0  0  0  0  0  0
    5.1275    1.5923  -19.9029 H   0  0  0  0  0  0
   -1.4882    3.4249  -27.1676 H   0  0  0  0  0  0
    0.1747    2.1941  -20.9742 H   0  0  0  0  0  0
    6.9719    0.6241  -21.6729 H   0  0  0  0  0  0
   -2.8807    3.5150  -28.6461 H   0  0  0  0  0  0
    6.8860    7.6650  -20.9250 N   0  3  0  0  0  0
    5.8470    9.3090  -21.9120 N   0  0  0  0  0  0
    4.7260    7.1240  -21.6890 N   0  0  0  0  0  0
    5.7410    8.0150  -21.5360 C   0  0  0  0  0  0
    7.1480    9.8860  -21.6090 C   0  0  0  0  0  0
    7.8820    8.7200  -20.8930 C   0  0  0  0  0  0
    4.8320   10.1420  -22.5390 C   0  0  0  0  0  0
    3.5480    7.3450  -22.5210 C   0  0  0  0  0  0
    6.9910    6.7183  -20.5331 H   0  0  0  0  0  0
    4.7570    6.2187  -21.1988 H   0  0  0  0  0  0
    7.0191   10.7202  -20.9037 H   0  0  0  0  0  0
    7.6690   10.1200  -22.5491 H   0  0  0  0  0  0
    8.7510    8.4160  -21.4950 H   0  0  0  0  0  0
    8.0770    9.0030  -19.8481 H   0  0  0  0  0  0
    5.2400   11.1481  -22.7160 H   0  0  0  0  0  0
    4.5310    9.6950  -23.4980 H   0  0  0  0  0  0
    3.9562   10.2130  -21.8772 H   0  0  0  0  0  0
    3.8281    7.9422  -23.4013 H   0  0  0  0  0  0
    2.7791    7.8699  -21.9351 H   0  0  0  0  0  0
  1  2  2  0  0  0
  1  3  1  0  0  0
  1 34  1  0  0  0
  2  6  1  0  0  0
  2 35  1  0  0  0
  3  5  2  0  0  0
  3 27  1  0  0  0
  4  5  1  0  0  0
  4  6  2  0  0  0
  4 18  1  0  0  0
  5 24  1  0  0  0
  6 10  1  0  0  0
  7 10  2  0  0  0
  7 23  1  0  0  0
  7 33  1  0  0  0
  8 21  1  0  0  0
  8 22  1  0  0  0
  8 36  1  0  0  0
  8 37  1  0  0  0
  9 21  1  0  0  0
  9 31  1  0  0  0
  9 38  1  0  0  0
  9 39  1  0  0  0
 10 40  1  0  0  0
 11 12  1  0  0  0
 11 14  2  0  0  0
 11 15  1  0  0  0
 12 17  1  0  0  0
 12 28  2  0  0  0
 13 28  1  0  0  0
 13 29  2  0  0  0
 13 59  1  0  0  0
 14 29  1  0  0  0
 14 31  1  0  0  0
 15 30  2  0  0  0
 15 41  1  0  0  0
 16 17  2  0  0  0
 16 18  1  0  0  0
 16 30  1  0  0  0
 17 26  1  0  0  0
 18 23  2  0  0  0
 19 20  1  0  0  0
 19 31  1  0  0  0
 19 42  1  0  0  0
 19 43  1  0  0  0
 20 22  1  0  0  0
 20 32  1  0  0  0
 20 44  1  0  0  0
 21 32  1  0  0  0
 21 45  1  0  0  0
 22 46  1  0  0  0
 22 47  1  0  0  0
 23 48  1  0  0  0
 24 25  3  0  0  0
 25 49  1  0  0  0
 32 50  1  0  0  0
 33 51  1  0  0  0
 52 55  2  0  0  0
 52 57  1  0  0  0
 52 60  1  0  0  0
 53 55  1  0  0  0
 53 56  1  0  0  0
 53 58  1  0  0  0
 54 55  1  0  0  0
 54 59  1  0  0  0
 54 61  1  0  0  0
 56 57  1  0  0  0
 56 62  1  0  0  0
 56 63  1  0  0  0
 57 64  1  0  0  0
 57 65  1  0  0  0
 58 66  1  0  0  0
 58 67  1  0  0  0
 58 68  1  0  0  0
 59 69  1  0  0  0
 59 70  1  0  0  0
M  CHG  1  52   1
M  END
> <s_m_entry_id>
154

> <s_m_entry_name>
000000154.1

> <s_m_Source_Path>
/Users/zaksoul/Documents/2

> <s_m_Source_File>
000000154.mol2

> <i_m_Source_File_Index>
1

$$$$
No_0_165
                    3D
 Schrodinger Suite 2022-4.
 70 76  0  0  1  0            999 V2000
   -5.2850    3.4810  -21.9720 C   0  0  0  0  0  0
   -5.5110    3.6780  -23.3140 C   0  0  0  0  0  0
   -4.0560    3.2360  -21.5940 C   0  0  0  0  0  0
   -3.0980    3.3890  -23.7300 C   0  0  0  0  0  0
   -2.9800    3.1340  -22.3070 C   0  0  0  0  0  0
   -4.4310    3.6430  -24.2910 C   0  0  0  0  0  0
   -3.6070    3.6900  -26.4640 C   0  0  0  0  0  0
    5.9580    3.0040  -20.9000 C   0  0  0  0  0  0
    5.8980    3.1650  -23.4510 C   0  0  0  0  0  0
   -4.6410    3.7790  -25.6330 C   0  0  0  0  0  0
    2.1110    3.6780  -23.5840 C   0  0  0  0  0  0
    1.2700    4.7760  -23.3020 C   0  0  0  0  0  0
    3.0340    5.9830  -22.5560 C   0  0  0  0  0  0
    3.4990    3.8790  -23.2250 C   0  0  0  0  0  0
    1.5960    2.5610  -24.2710 C   0  0  0  0  0  0
   -0.5410    3.3540  -24.2210 C   0  0  0  0  0  0
   -0.0450    4.5740  -23.5960 C   0  0  0  0  0  0
   -1.9820    3.3490  -24.6210 C   0  0  0  0  0  0
    4.1190    1.3850  -22.9340 C   0  0  0  0  0  0
    5.0190    1.0290  -21.7610 C   0  0  2  0  0  0
    6.6130    2.5880  -22.2350 C   0  0  2  0  0  0
    4.9550    2.0200  -20.5870 C   0  0  0  0  0  0
   -2.2640    3.5170  -26.0570 C   0  0  0  0  0  0
   -1.6510    2.7280  -21.6690 C   0  0  0  0  0  0
   -0.6340    2.3860  -21.1340 C   0  0  0  0  0  0
   -0.9080    5.6080  -23.2700 F   0  0  0  0  0  0
   -3.8870    2.9840  -20.2080 F   0  0  0  0  0  0
    1.7190    5.9350  -22.7460 N   0  0  0  0  0  0
    3.9470    5.0310  -22.7550 N   0  0  0  0  0  0
    0.3010    2.4620  -24.6180 N   0  0  0  0  0  0
    4.4320    2.8420  -23.3810 N   0  0  0  0  0  0
    6.4400    1.1130  -22.1980 N   0  0  1  0  0  0
   -3.7360    3.7140  -27.8580 O   0  0  0  0  0  0
   -6.1099    3.5302  -21.2705 H   0  0  0  0  0  0
   -6.5167    3.8657  -23.6723 H   0  0  0  0  0  0
    5.4814    3.9886  -21.0161 H   0  0  0  0  0  0
    6.7189    3.0151  -20.1057 H   0  0  0  0  0  0
    6.3259    2.7321  -24.3673 H   0  0  0  0  0  0
    6.0312    4.2567  -23.4712 H   0  0  0  0  0  0
   -5.6417    3.9577  -26.0094 H   0  0  0  0  0  0
    2.2524    1.7410  -24.5390 H   0  0  0  0  0  0
    3.0664    1.3164  -22.6221 H   0  0  0  0  0  0
    4.3138    0.6956  -23.7687 H   0  0  0  0  0  0
    4.7930    0.0120  -21.4079 H   0  0  0  0  0  0
    7.6797    2.8562  -22.2461 H   0  0  0  0  0  0
    3.9660    2.5014  -20.5709 H   0  0  0  0  0  0
    5.2306    1.5010  -19.6571 H   0  0  0  0  0  0
   -1.4704    3.5110  -26.7954 H   0  0  0  0  0  0
    0.2620    2.0850  -20.6630 H   0  0  0  0  0  0
    7.0702    0.6154  -21.4757 H   0  0  0  0  0  0
   -2.8777    3.6378  -28.2580 H   0  0  0  0  0  0
    7.1560    7.8130  -21.2500 N   0  3  0  0  0  0
    5.7880    9.4390  -21.7380 N   0  0  0  0  0  0
    4.9240    7.1360  -21.5610 N   0  0  0  0  0  0
    5.8750    8.1070  -21.5260 C   0  0  0  0  0  0
    7.0760   10.1130  -21.6670 C   0  0  0  0  0  0
    8.0480    8.9580  -21.3060 C   0  0  0  0  0  0
    4.5900   10.2250  -21.9940 C   0  0  0  0  0  0
    3.5660    7.3240  -22.0600 C   0  0  0  0  0  0
    7.4258    6.8447  -21.0252 H   0  0  0  0  0  0
    5.1410    6.1890  -21.2190 H   0  0  0  0  0  0
    7.0580   10.8433  -20.8446 H   0  0  0  0  0  0
    7.3339   10.5058  -22.6616 H   0  0  0  0  0  0
    8.7652    8.8180  -22.1282 H   0  0  0  0  0  0
    8.4682    9.1381  -20.3055 H   0  0  0  0  0  0
    4.8651   11.2823  -22.1220 H   0  0  0  0  0  0
    4.1000    9.8610  -22.9091 H   0  0  0  0  0  0
    3.8983   10.1270  -21.1443 H   0  0  0  0  0  0
    3.5770    8.0443  -22.8913 H   0  0  0  0  0  0
    2.9251    7.6939  -21.2461 H   0  0  0  0  0  0
  1  2  2  0  0  0
  1  3  1  0  0  0
  1 34  1  0  0  0
  2  6  1  0  0  0
  2 35  1  0  0  0
  3  5  2  0  0  0
  3 27  1  0  0  0
  4  5  1  0  0  0
  4  6  2  0  0  0
  4 18  1  0  0  0
  5 24  1  0  0  0
  6 10  1  0  0  0
  7 10  2  0  0  0
  7 23  1  0  0  0
  7 33  1  0  0  0
  8 21  1  0  0  0
  8 22  1  0  0  0
  8 36  1  0  0  0
  8 37  1  0  0  0
  9 21  1  0  0  0
  9 31  1  0  0  0
  9 38  1  0  0  0
  9 39  1  0  0  0
 10 40  1  0  0  0
 11 12  1  0  0  0
 11 14  2  0  0  0
 11 15  1  0  0  0
 12 17  1  0  0  0
 12 28  2  0  0  0
 13 28  1  0  0  0
 13 29  2  0  0  0
 13 59  1  0  0  0
 14 29  1  0  0  0
 14 31  1  0  0  0
 15 30  2  0  0  0
 15 41  1  0  0  0
 16 17  2  0  0  0
 16 18  1  0  0  0
 16 30  1  0  0  0
 17 26  1  0  0  0
 18 23  2  0  0  0
 19 20  1  0  0  0
 19 31  1  0  0  0
 19 42  1  0  0  0
 19 43  1  0  0  0
 20 22  1  0  0  0
 20 32  1  0  0  0
 20 44  1  0  0  0
 21 32  1  0  0  0
 21 45  1  0  0  0
 22 46  1  0  0  0
 22 47  1  0  0  0
 23 48  1  0  0  0
 24 25  3  0  0  0
 25 49  1  0  0  0
 32 50  1  0  0  0
 33 51  1  0  0  0
 52 55  2  0  0  0
 52 57  1  0  0  0
 52 60  1  0  0  0
 53 55  1  0  0  0
 53 56  1  0  0  0
 53 58  1  0  0  0
 54 55  1  0  0  0
 54 59  1  0  0  0
 54 61  1  0  0  0
 56 57  1  0  0  0
 56 62  1  0  0  0
 56 63  1  0  0  0
 57 64  1  0  0  0
 57 65  1  0  0  0
 58 66  1  0  0  0
 58 67  1  0  0  0
 58 68  1  0  0  0
 59 69  1  0  0  0
 59 70  1  0  0  0
M  CHG  1  52   1
M  END
> <s_m_entry_id>
155

> <s_m_entry_name>
000000155.1

> <s_m_Source_Path>
/Users/zaksoul/Documents/2

> <s_m_Source_File>
000000155.mol2

> <i_m_Source_File_Index>
1

$$$$
No_0_166
                    3D
 Schrodinger Suite 2022-4.
 71 77  0  0  1  0            999 V2000
   -5.3210    3.2450  -22.0620 C   0  0  0  0  0  0
   -5.5650    3.4290  -23.4020 C   0  0  0  0  0  0
   -4.0820    3.0320  -21.6950 C   0  0  0  0  0  0
   -3.1510    3.1950  -23.8420 C   0  0  0  0  0  0
   -3.0120    2.9520  -22.4190 C   0  0  0  0  0  0
   -4.4950    3.4140  -24.3900 C   0  0  0  0  0  0
   -3.6950    3.4680  -26.5720 C   0  0  0  0  0  0
    5.9410    3.0420  -21.1050 C   0  0  0  0  0  0
    5.8510    3.1870  -23.6570 C   0  0  0  0  0  0
   -4.7220    3.5370  -25.7300 C   0  0  0  0  0  0
    2.0510    3.6090  -23.7520 C   0  0  0  0  0  0
    1.1880    4.6880  -23.4680 C   0  0  0  0  0  0
    2.9300    5.9410  -22.7470 C   0  0  0  0  0  0
    3.4370    3.8450  -23.4090 C   0  0  0  0  0  0
    1.5560    2.4760  -24.4270 C   0  0  0  0  0  0
   -0.5990    3.2180  -24.3590 C   0  0  0  0  0  0
   -0.1260    4.4530  -23.7470 C   0  0  0  0  0  0
   -2.0430    3.1770  -24.7440 C   0  0  0  0  0  0
    4.1200    1.3680  -23.1100 C   0  0  0  0  0  0
    5.0410    1.0400  -21.9450 C   0  0  2  0  0  0
    6.5920    2.6340  -22.4450 C   0  0  2  0  0  0
    4.9650    2.0370  -20.7760 C   0  0  0  0  0  0
   -2.3440    3.3290  -26.1780 C   0  0  0  0  0  0
   -1.6670    2.5810  -21.7930 C   0  0  0  0  0  0
   -0.6360    2.2670  -21.2660 C   0  0  0  0  0  0
   -1.0090    5.4690  -23.4170 F   0  0  0  0  0  0
   -3.8930    2.7930  -20.3100 F   0  0  0  0  0  0
    1.6140    5.8610  -22.9230 N   0  0  0  0  0  0
    3.8630    5.0100  -22.9510 N   0  0  0  0  0  0
    0.2600    2.3440  -24.7600 N   0  0  0  0  0  0
    4.3940    2.8290  -23.5690 N   0  0  0  0  0  0
    6.4540    1.1550  -22.3980 N   0  0  1  0  0  0
   -3.8390    3.4810  -27.9650 O   0  0  0  0  0  0
   -6.1389    3.2791  -21.3515 H   0  0  0  0  0  0
   -6.5784    3.5905  -23.7512 H   0  0  0  0  0  0
    5.4394    4.0139  -21.2221 H   0  0  0  0  0  0
    6.7103    3.0763  -20.3195 H   0  0  0  0  0  0
    6.2793    2.7587  -24.5752 H   0  0  0  0  0  0
    5.9579    4.2815  -23.6842 H   0  0  0  0  0  0
   -5.7304    3.6895  -26.0972 H   0  0  0  0  0  0
    2.2284    1.6701  -24.6980 H   0  0  0  0  0  0
    3.0725    1.2762  -22.7871 H   0  0  0  0  0  0
    4.3229    0.6786  -23.9428 H   0  0  0  0  0  0
    4.8423    0.0202  -21.5839 H   0  0  0  0  0  0
    7.6519    2.9275  -22.4682 H   0  0  0  0  0  0
    3.9648    2.4942  -20.7528 H   0  0  0  0  0  0
    5.2628    1.5302  -19.8462 H   0  0  0  0  0  0
   -1.5582    3.3380  -26.9247 H   0  0  0  0  0  0
    0.2716    1.9898  -20.8027 H   0  0  0  0  0  0
    7.1032    0.6770  -21.6793 H   0  0  0  0  0  0
   -2.9829    3.4226  -28.3727 H   0  0  0  0  0  0
    6.6120    7.8630  -20.4760 N   0  3  0  0  0  0
    4.6380    7.1110  -21.4590 N   0  0  0  0  0  0
    6.1500   10.5830  -21.2610 C   0  0  0  0  0  0
    5.5250    8.0910  -21.2320 C   0  0  0  0  0  0
    7.5750    8.9030  -20.1300 C   0  0  0  0  0  0
    3.4350    7.2970  -22.2640 C   0  0  0  0  0  0
    5.2840    9.4590  -21.8540 C   0  0  0  0  0  0
    7.5870   10.0640  -21.1360 C   0  0  0  0  0  0
    6.7960    6.9180  -20.1100 H   0  0  0  0  0  0
    4.7910    6.1742  -21.0591 H   0  0  0  0  0  0
    5.7701   10.8519  -20.2643 H   0  0  0  0  0  0
    6.1320   11.4534  -21.9333 H   0  0  0  0  0  0
    8.5812    8.4629  -20.0680 H   0  0  0  0  0  0
    7.3490    9.2919  -19.1262 H   0  0  0  0  0  0
    3.6690    7.9310  -23.1320 H   0  0  0  0  0  0
    2.6576    7.7812  -21.6547 H   0  0  0  0  0  0
    5.4550    9.4020  -22.9391 H   0  0  0  0  0  0
    4.2217    9.7251  -21.7500 H   0  0  0  0  0  0
    8.2352   10.8683  -20.7579 H   0  0  0  0  0  0
    7.9302    9.6968  -22.1145 H   0  0  0  0  0  0
  1  2  2  0  0  0
  1  3  1  0  0  0
  1 34  1  0  0  0
  2  6  1  0  0  0
  2 35  1  0  0  0
  3  5  2  0  0  0
  3 27  1  0  0  0
  4  5  1  0  0  0
  4  6  2  0  0  0
  4 18  1  0  0  0
  5 24  1  0  0  0
  6 10  1  0  0  0
  7 10  2  0  0  0
  7 23  1  0  0  0
  7 33  1  0  0  0
  8 21  1  0  0  0
  8 22  1  0  0  0
  8 36  1  0  0  0
  8 37  1  0  0  0
  9 21  1  0  0  0
  9 31  1  0  0  0
  9 38  1  0  0  0
  9 39  1  0  0  0
 10 40  1  0  0  0
 11 12  1  0  0  0
 11 14  2  0  0  0
 11 15  1  0  0  0
 12 17  1  0  0  0
 12 28  2  0  0  0
 13 28  1  0  0  0
 13 29  2  0  0  0
 13 57  1  0  0  0
 14 29  1  0  0  0
 14 31  1  0  0  0
 15 30  2  0  0  0
 15 41  1  0  0  0
 16 17  2  0  0  0
 16 18  1  0  0  0
 16 30  1  0  0  0
 17 26  1  0  0  0
 18 23  2  0  0  0
 19 20  1  0  0  0
 19 31  1  0  0  0
 19 42  1  0  0  0
 19 43  1  0  0  0
 20 22  1  0  0  0
 20 32  1  0  0  0
 20 44  1  0  0  0
 21 32  1  0  0  0
 21 45  1  0  0  0
 22 46  1  0  0  0
 22 47  1  0  0  0
 23 48  1  0  0  0
 24 25  3  0  0  0
 25 49  1  0  0  0
 32 50  1  0  0  0
 33 51  1  0  0  0
 52 55  2  0  0  0
 52 56  1  0  0  0
 52 60  1  0  0  0
 53 55  1  0  0  0
 53 57  1  0  0  0
 53 61  1  0  0  0
 54 58  1  0  0  0
 54 59  1  0  0  0
 54 62  1  0  0  0
 54 63  1  0  0  0
 55 58  1  0  0  0
 56 59  1  0  0  0
 56 64  1  0  0  0
 56 65  1  0  0  0
 57 66  1  0  0  0
 57 67  1  0  0  0
 58 68  1  0  0  0
 58 69  1  0  0  0
 59 70  1  0  0  0
 59 71  1  0  0  0
M  CHG  1  52   1
M  END
> <s_m_entry_id>
156

> <s_m_entry_name>
000000156.1

> <s_m_Source_Path>
/Users/zaksoul/Documents/2

> <s_m_Source_File>
000000156.mol2

> <i_m_Source_File_Index>
1

$$$$
No_0_167
                    3D
 Schrodinger Suite 2022-4.
 71 77  0  0  1  0            999 V2000
   -5.4940    3.3730  -22.0550 C   0  0  0  0  0  0
   -5.6990    3.5110  -23.4080 C   0  0  0  0  0  0
   -4.2680    3.1700  -21.6450 C   0  0  0  0  0  0
   -3.2730    3.2550  -23.7670 C   0  0  0  0  0  0
   -3.1770    3.0610  -22.3330 C   0  0  0  0  0  0
   -4.6000    3.4590  -24.3630 C   0  0  0  0  0  0
   -3.7360    3.4340  -26.5210 C   0  0  0  0  0  0
    5.7330    3.1730  -20.7610 C   0  0  0  0  0  0
    5.7190    3.2290  -23.3170 C   0  0  0  0  0  0
   -4.7870    3.5360  -25.7120 C   0  0  0  0  0  0
    1.9250    3.6580  -23.5390 C   0  0  0  0  0  0
    1.0580    4.7490  -23.3180 C   0  0  0  0  0  0
    2.7830    6.0220  -22.5900 C   0  0  0  0  0  0
    3.3020    3.9020  -23.1640 C   0  0  0  0  0  0
    1.4460    2.5040  -24.1890 C   0  0  0  0  0  0
   -0.7070    3.2530  -24.2100 C   0  0  0  0  0  0
   -0.2470    4.5080  -23.6270 C   0  0  0  0  0  0
   -2.1400    3.2020  -24.6360 C   0  0  0  0  0  0
    3.9660    1.4350  -22.7590 C   0  0  0  0  0  0
    4.8510    1.1450  -21.5570 C   0  0  2  0  0  0
    6.4220    2.7170  -22.0650 C   0  0  2  0  0  0
    4.7450    2.1820  -20.4260 C   0  0  0  0  0  0
   -2.3980    3.3060  -26.0830 C   0  0  0  0  0  0
   -1.8530    2.7100  -21.6560 C   0  0  0  0  0  0
   -0.8390    2.4110  -21.0890 C   0  0  0  0  0  0
   -1.1360    5.5360  -23.3600 F   0  0  0  0  0  0
   -4.1200    2.9780  -20.2470 F   0  0  0  0  0  0
    1.4730    5.9390  -22.8020 N   0  0  0  0  0  0
    3.7180    5.0810  -22.7340 N   0  0  0  0  0  0
    0.1600    2.3640  -24.5550 N   0  0  0  0  0  0
    4.2590    2.8780  -23.2600 N   0  0  0  0  0  0
    6.2780    1.2410  -21.9710 N   0  0  1  0  0  0
   -3.8390    3.3990  -27.9170 O   0  0  0  0  0  0
   -6.3331    3.4342  -21.3715 H   0  0  0  0  0  0
   -6.7013    3.6637  -23.7916 H   0  0  0  0  0  0
    5.2394    4.1420  -20.9265 H   0  0  0  0  0  0
    6.4794    3.2325  -19.9551 H   0  0  0  0  0  0
    6.1721    2.7679  -24.2070 H   0  0  0  0  0  0
    5.8310    4.3215  -23.3795 H   0  0  0  0  0  0
   -5.7839    3.6776  -26.1136 H   0  0  0  0  0  0
    2.1233    1.6872  -24.4108 H   0  0  0  0  0  0
    2.9091    1.3573  -22.4642 H   0  0  0  0  0  0
    4.1900    0.7165  -23.5612 H   0  0  0  0  0  0
    4.6391    0.1388  -21.1664 H   0  0  0  0  0  0
    7.4832    3.0065  -22.0680 H   0  0  0  0  0  0
    3.7465    2.6429  -20.4472 H   0  0  0  0  0  0
    5.0134    1.7078  -19.4705 H   0  0  0  0  0  0
   -1.5902    3.2859  -26.8055 H   0  0  0  0  0  0
    0.0532    2.1472  -20.5895 H   0  0  0  0  0  0
    6.9036    0.7865  -21.2171 H   0  0  0  0  0  0
   -2.9717    3.3238  -28.2972 H   0  0  0  0  0  0
    6.7060    8.1370  -20.9960 N   0  3  0  0  0  0
    4.6320    7.2700  -21.6060 N   0  0  0  0  0  0
    5.9020   10.8420  -21.5120 C   0  0  0  0  0  0
    5.4750    8.3080  -21.5040 C   0  0  0  0  0  0
    7.6430    9.2370  -20.7910 C   0  0  0  0  0  0
    3.2790    7.3920  -22.1400 C   0  0  0  0  0  0
    5.0140    9.6780  -21.9840 C   0  0  0  0  0  0
    7.3670   10.4370  -21.7090 C   0  0  0  0  0  0
    7.0282    7.1953  -20.7308 H   0  0  0  0  0  0
    4.9291    6.3328  -21.2989 H   0  0  0  0  0  0
    5.7151   11.0359  -20.4455 H   0  0  0  0  0  0
    5.6850   11.7360  -22.1150 H   0  0  0  0  0  0
    8.6692    8.8779  -20.9580 H   0  0  0  0  0  0
    7.6000    9.5620  -19.7410 H   0  0  0  0  0  0
    3.2840    8.0796  -22.9986 H   0  0  0  0  0  0
    2.6101    7.7849  -21.3601 H   0  0  0  0  0  0
    4.9630    9.6810  -23.0828 H   0  0  0  0  0  0
    3.9794    9.8511  -21.6528 H   0  0  0  0  0  0
    8.0203   11.2744  -21.4229 H   0  0  0  0  0  0
    7.5270   10.1409  -22.7562 H   0  0  0  0  0  0
  1  2  2  0  0  0
  1  3  1  0  0  0
  1 34  1  0  0  0
  2  6  1  0  0  0
  2 35  1  0  0  0
  3  5  2  0  0  0
  3 27  1  0  0  0
  4  5  1  0  0  0
  4  6  2  0  0  0
  4 18  1  0  0  0
  5 24  1  0  0  0
  6 10  1  0  0  0
  7 10  2  0  0  0
  7 23  1  0  0  0
  7 33  1  0  0  0
  8 21  1  0  0  0
  8 22  1  0  0  0
  8 36  1  0  0  0
  8 37  1  0  0  0
  9 21  1  0  0  0
  9 31  1  0  0  0
  9 38  1  0  0  0
  9 39  1  0  0  0
 10 40  1  0  0  0
 11 12  1  0  0  0
 11 14  2  0  0  0
 11 15  1  0  0  0
 12 17  1  0  0  0
 12 28  2  0  0  0
 13 28  1  0  0  0
 13 29  2  0  0  0
 13 57  1  0  0  0
 14 29  1  0  0  0
 14 31  1  0  0  0
 15 30  2  0  0  0
 15 41  1  0  0  0
 16 17  2  0  0  0
 16 18  1  0  0  0
 16 30  1  0  0  0
 17 26  1  0  0  0
 18 23  2  0  0  0
 19 20  1  0  0  0
 19 31  1  0  0  0
 19 42  1  0  0  0
 19 43  1  0  0  0
 20 22  1  0  0  0
 20 32  1  0  0  0
 20 44  1  0  0  0
 21 32  1  0  0  0
 21 45  1  0  0  0
 22 46  1  0  0  0
 22 47  1  0  0  0
 23 48  1  0  0  0
 24 25  3  0  0  0
 25 49  1  0  0  0
 32 50  1  0  0  0
 33 51  1  0  0  0
 52 55  2  0  0  0
 52 56  1  0  0  0
 52 60  1  0  0  0
 53 55  1  0  0  0
 53 57  1  0  0  0
 53 61  1  0  0  0
 54 58  1  0  0  0
 54 59  1  0  0  0
 54 62  1  0  0  0
 54 63  1  0  0  0
 55 58  1  0  0  0
 56 59  1  0  0  0
 56 64  1  0  0  0
 56 65  1  0  0  0
 57 66  1  0  0  0
 57 67  1  0  0  0
 58 68  1  0  0  0
 58 69  1  0  0  0
 59 70  1  0  0  0
 59 71  1  0  0  0
M  CHG  1  52   1
M  END
> <s_m_entry_id>
157

> <s_m_entry_name>
000000157.1

> <s_m_Source_Path>
/Users/zaksoul/Documents/2

> <s_m_Source_File>
000000157.mol2

> <i_m_Source_File_Index>
1

$$$$
No_0_168
                    3D
 Schrodinger Suite 2022-4.
 68 74  0  0  1  0            999 V2000
   -5.4420    3.5390  -22.0390 C   0  0  0  0  0  0
   -5.7080    3.6980  -23.3780 C   0  0  0  0  0  0
   -4.2020    3.3040  -21.6920 C   0  0  0  0  0  0
   -3.3090    3.3930  -23.8590 C   0  0  0  0  0  0
   -3.1480    3.1800  -22.4330 C   0  0  0  0  0  0
   -4.6580    3.6330  -24.3860 C   0  0  0  0  0  0
   -3.9010    3.6160  -26.5840 C   0  0  0  0  0  0
    5.8280    3.0770  -21.2950 C   0  0  0  0  0  0
    5.6920    3.1650  -23.8470 C   0  0  0  0  0  0
   -4.9090    3.7300  -25.7240 C   0  0  0  0  0  0
    1.9020    3.6790  -23.8790 C   0  0  0  0  0  0
    1.0710    4.7860  -23.6040 C   0  0  0  0  0  0
    2.8580    6.0120  -22.9470 C   0  0  0  0  0  0
    3.3010    3.8890  -23.5680 C   0  0  0  0  0  0
    1.3670    2.5440  -24.5170 C   0  0  0  0  0  0
   -0.7680    3.3400  -24.4260 C   0  0  0  0  0  0
   -0.2530    4.5770  -23.8520 C   0  0  0  0  0  0
   -2.2210    3.3260  -24.7820 C   0  0  0  0  0  0
    3.9280    1.4030  -23.2240 C   0  0  0  0  0  0
    4.8630    1.0790  -22.0690 C   0  0  2  0  0  0
    6.4430    2.6220  -22.6360 C   0  0  2  0  0  0
    4.8350    2.1040  -20.9230 C   0  0  0  0  0  0
   -2.5460    3.4530  -26.2130 C   0  0  0  0  0  0
   -1.8000    2.7910  -21.8250 C   0  0  0  0  0  0
   -0.7670    2.4630  -21.3110 C   0  0  0  0  0  0
   -1.1040    5.6220  -23.5300 F   0  0  0  0  0  0
   -3.9910    3.0920  -20.3050 F   0  0  0  0  0  0
    1.5370    5.9600  -23.0960 N   0  0  0  0  0  0
    3.7630    5.0520  -23.1460 N   0  0  0  0  0  0
    0.0610    2.4360  -24.8220 N   0  0  0  0  0  0
    4.2280    2.8450  -23.7230 N   0  0  0  0  0  0
    6.2700    1.1480  -22.5520 N   0  0  1  0  0  0
   -4.0720    3.6000  -27.9740 O   0  0  0  0  0  0
   -6.2450    3.6103  -21.3143 H   0  0  0  0  0  0
   -6.7239    3.8767  -23.7113 H   0  0  0  0  0  0
    5.3492    4.0587  -21.4253 H   0  0  0  0  0  0
    6.6135    3.1103  -20.5256 H   0  0  0  0  0  0
    6.0909    2.7045  -24.7629 H   0  0  0  0  0  0
    5.8253    4.2555  -23.9025 H   0  0  0  0  0  0
   -5.9204    3.8996  -26.0752 H   0  0  0  0  0  0
    2.0134    1.7149  -24.7810 H   0  0  0  0  0  0
    2.8851    1.3445  -22.8791 H   0  0  0  0  0  0
    4.0966    0.6892  -24.0438 H   0  0  0  0  0  0
    4.6470    0.0728  -21.6805 H   0  0  0  0  0  0
    7.5093    2.8873  -22.6874 H   0  0  0  0  0  0
    3.8474    2.5872  -20.8907 H   0  0  0  0  0  0
    5.1389    1.6123  -19.9871 H   0  0  0  0  0  0
   -1.7753    3.4239  -26.9747 H   0  0  0  0  0  0
    0.1421    2.1740  -20.8580 H   0  0  0  0  0  0
    6.9212    0.6711  -21.8345 H   0  0  0  0  0  0
   -3.2258    3.5109  -28.3966 H   0  0  0  0  0  0
    6.2270    8.0600  -20.2240 N   0  3  0  0  0  0
    4.3880    7.1860  -21.4470 N   0  0  0  0  0  0
    5.2850    8.1360  -21.1610 C   0  0  0  0  0  0
    7.0940    9.2120  -20.0950 C   0  0  0  0  0  0
    5.3870    9.4760  -21.8450 C   0  0  0  0  0  0
    6.3050   10.2670  -20.8930 C   0  0  0  0  0  0
    3.4050    7.3650  -22.5060 C   0  0  0  0  0  0
    6.3070    7.2144  -19.6413 H   0  0  0  0  0  0
    4.3830    6.3047  -20.9138 H   0  0  0  0  0  0
    8.0445    9.0069  -20.6093 H   0  0  0  0  0  0
    7.1350    9.5149  -19.0383 H   0  0  0  0  0  0
    4.3941    9.9489  -21.8670 H   0  0  0  0  0  0
    5.8921    9.3510  -22.8142 H   0  0  0  0  0  0
    7.0049   10.8769  -21.4830 H   0  0  0  0  0  0
    5.6889   10.8621  -20.2029 H   0  0  0  0  0  0
    3.8778    7.8658  -23.3637 H   0  0  0  0  0  0
    2.5797    7.9922  -22.1379 H   0  0  0  0  0  0
  1  2  2  0  0  0
  1  3  1  0  0  0
  1 34  1  0  0  0
  2  6  1  0  0  0
  2 35  1  0  0  0
  3  5  2  0  0  0
  3 27  1  0  0  0
  4  5  1  0  0  0
  4  6  2  0  0  0
  4 18  1  0  0  0
  5 24  1  0  0  0
  6 10  1  0  0  0
  7 10  2  0  0  0
  7 23  1  0  0  0
  7 33  1  0  0  0
  8 21  1  0  0  0
  8 22  1  0  0  0
  8 36  1  0  0  0
  8 37  1  0  0  0
  9 21  1  0  0  0
  9 31  1  0  0  0
  9 38  1  0  0  0
  9 39  1  0  0  0
 10 40  1  0  0  0
 11 12  1  0  0  0
 11 14  2  0  0  0
 11 15  1  0  0  0
 12 17  1  0  0  0
 12 28  2  0  0  0
 13 28  1  0  0  0
 13 29  2  0  0  0
 13 58  1  0  0  0
 14 29  1  0  0  0
 14 31  1  0  0  0
 15 30  2  0  0  0
 15 41  1  0  0  0
 16 17  2  0  0  0
 16 18  1  0  0  0
 16 30  1  0  0  0
 17 26  1  0  0  0
 18 23  2  0  0  0
 19 20  1  0  0  0
 19 31  1  0  0  0
 19 42  1  0  0  0
 19 43  1  0  0  0
 20 22  1  0  0  0
 20 32  1  0  0  0
 20 44  1  0  0  0
 21 32  1  0  0  0
 21 45  1  0  0  0
 22 46  1  0  0  0
 22 47  1  0  0  0
 23 48  1  0  0  0
 24 25  3  0  0  0
 25 49  1  0  0  0
 32 50  1  0  0  0
 33 51  1  0  0  0
 52 54  2  0  0  0
 52 55  1  0  0  0
 52 59  1  0  0  0
 53 54  1  0  0  0
 53 58  1  0  0  0
 53 60  1  0  0  0
 54 56  1  0  0  0
 55 57  1  0  0  0
 55 61  1  0  0  0
 55 62  1  0  0  0
 56 57  1  0  0  0
 56 63  1  0  0  0
 56 64  1  0  0  0
 57 65  1  0  0  0
 57 66  1  0  0  0
 58 67  1  0  0  0
 58 68  1  0  0  0
M  CHG  1  52   1
M  END
> <s_m_entry_id>
158

> <s_m_entry_name>
000000158.1

> <s_m_Source_Path>
/Users/zaksoul/Documents/2

> <s_m_Source_File>
000000158.mol2

> <i_m_Source_File_Index>
1

$$$$
No_0_169
                    3D
 Schrodinger Suite 2022-4.
 68 74  0  0  1  0            999 V2000
   -5.2720    3.4980  -21.8960 C   0  0  0  0  0  0
   -5.5330    3.6770  -23.2340 C   0  0  0  0  0  0
   -4.0330    3.2570  -21.5480 C   0  0  0  0  0  0
   -3.1320    3.3790  -23.7100 C   0  0  0  0  0  0
   -2.9760    3.1440  -22.2870 C   0  0  0  0  0  0
   -4.4800    3.6280  -24.2390 C   0  0  0  0  0  0
   -3.7140    3.6440  -26.4340 C   0  0  0  0  0  0
    5.9950    3.0210  -21.1180 C   0  0  0  0  0  0
    5.8680    3.1490  -23.6690 C   0  0  0  0  0  0
   -4.7260    3.7460  -25.5760 C   0  0  0  0  0  0
    2.0790    3.6640  -23.7070 C   0  0  0  0  0  0
    1.2470    4.7670  -23.4180 C   0  0  0  0  0  0
    3.0320    5.9820  -22.7350 C   0  0  0  0  0  0
    3.4760    3.8690  -23.3880 C   0  0  0  0  0  0
    1.5450    2.5390  -24.3650 C   0  0  0  0  0  0
   -0.5890    3.3350  -24.2690 C   0  0  0  0  0  0
   -0.0760    4.5630  -23.6740 C   0  0  0  0  0  0
   -2.0410    3.3270  -24.6300 C   0  0  0  0  0  0
    4.1010    1.3780  -23.0800 C   0  0  0  0  0  0
    5.0330    1.0360  -21.9270 C   0  0  2  0  0  0
    6.6150    2.5870  -22.4640 C   0  0  2  0  0  0
    5.0000    2.0430  -20.7660 C   0  0  0  0  0  0
   -2.3610    3.4760  -26.0600 C   0  0  0  0  0  0
   -1.6320    2.7450  -21.6800 C   0  0  0  0  0  0
   -0.6000    2.4090  -21.1680 C   0  0  0  0  0  0
   -0.9280    5.6020  -23.3390 F   0  0  0  0  0  0
   -3.8270    3.0240  -20.1640 F   0  0  0  0  0  0
    1.7120    5.9330  -22.8900 N   0  0  0  0  0  0
    3.9370    5.0260  -22.9460 N   0  0  0  0  0  0
    0.2410    2.4370  -24.6760 N   0  0  0  0  0  0
    4.4040    2.8280  -23.5550 N   0  0  0  0  0  0
    6.4410    1.1120  -22.4030 N   0  0  1  0  0  0
   -3.8800    3.6500  -27.8240 O   0  0  0  0  0  0
   -6.0778    3.5582  -21.1735 H   0  0  0  0  0  0
   -6.5475    3.8616  -23.5682 H   0  0  0  0  0  0
    5.5164    4.0045  -21.2351 H   0  0  0  0  0  0
    6.7777    3.0422  -20.3454 H   0  0  0  0  0  0
    6.2707    2.7030  -24.5904 H   0  0  0  0  0  0
    6.0022    4.2401  -23.7063 H   0  0  0  0  0  0
   -5.7361    3.9207  -25.9284 H   0  0  0  0  0  0
    2.1924    1.7139  -24.6390 H   0  0  0  0  0  0
    3.0572    1.3144  -22.7388 H   0  0  0  0  0  0
    4.2735    0.6771  -23.9100 H   0  0  0  0  0  0
    4.8151    0.0241  -21.5547 H   0  0  0  0  0  0
    7.6814    2.8533  -22.5074 H   0  0  0  0  0  0
    4.0123    2.5258  -20.7296 H   0  0  0  0  0  0
    5.3006    1.5366  -19.8369 H   0  0  0  0  0  0
   -1.5876    3.4589  -26.8194 H   0  0  0  0  0  0
    0.3076    2.1128  -20.7167 H   0  0  0  0  0  0
    7.0891    0.6232  -21.6907 H   0  0  0  0  0  0
   -3.0328    3.5669  -28.2456 H   0  0  0  0  0  0
    6.7970    8.0410  -20.6050 N   0  3  0  0  0  0
    4.7870    7.1330  -21.4850 N   0  0  0  0  0  0
    5.6620    8.1260  -21.2950 C   0  0  0  0  0  0
    7.5950    9.2470  -20.5370 C   0  0  0  0  0  0
    5.5180    9.5310  -21.8240 C   0  0  0  0  0  0
    6.5780   10.3020  -21.0120 C   0  0  0  0  0  0
    3.5770    7.3280  -22.2720 C   0  0  0  0  0  0
    7.0629    7.1524  -20.1572 H   0  0  0  0  0  0
    4.9611    6.2066  -21.0698 H   0  0  0  0  0  0
    8.4127    9.1800  -21.2697 H   0  0  0  0  0  0
    7.8580    9.4470  -19.4878 H   0  0  0  0  0  0
    4.5186    9.9132  -21.5689 H   0  0  0  0  0  0
    5.7951    9.5480  -22.8884 H   0  0  0  0  0  0
    7.0831   11.0271  -21.6671 H   0  0  0  0  0  0
    6.1001   10.7689  -20.1382 H   0  0  0  0  0  0
    3.8070    7.9521  -23.1481 H   0  0  0  0  0  0
    2.8200    7.8390  -21.6590 H   0  0  0  0  0  0
  1  2  2  0  0  0
  1  3  1  0  0  0
  1 34  1  0  0  0
  2  6  1  0  0  0
  2 35  1  0  0  0
  3  5  2  0  0  0
  3 27  1  0  0  0
  4  5  1  0  0  0
  4  6  2  0  0  0
  4 18  1  0  0  0
  5 24  1  0  0  0
  6 10  1  0  0  0
  7 10  2  0  0  0
  7 23  1  0  0  0
  7 33  1  0  0  0
  8 21  1  0  0  0
  8 22  1  0  0  0
  8 36  1  0  0  0
  8 37  1  0  0  0
  9 21  1  0  0  0
  9 31  1  0  0  0
  9 38  1  0  0  0
  9 39  1  0  0  0
 10 40  1  0  0  0
 11 12  1  0  0  0
 11 14  2  0  0  0
 11 15  1  0  0  0
 12 17  1  0  0  0
 12 28  2  0  0  0
 13 28  1  0  0  0
 13 29  2  0  0  0
 13 58  1  0  0  0
 14 29  1  0  0  0
 14 31  1  0  0  0
 15 30  2  0  0  0
 15 41  1  0  0  0
 16 17  2  0  0  0
 16 18  1  0  0  0
 16 30  1  0  0  0
 17 26  1  0  0  0
 18 23  2  0  0  0
 19 20  1  0  0  0
 19 31  1  0  0  0
 19 42  1  0  0  0
 19 43  1  0  0  0
 20 22  1  0  0  0
 20 32  1  0  0  0
 20 44  1  0  0  0
 21 32  1  0  0  0
 21 45  1  0  0  0
 22 46  1  0  0  0
 22 47  1  0  0  0
 23 48  1  0  0  0
 24 25  3  0  0  0
 25 49  1  0  0  0
 32 50  1  0  0  0
 33 51  1  0  0  0
 52 54  2  0  0  0
 52 55  1  0  0  0
 52 59  1  0  0  0
 53 54  1  0  0  0
 53 58  1  0  0  0
 53 60  1  0  0  0
 54 56  1  0  0  0
 55 57  1  0  0  0
 55 61  1  0  0  0
 55 62  1  0  0  0
 56 57  1  0  0  0
 56 63  1  0  0  0
 56 64  1  0  0  0
 57 65  1  0  0  0
 57 66  1  0  0  0
 58 67  1  0  0  0
 58 68  1  0  0  0
M  CHG  1  52   1
M  END
> <s_m_entry_id>
159

> <s_m_entry_name>
000000159.1

> <s_m_Source_Path>
/Users/zaksoul/Documents/2

> <s_m_Source_File>
000000159.mol2

> <i_m_Source_File_Index>
1

$$$$
No_0_170
                    3D
 Schrodinger Suite 2022-4.
 68 74  0  0  1  0            999 V2000
   -5.4300    3.3450  -22.2050 C   0  0  0  0  0  0
   -5.6470    3.5380  -23.5490 C   0  0  0  0  0  0
   -4.2040    3.1000  -21.8190 C   0  0  0  0  0  0
   -3.2320    3.2430  -23.9490 C   0  0  0  0  0  0
   -3.1230    2.9930  -22.5240 C   0  0  0  0  0  0
   -4.5610    3.4970  -24.5190 C   0  0  0  0  0  0
   -3.7240    3.5350  -26.6870 C   0  0  0  0  0  0
    5.8050    2.8510  -21.0610 C   0  0  0  0  0  0
    5.7620    3.0040  -23.6140 C   0  0  0  0  0  0
   -4.7630    3.6290  -25.8630 C   0  0  0  0  0  0
    1.9760    3.5230  -23.7710 C   0  0  0  0  0  0
    1.1360    4.6240  -23.4990 C   0  0  0  0  0  0
    2.8980    5.8300  -22.7460 C   0  0  0  0  0  0
    3.3620    3.7230  -23.4050 C   0  0  0  0  0  0
    1.4640    2.4050  -24.4580 C   0  0  0  0  0  0
   -0.6720    3.2010  -24.4240 C   0  0  0  0  0  0
   -0.1780    4.4230  -23.8000 C   0  0  0  0  0  0
   -2.1110    3.1980  -24.8330 C   0  0  0  0  0  0
    3.9760    1.2290  -23.1010 C   0  0  0  0  0  0
    4.8680    0.8750  -21.9210 C   0  0  2  0  0  0
    6.4680    2.4300  -22.3910 C   0  0  2  0  0  0
    4.7990    1.8710  -20.7520 C   0  0  0  0  0  0
   -2.3830    3.3610  -26.2710 C   0  0  0  0  0  0
   -1.7990    2.5870  -21.8770 C   0  0  0  0  0  0
   -0.7860    2.2450  -21.3340 C   0  0  0  0  0  0
   -1.0400    5.4600  -23.4830 F   0  0  0  0  0  0
   -4.0430    2.8530  -20.4310 F   0  0  0  0  0  0
    1.5830    5.7840  -22.9450 N   0  0  0  0  0  0
    3.8090    4.8760  -22.9370 N   0  0  0  0  0  0
    0.1710    2.3070  -24.8120 N   0  0  0  0  0  0
    4.2950    2.6830  -23.5520 N   0  0  0  0  0  0
    6.2920    0.9550  -22.3500 N   0  0  1  0  0  0
   -3.8440    3.5550  -28.0820 O   0  0  0  0  0  0
   -6.2594    3.3982  -21.5091 H   0  0  0  0  0  0
   -6.6499    3.7267  -23.9144 H   0  0  0  0  0  0
    5.3307    3.8358  -21.1841 H   0  0  0  0  0  0
    6.5618    2.8641  -20.2628 H   0  0  0  0  0  0
    6.1943    2.5667  -24.5261 H   0  0  0  0  0  0
    5.8972    4.0954  -23.6362 H   0  0  0  0  0  0
   -5.7610    3.8077  -26.2465 H   0  0  0  0  0  0
    2.1194    1.5820  -24.7190 H   0  0  0  0  0  0
    2.9215    1.1624  -22.7952 H   0  0  0  0  0  0
    4.1748    0.5357  -23.9315 H   0  0  0  0  0  0
    4.6389   -0.1405  -21.5657 H   0  0  0  0  0  0
    7.5355    2.6954  -22.3960 H   0  0  0  0  0  0
    3.8104    2.3532  -20.7429 H   0  0  0  0  0  0
    5.0673    1.3556  -19.8180 H   0  0  0  0  0  0
   -1.5851    3.3510  -27.0047 H   0  0  0  0  0  0
    0.1064    1.9442  -20.8563 H   0  0  0  0  0  0
    6.9165    0.4588  -21.6218 H   0  0  0  0  0  0
   -2.9832    3.4749  -28.4758 H   0  0  0  0  0  0
    6.8580    8.0160  -21.1660 N   0  3  0  0  0  0
    4.7820    7.0150  -21.7370 N   0  0  0  0  0  0
    5.6050    8.0610  -21.6120 C   0  0  0  0  0  0
    7.5660    9.2780  -21.1210 C   0  0  0  0  0  0
    5.2590    9.4910  -21.9460 C   0  0  0  0  0  0
    6.4020   10.2750  -21.2740 C   0  0  0  0  0  0
    3.4290    7.1720  -22.2520 C   0  0  0  0  0  0
    7.2699    7.1172  -20.8771 H   0  0  0  0  0  0
    5.0999    6.0732  -21.4671 H   0  0  0  0  0  0
    8.2230    9.3540  -22.0000 H   0  0  0  0  0  0
    8.0193    9.4021  -20.1264 H   0  0  0  0  0  0
    4.3057    9.7551  -21.4649 H   0  0  0  0  0  0
    5.3150    9.6319  -23.0355 H   0  0  0  0  0  0
    6.7129   11.1017  -21.9297 H   0  0  0  0  0  0
    6.0779   10.6131  -20.2787 H   0  0  0  0  0  0
    3.4340    7.8934  -23.0824 H   0  0  0  0  0  0
    2.7751    7.5519  -21.4532 H   0  0  0  0  0  0
  1  2  2  0  0  0
  1  3  1  0  0  0
  1 34  1  0  0  0
  2  6  1  0  0  0
  2 35  1  0  0  0
  3  5  2  0  0  0
  3 27  1  0  0  0
  4  5  1  0  0  0
  4  6  2  0  0  0
  4 18  1  0  0  0
  5 24  1  0  0  0
  6 10  1  0  0  0
  7 10  2  0  0  0
  7 23  1  0  0  0
  7 33  1  0  0  0
  8 21  1  0  0  0
  8 22  1  0  0  0
  8 36  1  0  0  0
  8 37  1  0  0  0
  9 21  1  0  0  0
  9 31  1  0  0  0
  9 38  1  0  0  0
  9 39  1  0  0  0
 10 40  1  0  0  0
 11 12  1  0  0  0
 11 14  2  0  0  0
 11 15  1  0  0  0
 12 17  1  0  0  0
 12 28  2  0  0  0
 13 28  1  0  0  0
 13 29  2  0  0  0
 13 58  1  0  0  0
 14 29  1  0  0  0
 14 31  1  0  0  0
 15 30  2  0  0  0
 15 41  1  0  0  0
 16 17  2  0  0  0
 16 18  1  0  0  0
 16 30  1  0  0  0
 17 26  1  0  0  0
 18 23  2  0  0  0
 19 20  1  0  0  0
 19 31  1  0  0  0
 19 42  1  0  0  0
 19 43  1  0  0  0
 20 22  1  0  0  0
 20 32  1  0  0  0
 20 44  1  0  0  0
 21 32  1  0  0  0
 21 45  1  0  0  0
 22 46  1  0  0  0
 22 47  1  0  0  0
 23 48  1  0  0  0
 24 25  3  0  0  0
 25 49  1  0  0  0
 32 50  1  0  0  0
 33 51  1  0  0  0
 52 54  2  0  0  0
 52 55  1  0  0  0
 52 59  1  0  0  0
 53 54  1  0  0  0
 53 58  1  0  0  0
 53 60  1  0  0  0
 54 56  1  0  0  0
 55 57  1  0  0  0
 55 61  1  0  0  0
 55 62  1  0  0  0
 56 57  1  0  0  0
 56 63  1  0  0  0
 56 64  1  0  0  0
 57 65  1  0  0  0
 57 66  1  0  0  0
 58 67  1  0  0  0
 58 68  1  0  0  0
M  CHG  1  52   1
M  END
> <s_m_entry_id>
160

> <s_m_entry_name>
000000160.1

> <s_m_Source_Path>
/Users/zaksoul/Documents/2

> <s_m_Source_File>
000000160.mol2

> <i_m_Source_File_Index>
1

$$$$
No_0_171
                    3D
 Schrodinger Suite 2022-4.
 68 74  0  0  1  0            999 V2000
   -5.4060    3.6530  -21.8850 C   0  0  0  0  0  0
   -5.6440    3.8500  -23.2240 C   0  0  0  0  0  0
   -4.1760    3.3950  -21.5200 C   0  0  0  0  0  0
   -3.2390    3.5320  -23.6660 C   0  0  0  0  0  0
   -3.1090    3.2790  -22.2440 C   0  0  0  0  0  0
   -4.5750    3.8010  -24.2130 C   0  0  0  0  0  0
   -3.7750    3.8340  -26.3950 C   0  0  0  0  0  0
    5.8420    3.0460  -20.9330 C   0  0  0  0  0  0
    5.7560    3.2040  -23.4840 C   0  0  0  0  0  0
   -4.7980    3.9370  -25.5530 C   0  0  0  0  0  0
    1.9740    3.7600  -23.5770 C   0  0  0  0  0  0
    1.1490    4.8690  -23.2880 C   0  0  0  0  0  0
    2.9360    6.0570  -22.5640 C   0  0  0  0  0  0
    3.3680    3.9460  -23.2340 C   0  0  0  0  0  0
    1.4390    2.6490  -24.2560 C   0  0  0  0  0  0
   -0.6880    3.4660  -24.1850 C   0  0  0  0  0  0
   -0.1710    4.6820  -23.5670 C   0  0  0  0  0  0
   -2.1340    3.4780  -24.5690 C   0  0  0  0  0  0
    3.9620    1.4450  -22.9440 C   0  0  0  0  0  0
    4.8710    1.0800  -21.7810 C   0  0  2  0  0  0
    6.4780    2.6210  -22.2750 C   0  0  2  0  0  0
    4.8310    2.0750  -20.6080 C   0  0  0  0  0  0
   -2.4290    3.6470  -26.0020 C   0  0  0  0  0  0
   -1.7780    2.8590  -21.6200 C   0  0  0  0  0  0
   -0.7590    2.5060  -21.0950 C   0  0  0  0  0  0
   -1.0180    5.7270  -23.2340 F   0  0  0  0  0  0
   -3.9940    3.1440  -20.1350 F   0  0  0  0  0  0
    1.6180    6.0240  -22.7400 N   0  0  0  0  0  0
    3.8340    5.0930  -22.7710 N   0  0  0  0  0  0
    0.1390    2.5640  -24.5890 N   0  0  0  0  0  0
    4.2870    2.8970  -23.3980 N   0  0  0  0  0  0
    6.2870    1.1470  -22.2330 N   0  0  1  0  0  0
   -3.9180    3.8580  -27.7880 O   0  0  0  0  0  0
   -6.2226    3.7132  -21.1747 H   0  0  0  0  0  0
   -6.6509    4.0498  -23.5723 H   0  0  0  0  0  0
    5.3755    4.0356  -21.0471 H   0  0  0  0  0  0
    6.6122    3.0500  -20.1477 H   0  0  0  0  0  0
    6.1686    2.7642  -24.4040 H   0  0  0  0  0  0
    5.9023    4.2940  -23.5072 H   0  0  0  0  0  0
   -5.8008    4.1267  -25.9184 H   0  0  0  0  0  0
    2.0820    1.8204  -24.5299 H   0  0  0  0  0  0
    2.9120    1.3895  -22.6209 H   0  0  0  0  0  0
    4.1396    0.7518  -23.7794 H   0  0  0  0  0  0
    4.6368    0.0664  -21.4236 H   0  0  0  0  0  0
    7.5479    2.8754  -22.2982 H   0  0  0  0  0  0
    3.8478    2.5676  -20.5818 H   0  0  0  0  0  0
    5.1106    1.5541  -19.6804 H   0  0  0  0  0  0
   -1.6443    3.6299  -26.7496 H   0  0  0  0  0  0
    0.1384    2.1952  -20.6333 H   0  0  0  0  0  0
    6.9190    0.6433  -21.5165 H   0  0  0  0  0  0
   -3.0649    3.7699  -28.1967 H   0  0  0  0  0  0
    6.6990    8.9970  -22.9520 N   0  3  0  0  0  0
    4.8700    7.5490  -22.5080 N   0  0  0  0  0  0
    5.4510    8.7520  -22.5600 C   0  0  0  0  0  0
    7.1140   10.3840  -22.9320 C   0  0  0  0  0  0
    4.7980   10.0550  -22.1720 C   0  0  0  0  0  0
    6.0010   11.0130  -22.0730 C   0  0  0  0  0  0
    3.4880    7.3920  -22.0760 C   0  0  0  0  0  0
    7.3082    8.2207  -23.2471 H   0  0  0  0  0  0
    5.4012    6.7086  -22.7771 H   0  0  0  0  0  0
    7.0570   10.7923  -23.9518 H   0  0  0  0  0  0
    8.0718   10.4650  -22.3971 H   0  0  0  0  0  0
    4.3370    9.9490  -21.1789 H   0  0  0  0  0  0
    4.1385   10.3868  -22.9874 H   0  0  0  0  0  0
    5.7250   11.9919  -22.4920 H   0  0  0  0  0  0
    6.3357   11.0720  -21.0268 H   0  0  0  0  0  0
    2.8800    8.2119  -22.4860 H   0  0  0  0  0  0
    3.4420    7.4280  -20.9776 H   0  0  0  0  0  0
  1  2  2  0  0  0
  1  3  1  0  0  0
  1 34  1  0  0  0
  2  6  1  0  0  0
  2 35  1  0  0  0
  3  5  2  0  0  0
  3 27  1  0  0  0
  4  5  1  0  0  0
  4  6  2  0  0  0
  4 18  1  0  0  0
  5 24  1  0  0  0
  6 10  1  0  0  0
  7 10  2  0  0  0
  7 23  1  0  0  0
  7 33  1  0  0  0
  8 21  1  0  0  0
  8 22  1  0  0  0
  8 36  1  0  0  0
  8 37  1  0  0  0
  9 21  1  0  0  0
  9 31  1  0  0  0
  9 38  1  0  0  0
  9 39  1  0  0  0
 10 40  1  0  0  0
 11 12  1  0  0  0
 11 14  2  0  0  0
 11 15  1  0  0  0
 12 17  1  0  0  0
 12 28  2  0  0  0
 13 28  1  0  0  0
 13 29  2  0  0  0
 13 58  1  0  0  0
 14 29  1  0  0  0
 14 31  1  0  0  0
 15 30  2  0  0  0
 15 41  1  0  0  0
 16 17  2  0  0  0
 16 18  1  0  0  0
 16 30  1  0  0  0
 17 26  1  0  0  0
 18 23  2  0  0  0
 19 20  1  0  0  0
 19 31  1  0  0  0
 19 42  1  0  0  0
 19 43  1  0  0  0
 20 22  1  0  0  0
 20 32  1  0  0  0
 20 44  1  0  0  0
 21 32  1  0  0  0
 21 45  1  0  0  0
 22 46  1  0  0  0
 22 47  1  0  0  0
 23 48  1  0  0  0
 24 25  3  0  0  0
 25 49  1  0  0  0
 32 50  1  0  0  0
 33 51  1  0  0  0
 52 54  2  0  0  0
 52 55  1  0  0  0
 52 59  1  0  0  0
 53 54  1  0  0  0
 53 58  1  0  0  0
 53 60  1  0  0  0
 54 56  1  0  0  0
 55 57  1  0  0  0
 55 61  1  0  0  0
 55 62  1  0  0  0
 56 57  1  0  0  0
 56 63  1  0  0  0
 56 64  1  0  0  0
 57 65  1  0  0  0
 57 66  1  0  0  0
 58 67  1  0  0  0
 58 68  1  0  0  0
M  CHG  1  52   1
M  END
> <s_m_entry_id>
161

> <s_m_entry_name>
000000161.1

> <s_m_Source_Path>
/Users/zaksoul/Documents/2

> <s_m_Source_File>
000000161.mol2

> <i_m_Source_File_Index>
1

$$$$
No_0_172
                    3D
 Schrodinger Suite 2022-4.
 68 74  0  0  1  0            999 V2000
   -5.2790    3.4360  -21.8840 C   0  0  0  0  0  0
   -5.5180    3.6280  -23.2240 C   0  0  0  0  0  0
   -4.0420    3.2200  -21.5140 C   0  0  0  0  0  0
   -3.1020    3.3930  -23.6560 C   0  0  0  0  0  0
   -2.9680    3.1410  -22.2340 C   0  0  0  0  0  0
   -4.4440    3.6170  -24.2080 C   0  0  0  0  0  0
   -3.6360    3.6820  -26.3870 C   0  0  0  0  0  0
    5.9790    3.2100  -20.8870 C   0  0  0  0  0  0
    5.8990    3.3700  -23.4380 C   0  0  0  0  0  0
   -4.6660    3.7490  -25.5480 C   0  0  0  0  0  0
    2.1000    3.7980  -23.5450 C   0  0  0  0  0  0
    1.2370    4.8780  -23.2580 C   0  0  0  0  0  0
    2.9790    6.1230  -22.5240 C   0  0  0  0  0  0
    3.4860    4.0300  -23.1960 C   0  0  0  0  0  0
    1.6060    2.6700  -24.2290 C   0  0  0  0  0  0
   -0.5480    3.4150  -24.1640 C   0  0  0  0  0  0
   -0.0750    4.6460  -23.5430 C   0  0  0  0  0  0
   -1.9910    3.3780  -24.5550 C   0  0  0  0  0  0
    4.1630    1.5500  -22.9090 C   0  0  0  0  0  0
    5.0790    1.2140  -21.7420 C   0  0  2  0  0  0
    6.6350    2.8090  -22.2270 C   0  0  2  0  0  0
    5.0010    2.2040  -20.5680 C   0  0  0  0  0  0
   -2.2870    3.5400  -25.9890 C   0  0  0  0  0  0
   -1.6270    2.7650  -21.6060 C   0  0  0  0  0  0
   -0.5980    2.4460  -21.0770 C   0  0  0  0  0  0
   -0.9580    5.6610  -23.2110 F   0  0  0  0  0  0
   -3.8580    2.9720  -20.1290 F   0  0  0  0  0  0
    1.6640    6.0460  -22.7050 N   0  0  0  0  0  0
    3.9110    5.1920  -22.7290 N   0  0  0  0  0  0
    0.3110    2.5420  -24.5670 N   0  0  0  0  0  0
    4.4410    3.0140  -23.3590 N   0  0  0  0  0  0
    6.4940    1.3300  -22.1890 N   0  0  1  0  0  0
   -3.7750    3.7040  -27.7800 O   0  0  0  0  0  0
   -6.0998    3.4681  -21.1766 H   0  0  0  0  0  0
   -6.5300    3.7937  -23.5754 H   0  0  0  0  0  0
    5.4800    4.1837  -21.0011 H   0  0  0  0  0  0
    6.7459    3.2383  -20.0989 H   0  0  0  0  0  0
    6.3298    2.9462  -24.3571 H   0  0  0  0  0  0
    6.0080    4.4644  -23.4592 H   0  0  0  0  0  0
   -5.6728    3.9046  -25.9184 H   0  0  0  0  0  0
    2.2776    1.8638  -24.5011 H   0  0  0  0  0  0
    3.1143    1.4581  -22.5900 H   0  0  0  0  0  0
    4.3680    0.8653  -23.7452 H   0  0  0  0  0  0
    4.8781    0.1922  -21.3876 H   0  0  0  0  0  0
    7.6955    3.1006  -22.2452 H   0  0  0  0  0  0
    4.0016    2.6629  -20.5448 H   0  0  0  0  0  0
    5.2947    1.6924  -19.6396 H   0  0  0  0  0  0
   -1.4983    3.5510  -26.7326 H   0  0  0  0  0  0
    0.3074    2.1649  -20.6118 H   0  0  0  0  0  0
    7.1401    0.8465  -21.4712 H   0  0  0  0  0  0
   -2.9179    3.6466  -28.1858 H   0  0  0  0  0  0
    6.2190    9.5390  -23.4140 N   0  3  0  0  0  0
    4.7050    7.8410  -22.7360 N   0  0  0  0  0  0
    5.1280    9.1080  -22.7870 C   0  0  0  0  0  0
    6.4780   10.9620  -23.3390 C   0  0  0  0  0  0
    4.4470   10.2830  -22.1310 C   0  0  0  0  0  0
    5.5320   11.3760  -22.1970 C   0  0  0  0  0  0
    3.4840    7.4750  -22.0310 C   0  0  0  0  0  0
    6.8231    8.8719  -23.9150 H   0  0  0  0  0  0
    5.2460    7.0980  -23.2010 H   0  0  0  0  0  0
    6.1459   11.4382  -24.2733 H   0  0  0  0  0  0
    7.5188   11.1220  -23.0211 H   0  0  0  0  0  0
    4.2400   10.0410  -21.0781 H   0  0  0  0  0  0
    3.5863   10.5909  -22.7428 H   0  0  0  0  0  0
    5.0648   12.3415  -22.4411 H   0  0  0  0  0  0
    6.0899   11.3940  -21.2492 H   0  0  0  0  0  0
    2.7151    8.2410  -22.2100 H   0  0  0  0  0  0
    3.6869    7.4190  -20.9513 H   0  0  0  0  0  0
  1  2  2  0  0  0
  1  3  1  0  0  0
  1 34  1  0  0  0
  2  6  1  0  0  0
  2 35  1  0  0  0
  3  5  2  0  0  0
  3 27  1  0  0  0
  4  5  1  0  0  0
  4  6  2  0  0  0
  4 18  1  0  0  0
  5 24  1  0  0  0
  6 10  1  0  0  0
  7 10  2  0  0  0
  7 23  1  0  0  0
  7 33  1  0  0  0
  8 21  1  0  0  0
  8 22  1  0  0  0
  8 36  1  0  0  0
  8 37  1  0  0  0
  9 21  1  0  0  0
  9 31  1  0  0  0
  9 38  1  0  0  0
  9 39  1  0  0  0
 10 40  1  0  0  0
 11 12  1  0  0  0
 11 14  2  0  0  0
 11 15  1  0  0  0
 12 17  1  0  0  0
 12 28  2  0  0  0
 13 28  1  0  0  0
 13 29  2  0  0  0
 13 58  1  0  0  0
 14 29  1  0  0  0
 14 31  1  0  0  0
 15 30  2  0  0  0
 15 41  1  0  0  0
 16 17  2  0  0  0
 16 18  1  0  0  0
 16 30  1  0  0  0
 17 26  1  0  0  0
 18 23  2  0  0  0
 19 20  1  0  0  0
 19 31  1  0  0  0
 19 42  1  0  0  0
 19 43  1  0  0  0
 20 22  1  0  0  0
 20 32  1  0  0  0
 20 44  1  0  0  0
 21 32  1  0  0  0
 21 45  1  0  0  0
 22 46  1  0  0  0
 22 47  1  0  0  0
 23 48  1  0  0  0
 24 25  3  0  0  0
 25 49  1  0  0  0
 32 50  1  0  0  0
 33 51  1  0  0  0
 52 54  2  0  0  0
 52 55  1  0  0  0
 52 59  1  0  0  0
 53 54  1  0  0  0
 53 58  1  0  0  0
 53 60  1  0  0  0
 54 56  1  0  0  0
 55 57  1  0  0  0
 55 61  1  0  0  0
 55 62  1  0  0  0
 56 57  1  0  0  0
 56 63  1  0  0  0
 56 64  1  0  0  0
 57 65  1  0  0  0
 57 66  1  0  0  0
 58 67  1  0  0  0
 58 68  1  0  0  0
M  CHG  1  52   1
M  END
> <s_m_entry_id>
162

> <s_m_entry_name>
000000162.1

> <s_m_Source_Path>
/Users/zaksoul/Documents/2

> <s_m_Source_File>
000000162.mol2

> <i_m_Source_File_Index>
1

$$$$
No_0_173
                    3D
 Schrodinger Suite 2022-4.
 68 74  0  0  1  0            999 V2000
   -5.5400    3.3040  -22.0280 C   0  0  0  0  0  0
   -5.7390    3.5430  -23.3670 C   0  0  0  0  0  0
   -4.3170    3.0570  -21.6320 C   0  0  0  0  0  0
   -3.3150    3.2870  -23.7400 C   0  0  0  0  0  0
   -3.2250    2.9870  -22.3240 C   0  0  0  0  0  0
   -4.6380    3.5490  -24.3210 C   0  0  0  0  0  0
   -3.7690    3.6740  -26.4730 C   0  0  0  0  0  0
    5.6810    2.8840  -20.7280 C   0  0  0  0  0  0
    5.6750    3.1290  -23.2740 C   0  0  0  0  0  0
   -4.8210    3.7270  -25.6620 C   0  0  0  0  0  0
    1.8870    3.6140  -23.4720 C   0  0  0  0  0  0
    1.0300    4.6960  -23.1720 C   0  0  0  0  0  0
    2.7670    5.8920  -22.3500 C   0  0  0  0  0  0
    3.2650    3.8150  -23.0760 C   0  0  0  0  0  0
    1.3970    2.5170  -24.2060 C   0  0  0  0  0  0
   -0.7480    3.2890  -24.1760 C   0  0  0  0  0  0
   -0.2770    4.4930  -23.5010 C   0  0  0  0  0  0
   -2.1800    3.2860  -24.6070 C   0  0  0  0  0  0
    3.9000    1.3180  -22.8530 C   0  0  0  0  0  0
    4.7790    0.9300  -21.6740 C   0  0  2  0  0  0
    6.3690    2.5180  -22.0620 C   0  0  2  0  0  0
    4.6810    1.8820  -20.4700 C   0  0  0  0  0  0
   -2.4330    3.4990  -26.0430 C   0  0  0  0  0  0
   -1.9070    2.5720  -21.6710 C   0  0  0  0  0  0
   -0.8980    2.2210  -21.1250 C   0  0  0  0  0  0
   -1.1550    5.5090  -23.1600 F   0  0  0  0  0  0
   -4.1760    2.7610  -20.2510 F   0  0  0  0  0  0
    1.4570    5.8400  -22.5700 N   0  0  0  0  0  0
    3.6920    4.9540  -22.5600 N   0  0  0  0  0  0
    0.1100    2.4180  -24.5840 N   0  0  0  0  0  0
    4.2100    2.7910  -23.2460 N   0  0  0  0  0  0
    6.2070    1.0410  -22.0770 N   0  0  1  0  0  0
   -3.8680    3.7430  -27.8680 O   0  0  0  0  0  0
   -6.3802    3.3231  -21.3434 H   0  0  0  0  0  0
   -6.7382    3.7346  -23.7412 H   0  0  0  0  0  0
    5.1986    3.8680  -20.8229 H   0  0  0  0  0  0
    6.4253    2.8749  -19.9181 H   0  0  0  0  0  0
    6.1252    2.7293  -24.1946 H   0  0  0  0  0  0
    5.7991    4.2218  -23.2548 H   0  0  0  0  0  0
   -5.8148    3.9097  -26.0545 H   0  0  0  0  0  0
    2.0655    1.7110  -24.4861 H   0  0  0  0  0  0
    2.8417    1.2301  -22.5662 H   0  0  0  0  0  0
    4.1189    0.6582  -23.7055 H   0  0  0  0  0  0
    4.5539   -0.0996  -21.3591 H   0  0  0  0  0  0
    7.4335    2.7945  -22.0408 H   0  0  0  0  0  0
    3.6875    2.3540  -20.4589 H   0  0  0  0  0  0
    4.9415    1.3359  -19.5514 H   0  0  0  0  0  0
   -1.6243    3.5231  -26.7644 H   0  0  0  0  0  0
   -0.0100    1.9110  -20.6450 H   0  0  0  0  0  0
    6.8257    0.5249  -21.3578 H   0  0  0  0  0  0
   -3.0004    3.6866  -28.2509 H   0  0  0  0  0  0
    5.6530    9.5830  -23.3540 N   0  3  0  0  0  0
    4.3510    7.7310  -22.6380 N   0  0  0  0  0  0
    4.6970    9.0220  -22.6180 C   0  0  0  0  0  0
    5.8500   11.0050  -23.1690 C   0  0  0  0  0  0
    4.0710   10.0810  -21.7450 C   0  0  0  0  0  0
    5.0770   11.2430  -21.8580 C   0  0  0  0  0  0
    3.2760    7.2200  -21.7980 C   0  0  0  0  0  0
    6.2019    9.0091  -24.0099 H   0  0  0  0  0  0
    4.8470    7.0740  -23.2570 H   0  0  0  0  0  0
    5.3501   11.5478  -23.9848 H   0  0  0  0  0  0
    6.9186   11.2021  -22.9979 H   0  0  0  0  0  0
    4.0450    9.7252  -20.7045 H   0  0  0  0  0  0
    3.1100   10.3900  -22.1820 H   0  0  0  0  0  0
    4.5292   12.1946  -21.9240 H   0  0  0  0  0  0
    5.7763   11.2060  -21.0097 H   0  0  0  0  0  0
    2.4509    7.9471  -21.7760 H   0  0  0  0  0  0
    3.6500    7.0730  -20.7740 H   0  0  0  0  0  0
  1  2  2  0  0  0
  1  3  1  0  0  0
  1 34  1  0  0  0
  2  6  1  0  0  0
  2 35  1  0  0  0
  3  5  2  0  0  0
  3 27  1  0  0  0
  4  5  1  0  0  0
  4  6  2  0  0  0
  4 18  1  0  0  0
  5 24  1  0  0  0
  6 10  1  0  0  0
  7 10  2  0  0  0
  7 23  1  0  0  0
  7 33  1  0  0  0
  8 21  1  0  0  0
  8 22  1  0  0  0
  8 36  1  0  0  0
  8 37  1  0  0  0
  9 21  1  0  0  0
  9 31  1  0  0  0
  9 38  1  0  0  0
  9 39  1  0  0  0
 10 40  1  0  0  0
 11 12  1  0  0  0
 11 14  2  0  0  0
 11 15  1  0  0  0
 12 17  1  0  0  0
 12 28  2  0  0  0
 13 28  1  0  0  0
 13 29  2  0  0  0
 13 58  1  0  0  0
 14 29  1  0  0  0
 14 31  1  0  0  0
 15 30  2  0  0  0
 15 41  1  0  0  0
 16 17  2  0  0  0
 16 18  1  0  0  0
 16 30  1  0  0  0
 17 26  1  0  0  0
 18 23  2  0  0  0
 19 20  1  0  0  0
 19 31  1  0  0  0
 19 42  1  0  0  0
 19 43  1  0  0  0
 20 22  1  0  0  0
 20 32  1  0  0  0
 20 44  1  0  0  0
 21 32  1  0  0  0
 21 45  1  0  0  0
 22 46  1  0  0  0
 22 47  1  0  0  0
 23 48  1  0  0  0
 24 25  3  0  0  0
 25 49  1  0  0  0
 32 50  1  0  0  0
 33 51  1  0  0  0
 52 54  2  0  0  0
 52 55  1  0  0  0
 52 59  1  0  0  0
 53 54  1  0  0  0
 53 58  1  0  0  0
 53 60  1  0  0  0
 54 56  1  0  0  0
 55 57  1  0  0  0
 55 61  1  0  0  0
 55 62  1  0  0  0
 56 57  1  0  0  0
 56 63  1  0  0  0
 56 64  1  0  0  0
 57 65  1  0  0  0
 57 66  1  0  0  0
 58 67  1  0  0  0
 58 68  1  0  0  0
M  CHG  1  52   1
M  END
> <s_m_entry_id>
163

> <s_m_entry_name>
000000163.1

> <s_m_Source_Path>
/Users/zaksoul/Documents/2

> <s_m_Source_File>
000000163.mol2

> <i_m_Source_File_Index>
1

$$$$
No_0_174
                    3D
 Schrodinger Suite 2022-4.
 68 74  0  0  1  0            999 V2000
   -5.3520    3.1410  -21.8180 C   0  0  0  0  0  0
   -5.6020    3.3940  -23.1460 C   0  0  0  0  0  0
   -4.1150    2.8890  -21.4720 C   0  0  0  0  0  0
   -3.1940    3.1400  -23.6140 C   0  0  0  0  0  0
   -3.0510    2.8250  -22.2050 C   0  0  0  0  0  0
   -4.5380    3.4090  -24.1420 C   0  0  0  0  0  0
   -3.7510    3.5560  -26.3240 C   0  0  0  0  0  0
    5.9100    2.6970  -20.9520 C   0  0  0  0  0  0
    5.8060    2.9680  -23.4930 C   0  0  0  0  0  0
   -4.7720    3.6020  -25.4720 C   0  0  0  0  0  0
    2.0140    3.4600  -23.5410 C   0  0  0  0  0  0
    1.1720    4.5390  -23.1980 C   0  0  0  0  0  0
    2.9410    5.7250  -22.4300 C   0  0  0  0  0  0
    3.4070    3.6550  -23.1970 C   0  0  0  0  0  0
    1.4960    2.3700  -24.2670 C   0  0  0  0  0  0
   -0.6460    3.1450  -24.1480 C   0  0  0  0  0  0
   -0.1470    4.3400  -23.4790 C   0  0  0  0  0  0
   -2.0930    3.1470  -24.5240 C   0  0  0  0  0  0
    4.0470    1.1550  -23.0240 C   0  0  0  0  0  0
    4.9690    0.7540  -21.8830 C   0  0  2  0  0  0
    6.5460    2.3440  -22.3150 C   0  0  2  0  0  0
    4.9180    1.6940  -20.6660 C   0  0  0  0  0  0
   -2.4000    3.3750  -25.9470 C   0  0  0  0  0  0
   -1.7090    2.4020  -21.6080 C   0  0  0  0  0  0
   -0.6810    2.0440  -21.1050 C   0  0  0  0  0  0
   -1.0100    5.3530  -23.0940 F   0  0  0  0  0  0
   -3.9220    2.5790  -20.1010 F   0  0  0  0  0  0
    1.6220    5.6760  -22.6000 N   0  0  0  0  0  0
    3.8550    4.7880  -22.6850 N   0  0  0  0  0  0
    0.1950    2.2770  -24.5970 N   0  0  0  0  0  0
    4.3440    2.6310  -23.4130 N   0  0  0  0  0  0
    6.3820    0.8670  -22.3390 N   0  0  1  0  0  0
   -3.9040    3.6390  -27.7130 O   0  0  0  0  0  0
   -6.1660    3.1551  -21.1023 H   0  0  0  0  0  0
   -6.6142    3.5908  -23.4804 H   0  0  0  0  0  0
    5.4246    3.6819  -21.0186 H   0  0  0  0  0  0
    6.6842    2.6788  -20.1708 H   0  0  0  0  0  0
    6.2219    2.5783  -24.4338 H   0  0  0  0  0  0
    5.9331    4.0603  -23.4678 H   0  0  0  0  0  0
   -5.7800    3.7887  -25.8244 H   0  0  0  0  0  0
    2.1515    1.5659  -24.5812 H   0  0  0  0  0  0
    3.0003    1.0652  -22.6980 H   0  0  0  0  0  0
    4.2326    0.5033  -23.8905 H   0  0  0  0  0  0
    4.7560   -0.2788  -21.5700 H   0  0  0  0  0  0
    7.6108    2.6195  -22.3311 H   0  0  0  0  0  0
    3.9266    2.1675  -20.6125 H   0  0  0  0  0  0
    5.2127    1.1379  -19.7638 H   0  0  0  0  0  0
   -1.6189    3.4061  -26.6980 H   0  0  0  0  0  0
    0.2245    1.7292  -20.6622 H   0  0  0  0  0  0
    7.0269    0.3429  -21.6492 H   0  0  0  0  0  0
   -3.0517    3.5866  -28.1293 H   0  0  0  0  0  0
    4.8810    9.8970  -23.7670 N   0  3  0  0  0  0
    4.1180    7.8020  -22.9480 N   0  0  0  0  0  0
    4.3140    9.1210  -22.8470 C   0  0  0  0  0  0
    4.9830   11.3030  -23.4410 C   0  0  0  0  0  0
    3.9330    9.9720  -21.6610 C   0  0  0  0  0  0
    4.7070   11.2780  -21.9260 C   0  0  0  0  0  0
    3.4720    7.0460  -21.8850 C   0  0  0  0  0  0
    5.2179    9.4871  -24.6498 H   0  0  0  0  0  0
    4.4279    7.2991  -23.7918 H   0  0  0  0  0  0
    4.1731   11.8499  -23.9459 H   0  0  0  0  0  0
    6.0162   11.6391  -23.6130 H   0  0  0  0  0  0
    4.3157    9.5044  -20.7418 H   0  0  0  0  0  0
    2.8528   10.1770  -21.6940 H   0  0  0  0  0  0
    4.0759   12.1372  -21.6549 H   0  0  0  0  0  0
    5.6621   11.2540  -21.3809 H   0  0  0  0  0  0
    2.6386    7.6335  -21.4723 H   0  0  0  0  0  0
    4.1979    6.8460  -21.0831 H   0  0  0  0  0  0
  1  2  2  0  0  0
  1  3  1  0  0  0
  1 34  1  0  0  0
  2  6  1  0  0  0
  2 35  1  0  0  0
  3  5  2  0  0  0
  3 27  1  0  0  0
  4  5  1  0  0  0
  4  6  2  0  0  0
  4 18  1  0  0  0
  5 24  1  0  0  0
  6 10  1  0  0  0
  7 10  2  0  0  0
  7 23  1  0  0  0
  7 33  1  0  0  0
  8 21  1  0  0  0
  8 22  1  0  0  0
  8 36  1  0  0  0
  8 37  1  0  0  0
  9 21  1  0  0  0
  9 31  1  0  0  0
  9 38  1  0  0  0
  9 39  1  0  0  0
 10 40  1  0  0  0
 11 12  1  0  0  0
 11 14  2  0  0  0
 11 15  1  0  0  0
 12 17  1  0  0  0
 12 28  2  0  0  0
 13 28  1  0  0  0
 13 29  2  0  0  0
 13 58  1  0  0  0
 14 29  1  0  0  0
 14 31  1  0  0  0
 15 30  2  0  0  0
 15 41  1  0  0  0
 16 17  2  0  0  0
 16 18  1  0  0  0
 16 30  1  0  0  0
 17 26  1  0  0  0
 18 23  2  0  0  0
 19 20  1  0  0  0
 19 31  1  0  0  0
 19 42  1  0  0  0
 19 43  1  0  0  0
 20 22  1  0  0  0
 20 32  1  0  0  0
 20 44  1  0  0  0
 21 32  1  0  0  0
 21 45  1  0  0  0
 22 46  1  0  0  0
 22 47  1  0  0  0
 23 48  1  0  0  0
 24 25  3  0  0  0
 25 49  1  0  0  0
 32 50  1  0  0  0
 33 51  1  0  0  0
 52 54  2  0  0  0
 52 55  1  0  0  0
 52 59  1  0  0  0
 53 54  1  0  0  0
 53 58  1  0  0  0
 53 60  1  0  0  0
 54 56  1  0  0  0
 55 57  1  0  0  0
 55 61  1  0  0  0
 55 62  1  0  0  0
 56 57  1  0  0  0
 56 63  1  0  0  0
 56 64  1  0  0  0
 57 65  1  0  0  0
 57 66  1  0  0  0
 58 67  1  0  0  0
 58 68  1  0  0  0
M  CHG  1  52   1
M  END
> <s_m_entry_id>
164

> <s_m_entry_name>
000000164.1

> <s_m_Source_Path>
/Users/zaksoul/Documents/2

> <s_m_Source_File>
000000164.mol2

> <i_m_Source_File_Index>
1

$$$$
No_0_175
                    3D
 Schrodinger Suite 2022-4.
 69 75  0  0  1  0            999 V2000
   -5.1710    3.4790  -22.0890 C   0  0  0  0  0  0
   -5.4490    3.6170  -23.4280 C   0  0  0  0  0  0
   -3.9230    3.2750  -21.7480 C   0  0  0  0  0  0
   -3.0470    3.3600  -23.9220 C   0  0  0  0  0  0
   -2.8720    3.1660  -22.4950 C   0  0  0  0  0  0
   -4.4050    3.5640  -24.4430 C   0  0  0  0  0  0
   -3.6620    3.5400  -26.6450 C   0  0  0  0  0  0
    6.1120    3.2730  -21.4170 C   0  0  0  0  0  0
    5.9560    3.3300  -23.9690 C   0  0  0  0  0  0
   -4.6670    3.6410  -25.7800 C   0  0  0  0  0  0
    2.1560    3.7600  -23.9810 C   0  0  0  0  0  0
    1.3030    4.8520  -23.7120 C   0  0  0  0  0  0
    3.0660    6.1230  -23.0810 C   0  0  0  0  0  0
    3.5510    4.0040  -23.6820 C   0  0  0  0  0  0
    1.6410    2.6060  -24.6040 C   0  0  0  0  0  0
   -0.5100    3.3570  -24.5060 C   0  0  0  0  0  0
   -0.0180    4.6110  -23.9490 C   0  0  0  0  0  0
   -1.9640    3.3070  -24.8520 C   0  0  0  0  0  0
    4.2360    1.5370  -23.3160 C   0  0  0  0  0  0
    5.1860    1.2460  -22.1640 C   0  0  2  0  0  0
    6.7270    2.8180  -22.7580 C   0  0  2  0  0  0
    5.1420    2.2830  -21.0290 C   0  0  0  0  0  0
   -2.3010    3.4110  -26.2820 C   0  0  0  0  0  0
   -1.5120    2.8130  -21.8920 C   0  0  0  0  0  0
   -0.4690    2.5140  -21.3820 C   0  0  0  0  0  0
   -0.8900    5.6400  -23.6320 F   0  0  0  0  0  0
   -3.6990    3.0830  -20.3600 F   0  0  0  0  0  0
    1.7460    6.0410  -23.2200 N   0  0  0  0  0  0
    3.9910    5.1820  -23.2760 N   0  0  0  0  0  0
    0.3370    2.4670  -24.8980 N   0  0  0  0  0  0
    4.5010    2.9800  -23.8320 N   0  0  0  0  0  0
    6.5870    1.3410  -22.6570 N   0  0  1  0  0  0
   -3.8420    3.5050  -28.0340 O   0  0  0  0  0  0
   -5.9706    3.5403  -21.3597 H   0  0  0  0  0  0
   -6.4708    3.7696  -23.7562 H   0  0  0  0  0  0
    5.6095    4.2417  -21.5552 H   0  0  0  0  0  0
    6.9012    3.3325  -20.6530 H   0  0  0  0  0  0
    6.3597    2.8688  -24.8824 H   0  0  0  0  0  0
    6.0649    4.4224  -24.0376 H   0  0  0  0  0  0
   -5.6841    3.7846  -26.1264 H   0  0  0  0  0  0
    2.3045    1.7889  -24.8630 H   0  0  0  0  0  0
    3.1974    1.4594  -22.9621 H   0  0  0  0  0  0
    4.4156    0.8175  -24.1284 H   0  0  0  0  0  0
    4.9953    0.2399  -21.7624 H   0  0  0  0  0  0
    7.7869    3.1057  -22.8196 H   0  0  0  0  0  0
    4.1441    2.7446  -20.9947 H   0  0  0  0  0  0
    5.4628    1.8088  -20.0897 H   0  0  0  0  0  0
   -1.5351    3.3909  -27.0489 H   0  0  0  0  0  0
    0.4493    2.2502  -20.9323 H   0  0  0  0  0  0
    7.2531    0.8866  -21.9385 H   0  0  0  0  0  0
   -2.9969    3.4298  -28.4615 H   0  0  0  0  0  0
    7.5550    8.0470  -19.8950 N   0  0  0  0  0  0
    4.2520    7.4420  -21.3410 N   0  0  0  0  0  0
    9.3180    9.5120  -20.4790 N   0  0  0  0  0  0
    5.5380    7.9790  -21.1470 C   0  0  0  0  0  0
    3.5860    7.4930  -22.6580 C   0  0  0  0  0  0
    7.3020    9.4890  -21.7680 C   0  0  0  0  0  0
    8.0630    9.0100  -20.7070 C   0  0  0  0  0  0
    6.3030    7.5340  -20.1130 C   0  0  0  0  0  0
    6.0560    8.9870  -21.9830 C   0  0  0  0  0  0
    8.1121    7.6939  -19.1039 H   0  0  0  0  0  0
    3.7542    7.0012  -20.5544 H   0  0  0  0  0  0
    9.7002   10.2425  -21.0964 H   0  0  0  0  0  0
    9.8779    9.1581  -19.6902 H   0  0  0  0  0  0
    4.2955    7.8637  -23.4125 H   0  0  0  0  0  0
    2.7492    8.2058  -22.6180 H   0  0  0  0  0  0
    7.7022   10.2584  -22.4183 H   0  0  0  0  0  0
    5.9117    6.7635  -19.4586 H   0  0  0  0  0  0
    5.4610    9.3680  -22.8051 H   0  0  0  0  0  0
  1  2  2  0  0  0
  1  3  1  0  0  0
  1 34  1  0  0  0
  2  6  1  0  0  0
  2 35  1  0  0  0
  3  5  2  0  0  0
  3 27  1  0  0  0
  4  5  1  0  0  0
  4  6  2  0  0  0
  4 18  1  0  0  0
  5 24  1  0  0  0
  6 10  1  0  0  0
  7 10  2  0  0  0
  7 23  1  0  0  0
  7 33  1  0  0  0
  8 21  1  0  0  0
  8 22  1  0  0  0
  8 36  1  0  0  0
  8 37  1  0  0  0
  9 21  1  0  0  0
  9 31  1  0  0  0
  9 38  1  0  0  0
  9 39  1  0  0  0
 10 40  1  0  0  0
 11 12  2  0  0  0
 11 14  1  0  0  0
 11 15  1  0  0  0
 12 17  1  0  0  0
 12 28  1  0  0  0
 13 28  2  0  0  0
 13 29  1  0  0  0
 13 56  1  0  0  0
 14 29  2  0  0  0
 14 31  1  0  0  0
 15 30  2  0  0  0
 15 41  1  0  0  0
 16 17  2  0  0  0
 16 18  1  0  0  0
 16 30  1  0  0  0
 17 26  1  0  0  0
 18 23  2  0  0  0
 19 20  1  0  0  0
 19 31  1  0  0  0
 19 42  1  0  0  0
 19 43  1  0  0  0
 20 22  1  0  0  0
 20 32  1  0  0  0
 20 44  1  0  0  0
 21 32  1  0  0  0
 21 45  1  0  0  0
 22 46  1  0  0  0
 22 47  1  0  0  0
 23 48  1  0  0  0
 24 25  3  0  0  0
 25 49  1  0  0  0
 32 50  1  0  0  0
 33 51  1  0  0  0
 52 58  1  0  0  0
 52 59  1  0  0  0
 52 61  1  0  0  0
 53 55  1  0  0  0
 53 56  1  0  0  0
 53 62  1  0  0  0
 54 58  1  0  0  0
 54 63  1  0  0  0
 54 64  1  0  0  0
 55 59  2  0  0  0
 55 60  1  0  0  0
 56 65  1  0  0  0
 56 66  1  0  0  0
 57 58  2  0  0  0
 57 60  1  0  0  0
 57 67  1  0  0  0
 59 68  1  0  0  0
 60 69  1  0  0  0
M  END
> <s_m_entry_id>
165

> <s_m_entry_name>
000000165.1

> <s_m_Source_Path>
/Users/zaksoul/Documents/2

> <s_m_Source_File>
000000165.mol2

> <i_m_Source_File_Index>
1

$$$$
No_0_176
                    3D
 Schrodinger Suite 2022-4.
 69 75  0  0  1  0            999 V2000
   -5.1450    3.5240  -21.9530 C   0  0  0  0  0  0
   -5.4040    3.7280  -23.2880 C   0  0  0  0  0  0
   -3.9070    3.2790  -21.6070 C   0  0  0  0  0  0
   -3.0020    3.4450  -23.7650 C   0  0  0  0  0  0
   -2.8490    3.1830  -22.3470 C   0  0  0  0  0  0
   -4.3490    3.7000  -24.2910 C   0  0  0  0  0  0
   -3.5790    3.7600  -26.4840 C   0  0  0  0  0  0
    6.1210    3.0570  -21.1620 C   0  0  0  0  0  0
    5.9980    3.2330  -23.7100 C   0  0  0  0  0  0
   -4.5930    3.8430  -25.6270 C   0  0  0  0  0  0
    2.2080    3.7410  -23.7460 C   0  0  0  0  0  0
    1.3730    4.8360  -23.4370 C   0  0  0  0  0  0
    3.1540    6.0420  -22.7290 C   0  0  0  0  0  0
    3.6040    3.9420  -23.4210 C   0  0  0  0  0  0
    1.6780    2.6270  -24.4260 C   0  0  0  0  0  0
   -0.4580    3.4160  -24.3190 C   0  0  0  0  0  0
    0.0510    4.6340  -23.7000 C   0  0  0  0  0  0
   -1.9090    3.4120  -24.6830 C   0  0  0  0  0  0
    4.2350    1.4470  -23.1590 C   0  0  0  0  0  0
    5.1640    1.0850  -22.0100 C   0  0  2  0  0  0
    6.7440    2.6500  -22.5150 C   0  0  2  0  0  0
    5.1280    2.0700  -20.8300 C   0  0  0  0  0  0
   -2.2260    3.5870  -26.1110 C   0  0  0  0  0  0
   -1.5040    2.7750  -21.7440 C   0  0  0  0  0  0
   -0.4730    2.4320  -21.2360 C   0  0  0  0  0  0
   -0.8040    5.6650  -23.3470 F   0  0  0  0  0  0
   -3.7030    3.0200  -20.2270 F   0  0  0  0  0  0
    1.8350    5.9930  -22.8870 N   0  0  0  0  0  0
    4.0620    5.0910  -22.9560 N   0  0  0  0  0  0
    0.3750    2.5280  -24.7420 N   0  0  0  0  0  0
    4.5350    2.9060  -23.6060 N   0  0  0  0  0  0
    6.5730    1.1740  -22.4820 N   0  0  1  0  0  0
   -3.7430    3.7920  -27.8740 O   0  0  0  0  0  0
   -5.9528    3.5692  -21.2315 H   0  0  0  0  0  0
   -6.4185    3.9166  -23.6201 H   0  0  0  0  0  0
    5.6404    4.0415  -21.2610 H   0  0  0  0  0  0
    6.9018    3.0651  -20.3872 H   0  0  0  0  0  0
    6.4037    2.8051  -24.6386 H   0  0  0  0  0  0
    6.1302    4.3249  -23.7272 H   0  0  0  0  0  0
   -5.6030    4.0227  -25.9774 H   0  0  0  0  0  0
    2.3282    1.8092  -24.7150 H   0  0  0  0  0  0
    3.1907    1.3744  -22.8210 H   0  0  0  0  0  0
    4.4096    0.7618  -24.0016 H   0  0  0  0  0  0
    4.9480    0.0656  -21.6577 H   0  0  0  0  0  0
    7.8099    2.9193  -22.5513 H   0  0  0  0  0  0
    4.1393    2.5502  -20.7866 H   0  0  0  0  0  0
    5.4277    1.5473  -19.9097 H   0  0  0  0  0  0
   -1.4510    3.5860  -26.8689 H   0  0  0  0  0  0
    0.4344    2.1289  -20.7888 H   0  0  0  0  0  0
    7.2220    0.6736  -21.7785 H   0  0  0  0  0  0
   -2.8946    3.7188  -28.2952 H   0  0  0  0  0  0
    8.0680    7.8240  -20.1450 N   0  0  0  0  0  0
    4.5840    7.2140  -21.0700 N   0  0  0  0  0  0
    9.6540    9.4350  -20.8390 N   0  0  0  0  0  0
    5.8670    7.7930  -21.0340 C   0  0  0  0  0  0
    3.6960    7.3800  -22.2390 C   0  0  0  0  0  0
    7.4450    9.4540  -21.7590 C   0  0  0  0  0  0
    8.3950    8.8980  -20.9090 C   0  0  0  0  0  0
    6.8150    7.2730  -20.2070 C   0  0  0  0  0  0
    6.1970    8.9140  -21.8180 C   0  0  0  0  0  0
    8.7661    7.4129  -19.5089 H   0  0  0  0  0  0
    4.2461    6.6612  -20.2693 H   0  0  0  0  0  0
    9.8989   10.2497  -21.4198 H   0  0  0  0  0  0
   10.3550    9.0240  -20.2060 H   0  0  0  0  0  0
    4.2502    7.8712  -23.0523 H   0  0  0  0  0  0
    2.8572    8.0388  -21.9701 H   0  0  0  0  0  0
    7.7001   10.3122  -22.3701 H   0  0  0  0  0  0
    6.5689    6.4137  -19.5938 H   0  0  0  0  0  0
    5.4552    9.3539  -22.4748 H   0  0  0  0  0  0
  1  2  2  0  0  0
  1  3  1  0  0  0
  1 34  1  0  0  0
  2  6  1  0  0  0
  2 35  1  0  0  0
  3  5  2  0  0  0
  3 27  1  0  0  0
  4  5  1  0  0  0
  4  6  2  0  0  0
  4 18  1  0  0  0
  5 24  1  0  0  0
  6 10  1  0  0  0
  7 10  2  0  0  0
  7 23  1  0  0  0
  7 33  1  0  0  0
  8 21  1  0  0  0
  8 22  1  0  0  0
  8 36  1  0  0  0
  8 37  1  0  0  0
  9 21  1  0  0  0
  9 31  1  0  0  0
  9 38  1  0  0  0
  9 39  1  0  0  0
 10 40  1  0  0  0
 11 12  2  0  0  0
 11 14  1  0  0  0
 11 15  1  0  0  0
 12 17  1  0  0  0
 12 28  1  0  0  0
 13 28  2  0  0  0
 13 29  1  0  0  0
 13 56  1  0  0  0
 14 29  2  0  0  0
 14 31  1  0  0  0
 15 30  2  0  0  0
 15 41  1  0  0  0
 16 17  2  0  0  0
 16 18  1  0  0  0
 16 30  1  0  0  0
 17 26  1  0  0  0
 18 23  2  0  0  0
 19 20  1  0  0  0
 19 31  1  0  0  0
 19 42  1  0  0  0
 19 43  1  0  0  0
 20 22  1  0  0  0
 20 32  1  0  0  0
 20 44  1  0  0  0
 21 32  1  0  0  0
 21 45  1  0  0  0
 22 46  1  0  0  0
 22 47  1  0  0  0
 23 48  1  0  0  0
 24 25  3  0  0  0
 25 49  1  0  0  0
 32 50  1  0  0  0
 33 51  1  0  0  0
 52 58  1  0  0  0
 52 59  1  0  0  0
 52 61  1  0  0  0
 53 55  1  0  0  0
 53 56  1  0  0  0
 53 62  1  0  0  0
 54 58  1  0  0  0
 54 63  1  0  0  0
 54 64  1  0  0  0
 55 59  2  0  0  0
 55 60  1  0  0  0
 56 65  1  0  0  0
 56 66  1  0  0  0
 57 58  2  0  0  0
 57 60  1  0  0  0
 57 67  1  0  0  0
 59 68  1  0  0  0
 60 69  1  0  0  0
M  END
> <s_m_entry_id>
166

> <s_m_entry_name>
000000166.1

> <s_m_Source_Path>
/Users/zaksoul/Documents/2

> <s_m_Source_File>
000000166.mol2

> <i_m_Source_File_Index>
1

$$$$
No_0_177
                    3D
 Schrodinger Suite 2022-4.
 69 75  0  0  1  0            999 V2000
   -5.3830    3.2950  -22.2860 C   0  0  0  0  0  0
   -5.6120    3.4800  -23.6290 C   0  0  0  0  0  0
   -4.1530    3.0500  -21.9090 C   0  0  0  0  0  0
   -3.2010    3.1760  -24.0490 C   0  0  0  0  0  0
   -3.0800    2.9350  -22.6240 C   0  0  0  0  0  0
   -4.5350    3.4300  -24.6090 C   0  0  0  0  0  0
   -3.7180    3.4510  -26.7840 C   0  0  0  0  0  0
    5.8610    2.7810  -21.2430 C   0  0  0  0  0  0
    5.7950    2.9160  -23.7950 C   0  0  0  0  0  0
   -4.7490    3.5530  -25.9510 C   0  0  0  0  0  0
    2.0090    3.4440  -23.9220 C   0  0  0  0  0  0
    1.1740    4.5490  -23.6490 C   0  0  0  0  0  0
    2.9460    5.7560  -22.9210 C   0  0  0  0  0  0
    3.3990    3.6430  -23.5690 C   0  0  0  0  0  0
    1.4880    2.3230  -24.5950 C   0  0  0  0  0  0
   -0.6460    3.1250  -24.5470 C   0  0  0  0  0  0
   -0.1430    4.3490  -23.9370 C   0  0  0  0  0  0
   -2.0880    3.1220  -24.9430 C   0  0  0  0  0  0
    4.0090    1.1490  -23.2540 C   0  0  0  0  0  0
    4.9120    0.8010  -22.0810 C   0  0  2  0  0  0
    6.5110    2.3490  -22.5750 C   0  0  2  0  0  0
    4.8550    1.8050  -20.9170 C   0  0  0  0  0  0
   -2.3740    3.2770  -26.3800 C   0  0  0  0  0  0
   -1.7510    2.5310  -21.9860 C   0  0  0  0  0  0
   -0.7330    2.1900  -21.4500 C   0  0  0  0  0  0
   -1.0000    5.3900  -23.6190 F   0  0  0  0  0  0
   -3.9810    2.8110  -20.5210 F   0  0  0  0  0  0
    1.6300    5.7120  -23.1060 N   0  0  0  0  0  0
    3.8530    4.7970  -23.1130 N   0  0  0  0  0  0
    0.1910    2.2250  -24.9370 N   0  0  0  0  0  0
    4.3270    2.6000  -23.7180 N   0  0  0  0  0  0
    6.3310    0.8750  -22.5230 N   0  0  1  0  0  0
   -3.8510    3.4610  -28.1790 O   0  0  0  0  0  0
   -6.2052    3.3562  -21.5822 H   0  0  0  0  0  0
   -6.6178    3.6687  -23.9864 H   0  0  0  0  0  0
    5.3885    3.7664  -21.3682 H   0  0  0  0  0  0
    6.6250    2.7971  -20.4518 H   0  0  0  0  0  0
    6.2178    2.4720  -24.7083 H   0  0  0  0  0  0
    5.9322    4.0069  -23.8273 H   0  0  0  0  0  0
   -5.7500    3.7317  -26.3265 H   0  0  0  0  0  0
    2.1389    1.4966  -24.8568 H   0  0  0  0  0  0
    2.9572    1.0874  -22.9380 H   0  0  0  0  0  0
    4.1987    0.4507  -24.0825 H   0  0  0  0  0  0
    4.6829   -0.2113  -21.7167 H   0  0  0  0  0  0
    7.5791    2.6115  -22.5922 H   0  0  0  0  0  0
    3.8680    2.2904  -20.9029 H   0  0  0  0  0  0
    5.1315    1.2945  -19.9827 H   0  0  0  0  0  0
   -1.5829    3.2589  -27.1209 H   0  0  0  0  0  0
    0.1630    1.8890  -20.9790 H   0  0  0  0  0  0
    6.9607    0.3821  -21.7971 H   0  0  0  0  0  0
   -2.9938    3.3769  -28.5799 H   0  0  0  0  0  0
    8.0490    7.6690  -20.8480 N   0  0  0  0  0  0
    4.5090    6.9310  -21.3890 N   0  0  0  0  0  0
    9.4730    9.3770  -21.6510 N   0  0  0  0  0  0
    5.7620    7.5680  -21.4780 C   0  0  0  0  0  0
    3.4850    7.0990  -22.4400 C   0  0  0  0  0  0
    7.1730    9.3260  -22.3090 C   0  0  0  0  0  0
    8.2390    8.7840  -21.5980 C   0  0  0  0  0  0
    6.8210    7.0630  -20.7880 C   0  0  0  0  0  0
    5.9510    8.7320  -22.2460 C   0  0  0  0  0  0
    8.8332    7.2674  -20.3145 H   0  0  0  0  0  0
    4.2909    6.3338  -20.5787 H   0  0  0  0  0  0
    9.6140   10.2232  -22.2211 H   0  0  0  0  0  0
   10.2599    8.9760  -21.1210 H   0  0  0  0  0  0
    3.9189    7.6448  -23.2908 H   0  0  0  0  0  0
    2.6559    7.7071  -22.0490 H   0  0  0  0  0  0
    7.3191   10.2174  -22.9083 H   0  0  0  0  0  0
    6.6850    6.1711  -20.1871 H   0  0  0  0  0  0
    5.1195    9.1607  -22.7936 H   0  0  0  0  0  0
  1  2  2  0  0  0
  1  3  1  0  0  0
  1 34  1  0  0  0
  2  6  1  0  0  0
  2 35  1  0  0  0
  3  5  2  0  0  0
  3 27  1  0  0  0
  4  5  1  0  0  0
  4  6  2  0  0  0
  4 18  1  0  0  0
  5 24  1  0  0  0
  6 10  1  0  0  0
  7 10  2  0  0  0
  7 23  1  0  0  0
  7 33  1  0  0  0
  8 21  1  0  0  0
  8 22  1  0  0  0
  8 36  1  0  0  0
  8 37  1  0  0  0
  9 21  1  0  0  0
  9 31  1  0  0  0
  9 38  1  0  0  0
  9 39  1  0  0  0
 10 40  1  0  0  0
 11 12  2  0  0  0
 11 14  1  0  0  0
 11 15  1  0  0  0
 12 17  1  0  0  0
 12 28  1  0  0  0
 13 28  2  0  0  0
 13 29  1  0  0  0
 13 56  1  0  0  0
 14 29  2  0  0  0
 14 31  1  0  0  0
 15 30  2  0  0  0
 15 41  1  0  0  0
 16 17  2  0  0  0
 16 18  1  0  0  0
 16 30  1  0  0  0
 17 26  1  0  0  0
 18 23  2  0  0  0
 19 20  1  0  0  0
 19 31  1  0  0  0
 19 42  1  0  0  0
 19 43  1  0  0  0
 20 22  1  0  0  0
 20 32  1  0  0  0
 20 44  1  0  0  0
 21 32  1  0  0  0
 21 45  1  0  0  0
 22 46  1  0  0  0
 22 47  1  0  0  0
 23 48  1  0  0  0
 24 25  3  0  0  0
 25 49  1  0  0  0
 32 50  1  0  0  0
 33 51  1  0  0  0
 52 58  1  0  0  0
 52 59  1  0  0  0
 52 61  1  0  0  0
 53 55  1  0  0  0
 53 56  1  0  0  0
 53 62  1  0  0  0
 54 58  1  0  0  0
 54 63  1  0  0  0
 54 64  1  0  0  0
 55 59  2  0  0  0
 55 60  1  0  0  0
 56 65  1  0  0  0
 56 66  1  0  0  0
 57 58  2  0  0  0
 57 60  1  0  0  0
 57 67  1  0  0  0
 59 68  1  0  0  0
 60 69  1  0  0  0
M  END
> <s_m_entry_id>
167

> <s_m_entry_name>
000000167.1

> <s_m_Source_Path>
/Users/zaksoul/Documents/2

> <s_m_Source_File>
000000167.mol2

> <i_m_Source_File_Index>
1

$$$$
No_0_178
                    3D
 Schrodinger Suite 2022-4.
 69 75  0  0  1  0            999 V2000
   -5.3210    3.2450  -22.0620 C   0  0  0  0  0  0
   -5.5650    3.4290  -23.4020 C   0  0  0  0  0  0
   -4.0820    3.0320  -21.6950 C   0  0  0  0  0  0
   -3.1510    3.1950  -23.8420 C   0  0  0  0  0  0
   -3.0120    2.9520  -22.4190 C   0  0  0  0  0  0
   -4.4950    3.4140  -24.3900 C   0  0  0  0  0  0
   -3.6950    3.4680  -26.5720 C   0  0  0  0  0  0
    5.9410    3.0420  -21.1050 C   0  0  0  0  0  0
    5.8510    3.1870  -23.6570 C   0  0  0  0  0  0
   -4.7220    3.5370  -25.7300 C   0  0  0  0  0  0
    2.0510    3.6090  -23.7520 C   0  0  0  0  0  0
    1.1880    4.6880  -23.4680 C   0  0  0  0  0  0
    2.9300    5.9410  -22.7470 C   0  0  0  0  0  0
    3.4370    3.8450  -23.4090 C   0  0  0  0  0  0
    1.5560    2.4760  -24.4270 C   0  0  0  0  0  0
   -0.5990    3.2180  -24.3590 C   0  0  0  0  0  0
   -0.1260    4.4530  -23.7470 C   0  0  0  0  0  0
   -2.0430    3.1770  -24.7440 C   0  0  0  0  0  0
    4.1200    1.3680  -23.1100 C   0  0  0  0  0  0
    5.0410    1.0400  -21.9450 C   0  0  2  0  0  0
    6.5920    2.6340  -22.4450 C   0  0  2  0  0  0
    4.9650    2.0370  -20.7760 C   0  0  0  0  0  0
   -2.3440    3.3290  -26.1780 C   0  0  0  0  0  0
   -1.6670    2.5810  -21.7930 C   0  0  0  0  0  0
   -0.6360    2.2670  -21.2660 C   0  0  0  0  0  0
   -1.0090    5.4690  -23.4170 F   0  0  0  0  0  0
   -3.8930    2.7930  -20.3100 F   0  0  0  0  0  0
    1.6140    5.8610  -22.9230 N   0  0  0  0  0  0
    3.8630    5.0100  -22.9510 N   0  0  0  0  0  0
    0.2600    2.3440  -24.7600 N   0  0  0  0  0  0
    4.3940    2.8290  -23.5690 N   0  0  0  0  0  0
    6.4540    1.1550  -22.3980 N   0  0  1  0  0  0
   -3.8390    3.4810  -27.9650 O   0  0  0  0  0  0
   -6.1389    3.2791  -21.3515 H   0  0  0  0  0  0
   -6.5784    3.5905  -23.7512 H   0  0  0  0  0  0
    5.4394    4.0139  -21.2221 H   0  0  0  0  0  0
    6.7103    3.0763  -20.3195 H   0  0  0  0  0  0
    6.2793    2.7587  -24.5752 H   0  0  0  0  0  0
    5.9579    4.2815  -23.6842 H   0  0  0  0  0  0
   -5.7304    3.6895  -26.0972 H   0  0  0  0  0  0
    2.2284    1.6701  -24.6980 H   0  0  0  0  0  0
    3.0725    1.2762  -22.7871 H   0  0  0  0  0  0
    4.3229    0.6786  -23.9428 H   0  0  0  0  0  0
    4.8423    0.0202  -21.5839 H   0  0  0  0  0  0
    7.6519    2.9275  -22.4682 H   0  0  0  0  0  0
    3.9648    2.4942  -20.7528 H   0  0  0  0  0  0
    5.2628    1.5302  -19.8462 H   0  0  0  0  0  0
   -1.5582    3.3380  -26.9247 H   0  0  0  0  0  0
    0.2716    1.9898  -20.8027 H   0  0  0  0  0  0
    7.1032    0.6770  -21.6793 H   0  0  0  0  0  0
   -2.9829    3.4226  -28.3727 H   0  0  0  0  0  0
    8.1560    8.2160  -21.5140 N   0  0  0  0  0  0
    4.6550    7.1640  -21.4430 N   0  0  0  0  0  0
    9.2440   10.1080  -22.4230 N   0  0  0  0  0  0
    5.8070    7.9270  -21.7100 C   0  0  0  0  0  0
    3.4350    7.2970  -22.2640 C   0  0  0  0  0  0
    6.8730    9.8700  -22.6390 C   0  0  0  0  0  0
    8.0990    9.3920  -22.1900 C   0  0  0  0  0  0
    7.0200    7.4870  -21.2770 C   0  0  0  0  0  0
    5.7420    9.1530  -22.3990 C   0  0  0  0  0  0
    9.0611    7.8610  -21.1740 H   0  0  0  0  0  0
    4.6510    6.4949  -20.6599 H   0  0  0  0  0  0
    9.1980   11.0002  -22.9356 H   0  0  0  0  0  0
   10.1507    9.7541  -22.0861 H   0  0  0  0  0  0
    3.6460    7.9390  -23.1320 H   0  0  0  0  0  0
    2.6486    7.7913  -21.6747 H   0  0  0  0  0  0
    6.8220   10.8093  -23.1776 H   0  0  0  0  0  0
    7.0810    6.5479  -20.7390 H   0  0  0  0  0  0
    4.7863    9.5319  -22.7429 H   0  0  0  0  0  0
  1  2  2  0  0  0
  1  3  1  0  0  0
  1 34  1  0  0  0
  2  6  1  0  0  0
  2 35  1  0  0  0
  3  5  2  0  0  0
  3 27  1  0  0  0
  4  5  1  0  0  0
  4  6  2  0  0  0
  4 18  1  0  0  0
  5 24  1  0  0  0
  6 10  1  0  0  0
  7 10  2  0  0  0
  7 23  1  0  0  0
  7 33  1  0  0  0
  8 21  1  0  0  0
  8 22  1  0  0  0
  8 36  1  0  0  0
  8 37  1  0  0  0
  9 21  1  0  0  0
  9 31  1  0  0  0
  9 38  1  0  0  0
  9 39  1  0  0  0
 10 40  1  0  0  0
 11 12  2  0  0  0
 11 14  1  0  0  0
 11 15  1  0  0  0
 12 17  1  0  0  0
 12 28  1  0  0  0
 13 28  2  0  0  0
 13 29  1  0  0  0
 13 56  1  0  0  0
 14 29  2  0  0  0
 14 31  1  0  0  0
 15 30  2  0  0  0
 15 41  1  0  0  0
 16 17  2  0  0  0
 16 18  1  0  0  0
 16 30  1  0  0  0
 17 26  1  0  0  0
 18 23  2  0  0  0
 19 20  1  0  0  0
 19 31  1  0  0  0
 19 42  1  0  0  0
 19 43  1  0  0  0
 20 22  1  0  0  0
 20 32  1  0  0  0
 20 44  1  0  0  0
 21 32  1  0  0  0
 21 45  1  0  0  0
 22 46  1  0  0  0
 22 47  1  0  0  0
 23 48  1  0  0  0
 24 25  3  0  0  0
 25 49  1  0  0  0
 32 50  1  0  0  0
 33 51  1  0  0  0
 52 58  1  0  0  0
 52 59  1  0  0  0
 52 61  1  0  0  0
 53 55  1  0  0  0
 53 56  1  0  0  0
 53 62  1  0  0  0
 54 58  1  0  0  0
 54 63  1  0  0  0
 54 64  1  0  0  0
 55 59  2  0  0  0
 55 60  1  0  0  0
 56 65  1  0  0  0
 56 66  1  0  0  0
 57 58  2  0  0  0
 57 60  1  0  0  0
 57 67  1  0  0  0
 59 68  1  0  0  0
 60 69  1  0  0  0
M  END
> <s_m_entry_id>
168

> <s_m_entry_name>
000000168.1

> <s_m_Source_Path>
/Users/zaksoul/Documents/2

> <s_m_Source_File>
000000168.mol2

> <i_m_Source_File_Index>
1

$$$$
No_0_179
                    3D
 Schrodinger Suite 2022-4.
 69 75  0  0  1  0            999 V2000
   -5.5310    3.3280  -21.9020 C   0  0  0  0  0  0
   -5.7840    3.4960  -23.2430 C   0  0  0  0  0  0
   -4.2940    3.0910  -21.5450 C   0  0  0  0  0  0
   -3.3800    3.1960  -23.7020 C   0  0  0  0  0  0
   -3.2330    2.9720  -22.2770 C   0  0  0  0  0  0
   -4.7250    3.4390  -24.2410 C   0  0  0  0  0  0
   -3.9460    3.4390  -26.4310 C   0  0  0  0  0  0
    5.7320    2.8650  -21.0510 C   0  0  0  0  0  0
    5.6200    2.9720  -23.6040 C   0  0  0  0  0  0
   -4.9620    3.5470  -25.5810 C   0  0  0  0  0  0
    1.8300    3.4850  -23.6690 C   0  0  0  0  0  0
    0.9960    4.5890  -23.3940 C   0  0  0  0  0  0
    2.7760    5.8110  -22.7110 C   0  0  0  0  0  0
    3.2250    3.6930  -23.3440 C   0  0  0  0  0  0
    1.3020    2.3540  -24.3210 C   0  0  0  0  0  0
   -0.8340    3.1490  -24.2450 C   0  0  0  0  0  0
   -0.3250    4.3820  -23.6570 C   0  0  0  0  0  0
   -2.2830    3.1370  -24.6150 C   0  0  0  0  0  0
    3.8510    1.2050  -23.0120 C   0  0  0  0  0  0
    4.7750    0.8730  -21.8500 C   0  0  2  0  0  0
    6.3600    2.4210  -22.3900 C   0  0  2  0  0  0
    4.7350    1.8900  -20.6970 C   0  0  0  0  0  0
   -2.5940    3.2740  -26.0480 C   0  0  0  0  0  0
   -1.8920    2.5800  -21.6580 C   0  0  0  0  0  0
   -0.8630    2.2480  -21.1370 C   0  0  0  0  0  0
   -1.1800    5.4240  -23.3350 F   0  0  0  0  0  0
   -4.0970    2.8690  -20.1570 F   0  0  0  0  0  0
    1.4570    5.7600  -22.8730 N   0  0  0  0  0  0
    3.6830    4.8540  -22.9090 N   0  0  0  0  0  0
   -0.0010    2.2480  -24.6400 N   0  0  0  0  0  0
    4.1550    2.6510  -23.4970 N   0  0  0  0  0  0
    6.1860    0.9470  -22.3180 N   0  0  1  0  0  0
   -4.1040    3.4330  -27.8230 O   0  0  0  0  0  0
   -6.3414    3.3933  -21.1850 H   0  0  0  0  0  0
   -6.7967    3.6777  -23.5843 H   0  0  0  0  0  0
    5.2527    3.8468  -21.1791 H   0  0  0  0  0  0
    6.5096    2.8933  -20.2734 H   0  0  0  0  0  0
    6.0278    2.5188  -24.5196 H   0  0  0  0  0  0
    5.7532    4.0629  -23.6504 H   0  0  0  0  0  0
   -5.9704    3.7176  -25.9402 H   0  0  0  0  0  0
    1.9513    1.5271  -24.5849 H   0  0  0  0  0  0
    2.8050    1.1435  -22.6771 H   0  0  0  0  0  0
    4.0287    0.4971  -23.8350 H   0  0  0  0  0  0
    4.5560   -0.1360  -21.4706 H   0  0  0  0  0  0
    7.4265    2.6876  -22.4294 H   0  0  0  0  0  0
    3.7464    2.3717  -20.6707 H   0  0  0  0  0  0
    5.0296    1.3916  -19.7617 H   0  0  0  0  0  0
   -1.8162    3.2509  -26.8027 H   0  0  0  0  0  0
    0.0419    1.9570  -20.6770 H   0  0  0  0  0  0
    6.8306    0.4638  -21.5986 H   0  0  0  0  0  0
   -3.2535    3.3470  -28.2374 H   0  0  0  0  0  0
    8.0320    8.3320  -22.5760 N   0  0  0  0  0  0
    4.7050    7.0530  -21.7600 N   0  0  0  0  0  0
    8.7780   10.3470  -23.5630 N   0  0  0  0  0  0
    5.7210    7.9060  -22.2310 C   0  0  0  0  0  0
    3.3180    7.1610  -22.2550 C   0  0  0  0  0  0
    6.4390    9.9710  -23.2280 C   0  0  0  0  0  0
    7.7590    9.5450  -23.1220 C   0  0  0  0  0  0
    7.0220    7.5170  -22.1350 C   0  0  0  0  0  0
    5.4340    9.1680  -22.7850 C   0  0  0  0  0  0
    9.0078    8.0141  -22.4890 H   0  0  0  0  0  0
    4.9220    6.3351  -21.0541 H   0  0  0  0  0  0
    8.5681   11.2666  -23.9768 H   0  0  0  0  0  0
    9.7548   10.0311  -23.4800 H   0  0  0  0  0  0
    3.2830    7.8718  -23.0938 H   0  0  0  0  0  0
    2.6753    7.5638  -21.4584 H   0  0  0  0  0  0
    6.2151   10.9384  -23.6627 H   0  0  0  0  0  0
    7.2549    6.5504  -21.7032 H   0  0  0  0  0  0
    4.4068    9.5061  -22.8600 H   0  0  0  0  0  0
  1  2  2  0  0  0
  1  3  1  0  0  0
  1 34  1  0  0  0
  2  6  1  0  0  0
  2 35  1  0  0  0
  3  5  2  0  0  0
  3 27  1  0  0  0
  4  5  1  0  0  0
  4  6  2  0  0  0
  4 18  1  0  0  0
  5 24  1  0  0  0
  6 10  1  0  0  0
  7 10  2  0  0  0
  7 23  1  0  0  0
  7 33  1  0  0  0
  8 21  1  0  0  0
  8 22  1  0  0  0
  8 36  1  0  0  0
  8 37  1  0  0  0
  9 21  1  0  0  0
  9 31  1  0  0  0
  9 38  1  0  0  0
  9 39  1  0  0  0
 10 40  1  0  0  0
 11 12  2  0  0  0
 11 14  1  0  0  0
 11 15  1  0  0  0
 12 17  1  0  0  0
 12 28  1  0  0  0
 13 28  2  0  0  0
 13 29  1  0  0  0
 13 56  1  0  0  0
 14 29  2  0  0  0
 14 31  1  0  0  0
 15 30  2  0  0  0
 15 41  1  0  0  0
 16 17  2  0  0  0
 16 18  1  0  0  0
 16 30  1  0  0  0
 17 26  1  0  0  0
 18 23  2  0  0  0
 19 20  1  0  0  0
 19 31  1  0  0  0
 19 42  1  0  0  0
 19 43  1  0  0  0
 20 22  1  0  0  0
 20 32  1  0  0  0
 20 44  1  0  0  0
 21 32  1  0  0  0
 21 45  1  0  0  0
 22 46  1  0  0  0
 22 47  1  0  0  0
 23 48  1  0  0  0
 24 25  3  0  0  0
 25 49  1  0  0  0
 32 50  1  0  0  0
 33 51  1  0  0  0
 52 58  1  0  0  0
 52 59  1  0  0  0
 52 61  1  0  0  0
 53 55  1  0  0  0
 53 56  1  0  0  0
 53 62  1  0  0  0
 54 58  1  0  0  0
 54 63  1  0  0  0
 54 64  1  0  0  0
 55 59  2  0  0  0
 55 60  1  0  0  0
 56 65  1  0  0  0
 56 66  1  0  0  0
 57 58  2  0  0  0
 57 60  1  0  0  0
 57 67  1  0  0  0
 59 68  1  0  0  0
 60 69  1  0  0  0
M  END
> <s_m_entry_id>
169

> <s_m_entry_name>
000000169.1

> <s_m_Source_Path>
/Users/zaksoul/Documents/2

> <s_m_Source_File>
000000169.mol2

> <i_m_Source_File_Index>
1

$$$$
No_0_180
                    3D
 Schrodinger Suite 2022-4.
 69 75  0  0  1  0            999 V2000
   -5.4760    3.5380  -22.0330 C   0  0  0  0  0  0
   -5.6890    3.7470  -23.3760 C   0  0  0  0  0  0
   -4.2500    3.2950  -21.6450 C   0  0  0  0  0  0
   -3.2710    3.4710  -23.7690 C   0  0  0  0  0  0
   -3.1660    3.2040  -22.3470 C   0  0  0  0  0  0
   -4.5980    3.7250  -24.3410 C   0  0  0  0  0  0
   -3.7520    3.7950  -26.5050 C   0  0  0  0  0  0
    5.7570    3.0940  -20.8470 C   0  0  0  0  0  0
    5.7230    3.2790  -23.3970 C   0  0  0  0  0  0
   -4.7950    3.8730  -25.6840 C   0  0  0  0  0  0
    1.9350    3.7790  -23.5650 C   0  0  0  0  0  0
    1.0880    4.8710  -23.2820 C   0  0  0  0  0  0
    2.8390    6.0780  -22.5070 C   0  0  0  0  0  0
    3.3190    3.9820  -23.1900 C   0  0  0  0  0  0
    1.4330    2.6660  -24.2670 C   0  0  0  0  0  0
   -0.7080    3.4500  -24.2330 C   0  0  0  0  0  0
   -0.2240    4.6660  -23.5920 C   0  0  0  0  0  0
   -2.1450    3.4440  -24.6480 C   0  0  0  0  0  0
    3.9450    1.4870  -22.9150 C   0  0  0  0  0  0
    4.8350    1.1240  -21.7360 C   0  0  2  0  0  0
    6.4280    2.6940  -22.1790 C   0  0  2  0  0  0
    4.7540    2.1040  -20.5540 C   0  0  0  0  0  0
   -2.4130    3.6240  -26.0860 C   0  0  0  0  0  0
   -1.8430    2.7970  -21.6990 C   0  0  0  0  0  0
   -0.8300    2.4540  -21.1560 C   0  0  0  0  0  0
   -1.0940    5.6940  -23.2650 F   0  0  0  0  0  0
   -4.0950    3.0310  -20.2590 F   0  0  0  0  0  0
    1.5260    6.0270  -22.7110 N   0  0  0  0  0  0
    3.7570    5.1310  -22.7050 N   0  0  0  0  0  0
    0.1420    2.5650  -24.6290 N   0  0  0  0  0  0
    4.2580    2.9490  -23.3460 N   0  0  0  0  0  0
    6.2600    1.2170  -22.1580 N   0  0  1  0  0  0
   -3.8670    3.8320  -27.9000 O   0  0  0  0  0  0
   -6.3090    3.5781  -21.3405 H   0  0  0  0  0  0
   -6.6913    3.9348  -23.7436 H   0  0  0  0  0  0
    5.2778    4.0777  -20.9600 H   0  0  0  0  0  0
    6.5097    3.1011  -20.0449 H   0  0  0  0  0  0
    6.1621    2.8560  -24.3126 H   0  0  0  0  0  0
    5.8521    4.3714  -23.4061 H   0  0  0  0  0  0
   -5.7925    4.0506  -26.0694 H   0  0  0  0  0  0
    2.0947    1.8507  -24.5361 H   0  0  0  0  0  0
    2.8897    1.4113  -22.6141 H   0  0  0  0  0  0
    4.1520    0.8065  -23.7541 H   0  0  0  0  0  0
    4.6090    0.1029  -21.3950 H   0  0  0  0  0  0
    7.4940    2.9655  -22.1760 H   0  0  0  0  0  0
    3.7630    2.5813  -20.5439 H   0  0  0  0  0  0
    5.0224    1.5783  -19.6258 H   0  0  0  0  0  0
   -1.6112    3.6270  -26.8155 H   0  0  0  0  0  0
    0.0619    2.1520  -20.6780 H   0  0  0  0  0  0
    6.8836    0.7154  -21.4328 H   0  0  0  0  0  0
   -3.0044    3.7618  -28.2917 H   0  0  0  0  0  0
    7.8100    9.0760  -23.0610 N   0  0  0  0  0  0
    4.8230    7.3910  -21.7920 N   0  0  0  0  0  0
    8.1880   11.2520  -23.9040 N   0  0  0  0  0  0
    5.6560    8.3870  -22.3360 C   0  0  0  0  0  0
    3.3600    7.4160  -21.9930 C   0  0  0  0  0  0
    6.0000   10.6120  -23.1770 C   0  0  0  0  0  0
    7.3420   10.3090  -23.3830 C   0  0  0  0  0  0
    6.9750    8.1210  -22.5430 C   0  0  0  0  0  0
    5.1690    9.6680  -22.6560 C   0  0  0  0  0  0
    8.8041    8.8480  -23.2050 H   0  0  0  0  0  0
    5.2318    6.6233  -21.2402 H   0  0  0  0  0  0
    7.8301   12.1868  -24.1469 H   0  0  0  0  0  0
    9.1822   11.0270  -24.0520 H   0  0  0  0  0  0
    3.1029    8.2093  -22.7103 H   0  0  0  0  0  0
    2.8641    7.6610  -21.0422 H   0  0  0  0  0  0
    5.6209   11.5953  -23.4311 H   0  0  0  0  0  0
    7.3621    7.1398  -22.2930 H   0  0  0  0  0  0
    4.1255    9.9089  -22.4881 H   0  0  0  0  0  0
  1  2  2  0  0  0
  1  3  1  0  0  0
  1 34  1  0  0  0
  2  6  1  0  0  0
  2 35  1  0  0  0
  3  5  2  0  0  0
  3 27  1  0  0  0
  4  5  1  0  0  0
  4  6  2  0  0  0
  4 18  1  0  0  0
  5 24  1  0  0  0
  6 10  1  0  0  0
  7 10  2  0  0  0
  7 23  1  0  0  0
  7 33  1  0  0  0
  8 21  1  0  0  0
  8 22  1  0  0  0
  8 36  1  0  0  0
  8 37  1  0  0  0
  9 21  1  0  0  0
  9 31  1  0  0  0
  9 38  1  0  0  0
  9 39  1  0  0  0
 10 40  1  0  0  0
 11 12  2  0  0  0
 11 14  1  0  0  0
 11 15  1  0  0  0
 12 17  1  0  0  0
 12 28  1  0  0  0
 13 28  2  0  0  0
 13 29  1  0  0  0
 13 56  1  0  0  0
 14 29  2  0  0  0
 14 31  1  0  0  0
 15 30  2  0  0  0
 15 41  1  0  0  0
 16 17  2  0  0  0
 16 18  1  0  0  0
 16 30  1  0  0  0
 17 26  1  0  0  0
 18 23  2  0  0  0
 19 20  1  0  0  0
 19 31  1  0  0  0
 19 42  1  0  0  0
 19 43  1  0  0  0
 20 22  1  0  0  0
 20 32  1  0  0  0
 20 44  1  0  0  0
 21 32  1  0  0  0
 21 45  1  0  0  0
 22 46  1  0  0  0
 22 47  1  0  0  0
 23 48  1  0  0  0
 24 25  3  0  0  0
 25 49  1  0  0  0
 32 50  1  0  0  0
 33 51  1  0  0  0
 52 58  1  0  0  0
 52 59  1  0  0  0
 52 61  1  0  0  0
 53 55  1  0  0  0
 53 56  1  0  0  0
 53 62  1  0  0  0
 54 58  1  0  0  0
 54 63  1  0  0  0
 54 64  1  0  0  0
 55 59  2  0  0  0
 55 60  1  0  0  0
 56 65  1  0  0  0
 56 66  1  0  0  0
 57 58  2  0  0  0
 57 60  1  0  0  0
 57 67  1  0  0  0
 59 68  1  0  0  0
 60 69  1  0  0  0
M  END
> <s_m_entry_id>
170

> <s_m_entry_name>
000000170.1

> <s_m_Source_Path>
/Users/zaksoul/Documents/2

> <s_m_Source_File>
000000170.mol2

> <i_m_Source_File_Index>
1

$$$$
No_0_181
                    3D
 Schrodinger Suite 2022-4.
 69 75  0  0  1  0            999 V2000
   -5.3370    3.1300  -22.0660 C   0  0  0  0  0  0
   -5.5500    3.3520  -23.4050 C   0  0  0  0  0  0
   -4.1060    2.9130  -21.6770 C   0  0  0  0  0  0
   -3.1250    3.1440  -23.7940 C   0  0  0  0  0  0
   -3.0180    2.8590  -22.3760 C   0  0  0  0  0  0
   -4.4570    3.3720  -24.3680 C   0  0  0  0  0  0
   -3.6060    3.4940  -26.5280 C   0  0  0  0  0  0
    5.9000    2.9590  -20.8480 C   0  0  0  0  0  0
    5.8700    3.1790  -23.3960 C   0  0  0  0  0  0
   -4.6530    3.5330  -25.7090 C   0  0  0  0  0  0
    2.0710    3.5820  -23.5690 C   0  0  0  0  0  0
    1.1940    4.6490  -23.2740 C   0  0  0  0  0  0
    2.9120    5.8890  -22.4760 C   0  0  0  0  0  0
    3.4470    3.8160  -23.1860 C   0  0  0  0  0  0
    1.5990    2.4680  -24.2890 C   0  0  0  0  0  0
   -0.5610    3.1950  -24.2500 C   0  0  0  0  0  0
   -0.1100    4.4150  -23.5910 C   0  0  0  0  0  0
   -1.9960    3.1580  -24.6700 C   0  0  0  0  0  0
    4.1380    1.3350  -22.9440 C   0  0  0  0  0  0
    5.0330    0.9780  -21.7680 C   0  0  2  0  0  0
    6.5860    2.5940  -22.1830 C   0  0  2  0  0  0
    4.9230    1.9390  -20.5720 C   0  0  0  0  0  0
   -2.2640    3.3510  -26.1060 C   0  0  0  0  0  0
   -1.6860    2.4780  -21.7300 C   0  0  0  0  0  0
   -0.6660    2.1530  -21.1880 C   0  0  0  0  0  0
   -1.0070    5.4150  -23.2530 F   0  0  0  0  0  0
   -3.9480    2.6340  -20.2940 F   0  0  0  0  0  0
    1.6010    5.8070  -22.6850 N   0  0  0  0  0  0
    3.8550    4.9690  -22.6840 N   0  0  0  0  0  0
    0.3120    2.3380  -24.6560 N   0  0  0  0  0  0
    4.4130    2.8100  -23.3540 N   0  0  0  0  0  0
    6.4560    1.1140  -22.1830 N   0  0  1  0  0  0
   -3.7180    3.5470  -27.9230 O   0  0  0  0  0  0
   -6.1719    3.1390  -21.3746 H   0  0  0  0  0  0
   -6.5558    3.5186  -23.7734 H   0  0  0  0  0  0
    5.3961    3.9315  -20.9490 H   0  0  0  0  0  0
    6.6506    2.9741  -20.0440 H   0  0  0  0  0  0
    6.3222    2.7793  -24.3156 H   0  0  0  0  0  0
    5.9710    4.2743  -23.3879 H   0  0  0  0  0  0
   -5.6535    3.6905  -26.0953 H   0  0  0  0  0  0
    2.2821    1.6735  -24.5669 H   0  0  0  0  0  0
    3.0839    1.2281  -22.6484 H   0  0  0  0  0  0
    4.3640    0.6711  -23.7915 H   0  0  0  0  0  0
    4.8323   -0.0530  -21.4412 H   0  0  0  0  0  0
    7.6444    2.8936  -22.1729 H   0  0  0  0  0  0
    3.9198    2.3901  -20.5589 H   0  0  0  0  0  0
    5.2025    1.4071  -19.6506 H   0  0  0  0  0  0
   -1.4612    3.3861  -26.8335 H   0  0  0  0  0  0
    0.2324    1.8679  -20.7118 H   0  0  0  0  0  0
    7.0902    0.6178  -21.4633 H   0  0  0  0  0  0
   -2.8522    3.5054  -28.3119 H   0  0  0  0  0  0
    3.7280    8.1060  -23.0370 O   0  0  0  0  0  0
    5.4930    9.3280  -21.9900 N   0  0  0  0  0  0
    6.8330    9.2080  -20.0470 C   0  0  0  0  0  0
    7.8380    9.1530  -22.2130 C   0  0  0  0  0  0
    3.3970    7.2330  -21.9410 C   0  0  0  0  0  0
    4.1710    9.4080  -22.6020 C   0  0  0  0  0  0
    5.6060    9.3140  -20.6360 C   0  0  0  0  0  0
    6.5980    9.2540  -22.7750 C   0  0  0  0  0  0
    7.9630    9.1260  -20.8370 C   0  0  0  0  0  0
    6.9150    9.1900  -18.9663 H   0  0  0  0  0  0
    8.7173    9.0950  -22.8442 H   0  0  0  0  0  0
    2.6040    7.6930  -21.3330 H   0  0  0  0  0  0
    4.2873    7.0780  -21.3138 H   0  0  0  0  0  0
    3.4537    9.8142  -21.8737 H   0  0  0  0  0  0
    4.2080   10.0890  -23.4650 H   0  0  0  0  0  0
    4.7190    9.3860  -20.0170 H   0  0  0  0  0  0
    6.4981    9.2760  -23.8542 H   0  0  0  0  0  0
    8.9409    9.0410  -20.3771 H   0  0  0  0  0  0
  1  2  2  0  0  0
  1  3  1  0  0  0
  1 34  1  0  0  0
  2  6  1  0  0  0
  2 35  1  0  0  0
  3  5  2  0  0  0
  3 27  1  0  0  0
  4  5  1  0  0  0
  4  6  2  0  0  0
  4 18  1  0  0  0
  5 24  1  0  0  0
  6 10  1  0  0  0
  7 10  2  0  0  0
  7 23  1  0  0  0
  7 33  1  0  0  0
  8 21  1  0  0  0
  8 22  1  0  0  0
  8 36  1  0  0  0
  8 37  1  0  0  0
  9 21  1  0  0  0
  9 31  1  0  0  0
  9 38  1  0  0  0
  9 39  1  0  0  0
 10 40  1  0  0  0
 11 12  2  0  0  0
 11 14  1  0  0  0
 11 15  1  0  0  0
 12 17  1  0  0  0
 12 28  1  0  0  0
 13 28  2  0  0  0
 13 29  1  0  0  0
 13 56  1  0  0  0
 14 29  2  0  0  0
 14 31  1  0  0  0
 15 30  2  0  0  0
 15 41  1  0  0  0
 16 17  2  0  0  0
 16 18  1  0  0  0
 16 30  1  0  0  0
 17 26  1  0  0  0
 18 23  2  0  0  0
 19 20  1  0  0  0
 19 31  1  0  0  0
 19 42  1  0  0  0
 19 43  1  0  0  0
 20 22  1  0  0  0
 20 32  1  0  0  0
 20 44  1  0  0  0
 21 32  1  0  0  0
 21 45  1  0  0  0
 22 46  1  0  0  0
 22 47  1  0  0  0
 23 48  1  0  0  0
 24 25  3  0  0  0
 25 49  1  0  0  0
 32 50  1  0  0  0
 33 51  1  0  0  0
 52 56  1  0  0  0
 52 57  1  0  0  0
 53 57  1  0  0  0
 53 58  1  0  0  0
 53 59  1  0  0  0
 54 58  2  0  0  0
 54 60  1  0  0  0
 54 61  1  0  0  0
 55 59  2  0  0  0
 55 60  1  0  0  0
 55 62  1  0  0  0
 56 63  1  0  0  0
 56 64  1  0  0  0
 57 65  1  0  0  0
 57 66  1  0  0  0
 58 67  1  0  0  0
 59 68  1  0  0  0
 60 69  1  0  0  0
M  END
> <s_m_entry_id>
171

> <s_m_entry_name>
000000171.1

> <s_m_Source_Path>
/Users/zaksoul/Documents/2

> <s_m_Source_File>
000000171.mol2

> <i_m_Source_File_Index>
1

$$$$
No_0_182
                    3D
 Schrodinger Suite 2022-4.
 69 75  0  0  1  0            999 V2000
   -5.2740    3.3670  -22.1360 C   0  0  0  0  0  0
   -5.4830    3.5660  -23.4800 C   0  0  0  0  0  0
   -4.0490    3.1240  -21.7430 C   0  0  0  0  0  0
   -3.0640    3.2830  -23.8660 C   0  0  0  0  0  0
   -2.9630    3.0260  -22.4420 C   0  0  0  0  0  0
   -4.3910    3.5360  -24.4430 C   0  0  0  0  0  0
   -3.5390    3.5900  -26.6060 C   0  0  0  0  0  0
    5.9560    2.9110  -20.9230 C   0  0  0  0  0  0
    5.9280    3.0790  -23.4740 C   0  0  0  0  0  0
   -4.5840    3.6750  -25.7870 C   0  0  0  0  0  0
    2.1420    3.5840  -23.6530 C   0  0  0  0  0  0
    1.2950    4.6790  -23.3800 C   0  0  0  0  0  0
    3.0470    5.8880  -22.6090 C   0  0  0  0  0  0
    3.5250    3.7870  -23.2770 C   0  0  0  0  0  0
    1.6380    2.4670  -24.3490 C   0  0  0  0  0  0
   -0.5010    3.2550  -24.3250 C   0  0  0  0  0  0
   -0.0160    4.4750  -23.6910 C   0  0  0  0  0  0
   -1.9370    3.2480  -24.7430 C   0  0  0  0  0  0
    4.1460    1.2930  -22.9830 C   0  0  0  0  0  0
    5.0330    0.9360  -21.8000 C   0  0  2  0  0  0
    6.6290    2.5000  -22.2500 C   0  0  2  0  0  0
    4.9510    1.9250  -20.6250 C   0  0  0  0  0  0
   -2.2010    3.4190  -26.1820 C   0  0  0  0  0  0
   -1.6420    2.6210  -21.7890 C   0  0  0  0  0  0
   -0.6310    2.2800  -21.2420 C   0  0  0  0  0  0
   -0.8850    5.5070  -23.3730 F   0  0  0  0  0  0
   -3.8970    2.8690  -20.3560 F   0  0  0  0  0  0
    1.7350    5.8380  -22.8160 N   0  0  0  0  0  0
    3.9640    4.9380  -22.7990 N   0  0  0  0  0  0
    0.3480    2.3660  -24.7130 N   0  0  0  0  0  0
    4.4620    2.7520  -23.4230 N   0  0  0  0  0  0
    6.4580    1.0240  -22.2190 N   0  0  1  0  0  0
   -3.6510    3.6170  -28.0020 O   0  0  0  0  0  0
   -6.1078    3.4132  -21.4448 H   0  0  0  0  0  0
   -6.4842    3.7538  -23.8506 H   0  0  0  0  0  0
    5.4787    3.8948  -21.0431 H   0  0  0  0  0  0
    6.7071    2.9221  -20.1194 H   0  0  0  0  0  0
    6.3682    2.6489  -24.3857 H   0  0  0  0  0  0
    6.0592    4.1710  -23.4891 H   0  0  0  0  0  0
   -5.5802    3.8516  -26.1762 H   0  0  0  0  0  0
    2.2994    1.6491  -24.6109 H   0  0  0  0  0  0
    3.0896    1.2213  -22.6851 H   0  0  0  0  0  0
    4.3539    0.6059  -23.8164 H   0  0  0  0  0  0
    4.8049   -0.0825  -21.4528 H   0  0  0  0  0  0
    7.6953    2.7703  -22.2470 H   0  0  0  0  0  0
    3.9606    2.4036  -20.6200 H   0  0  0  0  0  0
    5.2163    1.4045  -19.6930 H   0  0  0  0  0  0
   -1.3983    3.4170  -26.9105 H   0  0  0  0  0  0
    0.2596    1.9801  -20.7602 H   0  0  0  0  0  0
    7.0803    0.5268  -21.4897 H   0  0  0  0  0  0
   -2.7869    3.5438  -28.3900 H   0  0  0  0  0  0
    3.5910    8.1850  -23.1790 O   0  0  0  0  0  0
    5.4820    9.4630  -22.4740 N   0  0  0  0  0  0
    7.2390    9.3230  -20.8990 C   0  0  0  0  0  0
    7.7190    9.4630  -23.2350 C   0  0  0  0  0  0
    3.5700    7.2290  -22.1030 C   0  0  0  0  0  0
    4.0520    9.4870  -22.7630 C   0  0  0  0  0  0
    5.9060    9.3780  -21.1860 C   0  0  0  0  0  0
    6.3780    9.5110  -23.4930 C   0  0  0  0  0  0
    8.1590    9.3650  -21.9290 C   0  0  0  0  0  0
    7.5692    9.2470  -19.8693 H   0  0  0  0  0  0
    8.4302    9.5020  -24.0522 H   0  0  0  0  0  0
    2.9152    7.5969  -21.2993 H   0  0  0  0  0  0
    4.5880    7.0990  -21.7070 H   0  0  0  0  0  0
    3.5017    9.8002  -21.8635 H   0  0  0  0  0  0
    3.8520   10.2181  -23.5601 H   0  0  0  0  0  0
    5.1834    9.3530  -20.3784 H   0  0  0  0  0  0
    6.0310    9.5880  -24.5171 H   0  0  0  0  0  0
    9.2199    9.3210  -21.7108 H   0  0  0  0  0  0
  1  2  2  0  0  0
  1  3  1  0  0  0
  1 34  1  0  0  0
  2  6  1  0  0  0
  2 35  1  0  0  0
  3  5  2  0  0  0
  3 27  1  0  0  0
  4  5  1  0  0  0
  4  6  2  0  0  0
  4 18  1  0  0  0
  5 24  1  0  0  0
  6 10  1  0  0  0
  7 10  2  0  0  0
  7 23  1  0  0  0
  7 33  1  0  0  0
  8 21  1  0  0  0
  8 22  1  0  0  0
  8 36  1  0  0  0
  8 37  1  0  0  0
  9 21  1  0  0  0
  9 31  1  0  0  0
  9 38  1  0  0  0
  9 39  1  0  0  0
 10 40  1  0  0  0
 11 12  2  0  0  0
 11 14  1  0  0  0
 11 15  1  0  0  0
 12 17  1  0  0  0
 12 28  1  0  0  0
 13 28  2  0  0  0
 13 29  1  0  0  0
 13 56  1  0  0  0
 14 29  2  0  0  0
 14 31  1  0  0  0
 15 30  2  0  0  0
 15 41  1  0  0  0
 16 17  2  0  0  0
 16 18  1  0  0  0
 16 30  1  0  0  0
 17 26  1  0  0  0
 18 23  2  0  0  0
 19 20  1  0  0  0
 19 31  1  0  0  0
 19 42  1  0  0  0
 19 43  1  0  0  0
 20 22  1  0  0  0
 20 32  1  0  0  0
 20 44  1  0  0  0
 21 32  1  0  0  0
 21 45  1  0  0  0
 22 46  1  0  0  0
 22 47  1  0  0  0
 23 48  1  0  0  0
 24 25  3  0  0  0
 25 49  1  0  0  0
 32 50  1  0  0  0
 33 51  1  0  0  0
 52 56  1  0  0  0
 52 57  1  0  0  0
 53 57  1  0  0  0
 53 58  1  0  0  0
 53 59  1  0  0  0
 54 58  2  0  0  0
 54 60  1  0  0  0
 54 61  1  0  0  0
 55 59  2  0  0  0
 55 60  1  0  0  0
 55 62  1  0  0  0
 56 63  1  0  0  0
 56 64  1  0  0  0
 57 65  1  0  0  0
 57 66  1  0  0  0
 58 67  1  0  0  0
 59 68  1  0  0  0
 60 69  1  0  0  0
M  END
> <s_m_entry_id>
172

> <s_m_entry_name>
000000172.1

> <s_m_Source_Path>
/Users/zaksoul/Documents/2

> <s_m_Source_File>
000000172.mol2

> <i_m_Source_File_Index>
1

$$$$
No_0_183
                    3D
 Schrodinger Suite 2022-4.
 69 75  0  0  1  0            999 V2000
   -5.2250    3.4300  -21.8580 C   0  0  0  0  0  0
   -5.4860    3.6210  -23.1940 C   0  0  0  0  0  0
   -3.9850    3.1940  -21.5120 C   0  0  0  0  0  0
   -3.0830    3.3440  -23.6710 C   0  0  0  0  0  0
   -2.9270    3.0950  -22.2510 C   0  0  0  0  0  0
   -4.4310    3.5890  -24.1990 C   0  0  0  0  0  0
   -3.6640    3.6330  -26.3930 C   0  0  0  0  0  0
    6.0450    3.0170  -21.0750 C   0  0  0  0  0  0
    5.9180    3.1700  -23.6240 C   0  0  0  0  0  0
   -4.6770    3.7190  -25.5350 C   0  0  0  0  0  0
    2.1260    3.6620  -23.6610 C   0  0  0  0  0  0
    1.2870    4.7560  -23.3610 C   0  0  0  0  0  0
    3.0640    5.9750  -22.6650 C   0  0  0  0  0  0
    3.5220    3.8720  -23.3380 C   0  0  0  0  0  0
    1.6000    2.5400  -24.3300 C   0  0  0  0  0  0
   -0.5390    3.3210  -24.2280 C   0  0  0  0  0  0
   -0.0340    4.5460  -23.6200 C   0  0  0  0  0  0
   -1.9900    3.3070  -24.5910 C   0  0  0  0  0  0
    4.1630    1.3820  -23.0550 C   0  0  0  0  0  0
    5.0950    1.0340  -21.9050 C   0  0  2  0  0  0
    6.6680    2.6010  -22.4250 C   0  0  2  0  0  0
    5.0560    2.0290  -20.7330 C   0  0  0  0  0  0
   -2.3100    3.4690  -26.0200 C   0  0  0  0  0  0
   -1.5800    2.6980  -21.6470 C   0  0  0  0  0  0
   -0.5470    2.3640  -21.1370 C   0  0  0  0  0  0
   -0.8930    5.5770  -23.2750 F   0  0  0  0  0  0
   -3.7790    2.9470  -20.1290 F   0  0  0  0  0  0
    1.7440    5.9200  -22.8210 N   0  0  0  0  0  0
    3.9750    5.0270  -22.8840 N   0  0  0  0  0  0
    0.2970    2.4320  -24.6440 N   0  0  0  0  0  0
    4.4560    2.8380  -23.5150 N   0  0  0  0  0  0
    6.5030    1.1240  -22.3790 N   0  0  1  0  0  0
   -3.8290    3.6520  -27.7830 O   0  0  0  0  0  0
   -6.0323    3.4772  -21.1361 H   0  0  0  0  0  0
   -6.5014    3.8026  -23.5271 H   0  0  0  0  0  0
    5.5594    3.9982  -21.1820 H   0  0  0  0  0  0
    6.8262    3.0352  -20.3008 H   0  0  0  0  0  0
    6.3247    2.7361  -24.5494 H   0  0  0  0  0  0
    6.0452    4.2623  -23.6513 H   0  0  0  0  0  0
   -5.6880    3.8907  -25.8864 H   0  0  0  0  0  0
    2.2531    1.7224  -24.6129 H   0  0  0  0  0  0
    3.1191    1.3084  -22.7161 H   0  0  0  0  0  0
    4.3396    0.6909  -23.8924 H   0  0  0  0  0  0
    4.8841    0.0170  -21.5428 H   0  0  0  0  0  0
    7.7327    2.8745  -22.4644 H   0  0  0  0  0  0
    4.0652    2.5052  -20.6926 H   0  0  0  0  0  0
    5.3578    1.5152  -19.8084 H   0  0  0  0  0  0
   -1.5355    3.4640  -26.7784 H   0  0  0  0  0  0
    0.3621    2.0690  -20.6880 H   0  0  0  0  0  0
    7.1540    0.6323  -21.6713 H   0  0  0  0  0  0
   -2.9808    3.5788  -28.2046 H   0  0  0  0  0  0
    3.2600    8.3490  -23.1350 O   0  0  0  0  0  0
    5.1690    9.7520  -22.8290 N   0  0  0  0  0  0
    7.2900    9.6710  -21.7890 C   0  0  0  0  0  0
    7.1120   10.0260  -24.1440 C   0  0  0  0  0  0
    3.6000    7.3200  -22.1870 C   0  0  0  0  0  0
    3.7170    9.6560  -22.7310 C   0  0  0  0  0  0
    5.9290    9.6160  -21.7100 C   0  0  0  0  0  0
    5.7530    9.9610  -24.0370 C   0  0  0  0  0  0
    7.8930    9.8770  -23.0140 C   0  0  0  0  0  0
    7.8896    9.5541  -20.8936 H   0  0  0  0  0  0
    7.5728   10.1939  -25.1107 H   0  0  0  0  0  0
    3.1603    7.5638  -21.2086 H   0  0  0  0  0  0
    4.6938    7.2630  -22.0850 H   0  0  0  0  0  0
    3.4062    9.8489  -21.6936 H   0  0  0  0  0  0
    3.2551   10.4198  -23.3738 H   0  0  0  0  0  0
    5.4540    9.4610  -20.7480 H   0  0  0  0  0  0
    5.1384   10.0769  -24.9224 H   0  0  0  0  0  0
    8.9737    9.9210  -23.0860 H   0  0  0  0  0  0
  1  2  2  0  0  0
  1  3  1  0  0  0
  1 34  1  0  0  0
  2  6  1  0  0  0
  2 35  1  0  0  0
  3  5  2  0  0  0
  3 27  1  0  0  0
  4  5  1  0  0  0
  4  6  2  0  0  0
  4 18  1  0  0  0
  5 24  1  0  0  0
  6 10  1  0  0  0
  7 10  2  0  0  0
  7 23  1  0  0  0
  7 33  1  0  0  0
  8 21  1  0  0  0
  8 22  1  0  0  0
  8 36  1  0  0  0
  8 37  1  0  0  0
  9 21  1  0  0  0
  9 31  1  0  0  0
  9 38  1  0  0  0
  9 39  1  0  0  0
 10 40  1  0  0  0
 11 12  2  0  0  0
 11 14  1  0  0  0
 11 15  1  0  0  0
 12 17  1  0  0  0
 12 28  1  0  0  0
 13 28  2  0  0  0
 13 29  1  0  0  0
 13 56  1  0  0  0
 14 29  2  0  0  0
 14 31  1  0  0  0
 15 30  2  0  0  0
 15 41  1  0  0  0
 16 17  2  0  0  0
 16 18  1  0  0  0
 16 30  1  0  0  0
 17 26  1  0  0  0
 18 23  2  0  0  0
 19 20  1  0  0  0
 19 31  1  0  0  0
 19 42  1  0  0  0
 19 43  1  0  0  0
 20 22  1  0  0  0
 20 32  1  0  0  0
 20 44  1  0  0  0
 21 32  1  0  0  0
 21 45  1  0  0  0
 22 46  1  0  0  0
 22 47  1  0  0  0
 23 48  1  0  0  0
 24 25  3  0  0  0
 25 49  1  0  0  0
 32 50  1  0  0  0
 33 51  1  0  0  0
 52 56  1  0  0  0
 52 57  1  0  0  0
 53 57  1  0  0  0
 53 58  1  0  0  0
 53 59  1  0  0  0
 54 58  2  0  0  0
 54 60  1  0  0  0
 54 61  1  0  0  0
 55 59  2  0  0  0
 55 60  1  0  0  0
 55 62  1  0  0  0
 56 63  1  0  0  0
 56 64  1  0  0  0
 57 65  1  0  0  0
 57 66  1  0  0  0
 58 67  1  0  0  0
 59 68  1  0  0  0
 60 69  1  0  0  0
M  END
> <s_m_entry_id>
173

> <s_m_entry_name>
000000173.1

> <s_m_Source_Path>
/Users/zaksoul/Documents/2

> <s_m_Source_File>
000000173.mol2

> <i_m_Source_File_Index>
1

$$$$
No_0_184
                    3D
 Schrodinger Suite 2022-4.
 70 76  0  0  1  0            999 V2000
   -5.3210    3.1200  -21.9250 C   0  0  0  0  0  0
   -5.5640    3.3060  -23.2650 C   0  0  0  0  0  0
   -4.0830    2.9040  -21.5580 C   0  0  0  0  0  0
   -3.1490    3.0700  -23.7020 C   0  0  0  0  0  0
   -3.0120    2.8230  -22.2800 C   0  0  0  0  0  0
   -4.4920    3.2920  -24.2520 C   0  0  0  0  0  0
   -3.6900    3.3490  -26.4330 C   0  0  0  0  0  0
    5.9390    2.8980  -20.9570 C   0  0  0  0  0  0
    5.8520    3.0490  -23.5080 C   0  0  0  0  0  0
   -4.7180    3.4180  -25.5920 C   0  0  0  0  0  0
    2.0530    3.4760  -23.6070 C   0  0  0  0  0  0
    1.1910    4.5570  -23.3210 C   0  0  0  0  0  0
    2.9350    5.8060  -22.5960 C   0  0  0  0  0  0
    3.4400    3.7100  -23.2620 C   0  0  0  0  0  0
    1.5580    2.3460  -24.2850 C   0  0  0  0  0  0
   -0.5970    3.0900  -24.2180 C   0  0  0  0  0  0
   -0.1220    4.3240  -23.6020 C   0  0  0  0  0  0
   -2.0410    3.0520  -24.6040 C   0  0  0  0  0  0
    4.1180    1.2310  -22.9670 C   0  0  0  0  0  0
    5.0370    0.9000  -21.8020 C   0  0  2  0  0  0
    6.5920    2.4930  -22.2960 C   0  0  2  0  0  0
    4.9620    1.8940  -20.6310 C   0  0  0  0  0  0
   -2.3400    3.2080  -26.0380 C   0  0  0  0  0  0
   -1.6680    2.4500  -21.6530 C   0  0  0  0  0  0
   -0.6390    2.1330  -21.1270 C   0  0  0  0  0  0
   -1.0050    5.3400  -23.2710 F   0  0  0  0  0  0
   -3.8960    2.6610  -20.1720 F   0  0  0  0  0  0
    1.6190    5.7280  -22.7740 N   0  0  0  0  0  0
    3.8660    4.8730  -22.8000 N   0  0  0  0  0  0
    0.2620    2.2160  -24.6190 N   0  0  0  0  0  0
    4.3940    2.6930  -23.4230 N   0  0  0  0  0  0
    6.4510    1.0140  -22.2530 N   0  0  1  0  0  0
   -3.8330    3.3660  -27.8260 O   0  0  0  0  0  0
   -6.1399    3.1531  -21.2155 H   0  0  0  0  0  0
   -6.5769    3.4706  -23.6143 H   0  0  0  0  0  0
    5.4397    3.8714  -21.0720 H   0  0  0  0  0  0
    6.7074    2.9293  -20.1705 H   0  0  0  0  0  0
    6.2810    2.6220  -24.4265 H   0  0  0  0  0  0
    5.9609    4.1433  -23.5332 H   0  0  0  0  0  0
   -5.7262    3.5725  -25.9592 H   0  0  0  0  0  0
    2.2287    1.5387  -24.5561 H   0  0  0  0  0  0
    3.0701    1.1401  -22.6450 H   0  0  0  0  0  0
    4.3207    0.5431  -23.8011 H   0  0  0  0  0  0
    4.8373   -0.1207  -21.4439 H   0  0  0  0  0  0
    7.6523    2.7848  -22.3182 H   0  0  0  0  0  0
    3.9626    2.3529  -20.6068 H   0  0  0  0  0  0
    5.2577    1.3854  -19.7016 H   0  0  0  0  0  0
   -1.5532    3.2170  -26.7836 H   0  0  0  0  0  0
    0.2677    1.8541  -20.6631 H   0  0  0  0  0  0
    7.0986    0.5331  -21.5349 H   0  0  0  0  0  0
   -2.9766    3.3066  -28.2329 H   0  0  0  0  0  0
    3.4060    8.0850  -23.2140 O   0  0  0  0  0  0
    7.5000   10.1950  -21.2440 N   0  0  0  0  0  0
    8.4140   10.1790  -23.4220 N   0  0  0  0  0  0
    5.0030    9.7270  -22.2690 C   0  0  0  0  0  0
    7.3360   10.0700  -22.5880 C   0  0  0  0  0  0
    6.0680    9.8310  -23.1100 C   0  0  0  0  0  0
    6.4300   10.0910  -20.3960 C   0  0  0  0  0  0
    5.1930    9.8610  -20.8880 C   0  0  0  0  0  0
    3.6120    9.4560  -22.8180 C   0  0  0  0  0  0
    3.4400    7.1590  -22.1090 C   0  0  0  0  0  0
    8.2890   10.0840  -24.4400 H   0  0  0  0  0  0
    9.3515   10.3549  -23.0332 H   0  0  0  0  0  0
    5.9251    9.7280  -24.1796 H   0  0  0  0  0  0
    6.5741   10.1931  -19.3265 H   0  0  0  0  0  0
    4.3479    9.7810  -20.2139 H   0  0  0  0  0  0
    2.8611    9.7350  -22.0641 H   0  0  0  0  0  0
    3.4239   10.1163  -23.6774 H   0  0  0  0  0  0
    2.7876    7.5272  -21.3035 H   0  0  0  0  0  0
    4.4747    7.0560  -21.7501 H   0  0  0  0  0  0
  1  2  2  0  0  0
  1  3  1  0  0  0
  1 34  1  0  0  0
  2  6  1  0  0  0
  2 35  1  0  0  0
  3  5  2  0  0  0
  3 27  1  0  0  0
  4  5  1  0  0  0
  4  6  2  0  0  0
  4 18  1  0  0  0
  5 24  1  0  0  0
  6 10  1  0  0  0
  7 10  2  0  0  0
  7 23  1  0  0  0
  7 33  1  0  0  0
  8 21  1  0  0  0
  8 22  1  0  0  0
  8 36  1  0  0  0
  8 37  1  0  0  0
  9 21  1  0  0  0
  9 31  1  0  0  0
  9 38  1  0  0  0
  9 39  1  0  0  0
 10 40  1  0  0  0
 11 12  1  0  0  0
 11 14  2  0  0  0
 11 15  1  0  0  0
 12 17  1  0  0  0
 12 28  2  0  0  0
 13 28  1  0  0  0
 13 29  2  0  0  0
 13 61  1  0  0  0
 14 29  1  0  0  0
 14 31  1  0  0  0
 15 30  2  0  0  0
 15 41  1  0  0  0
 16 17  2  0  0  0
 16 18  1  0  0  0
 16 30  1  0  0  0
 17 26  1  0  0  0
 18 23  2  0  0  0
 19 20  1  0  0  0
 19 31  1  0  0  0
 19 42  1  0  0  0
 19 43  1  0  0  0
 20 22  1  0  0  0
 20 32  1  0  0  0
 20 44  1  0  0  0
 21 32  1  0  0  0
 21 45  1  0  0  0
 22 46  1  0  0  0
 22 47  1  0  0  0
 23 48  1  0  0  0
 24 25  3  0  0  0
 25 49  1  0  0  0
 32 50  1  0  0  0
 33 51  1  0  0  0
 52 60  1  0  0  0
 52 61  1  0  0  0
 53 56  2  0  0  0
 53 58  1  0  0  0
 54 56  1  0  0  0
 54 62  1  0  0  0
 54 63  1  0  0  0
 55 57  2  0  0  0
 55 59  1  0  0  0
 55 60  1  0  0  0
 56 57  1  0  0  0
 57 64  1  0  0  0
 58 59  2  0  0  0
 58 65  1  0  0  0
 59 66  1  0  0  0
 60 67  1  0  0  0
 60 68  1  0  0  0
 61 69  1  0  0  0
 61 70  1  0  0  0
M  END
> <s_m_entry_id>
174

> <s_m_entry_name>
000000174.1

> <s_m_Source_Path>
/Users/zaksoul/Documents/2

> <s_m_Source_File>
000000174.mol2

> <i_m_Source_File_Index>
1

$$$$
No_0_185
                    3D
 Schrodinger Suite 2022-4.
 71 77  0  0  1  0            999 V2000
   -5.4250    3.2370  -22.0910 C   0  0  0  0  0  0
   -5.6910    3.3970  -23.4300 C   0  0  0  0  0  0
   -4.1820    3.0160  -21.7430 C   0  0  0  0  0  0
   -3.2880    3.1260  -23.9080 C   0  0  0  0  0  0
   -3.1260    2.9080  -22.4830 C   0  0  0  0  0  0
   -4.6390    3.3500  -24.4370 C   0  0  0  0  0  0
   -3.8780    3.3520  -26.6330 C   0  0  0  0  0  0
    5.8490    2.9170  -21.3300 C   0  0  0  0  0  0
    5.7150    3.0140  -23.8820 C   0  0  0  0  0  0
   -4.8890    3.4500  -25.7750 C   0  0  0  0  0  0
    1.9190    3.4790  -23.9180 C   0  0  0  0  0  0
    1.0740    4.5740  -23.6400 C   0  0  0  0  0  0
    2.8440    5.8200  -22.9750 C   0  0  0  0  0  0
    3.3140    3.7050  -23.6040 C   0  0  0  0  0  0
    1.4000    2.3390  -24.5620 C   0  0  0  0  0  0
   -0.7450    3.1080  -24.4710 C   0  0  0  0  0  0
   -0.2470    4.3490  -23.8910 C   0  0  0  0  0  0
   -2.1970    3.0770  -24.8290 C   0  0  0  0  0  0
    3.9730    1.2260  -23.2690 C   0  0  0  0  0  0
    4.9110    0.9100  -22.1140 C   0  0  2  0  0  0
    6.4720    2.4760  -22.6720 C   0  0  2  0  0  0
    4.8680    1.9300  -20.9640 C   0  0  0  0  0  0
   -2.5210    3.2050  -26.2600 C   0  0  0  0  0  0
   -1.7750    2.5340  -21.8740 C   0  0  0  0  0  0
   -0.7380    2.2180  -21.3590 C   0  0  0  0  0  0
   -1.1120    5.3810  -23.5660 F   0  0  0  0  0  0
   -3.9710    2.8010  -20.3560 F   0  0  0  0  0  0
    1.5240    5.7520  -23.1260 N   0  0  0  0  0  0
    3.7610    4.8730  -23.1770 N   0  0  0  0  0  0
    0.0960    2.2160  -24.8690 N   0  0  0  0  0  0
    4.2560    2.6750  -23.7620 N   0  0  0  0  0  0
    6.3170    1.0000  -22.5940 N   0  0  1  0  0  0
   -4.0470    3.3400  -28.0230 O   0  0  0  0  0  0
   -6.2300    3.2942  -21.3673 H   0  0  0  0  0  0
   -6.7085    3.5646  -23.7642 H   0  0  0  0  0  0
    5.3575    3.8929  -21.4572 H   0  0  0  0  0  0
    6.6323    2.9574  -20.5588 H   0  0  0  0  0  0
    6.1219    2.5626  -24.7989 H   0  0  0  0  0  0
    5.8341    4.1064  -23.9325 H   0  0  0  0  0  0
   -5.9022    3.6077  -26.1265 H   0  0  0  0  0  0
    2.0576    1.5197  -24.8291 H   0  0  0  0  0  0
    2.9304    1.1533  -22.9258 H   0  0  0  0  0  0
    4.1527    0.5183  -24.0917 H   0  0  0  0  0  0
    4.7071   -0.1002  -21.7295 H   0  0  0  0  0  0
    7.5348    2.7556  -22.7204 H   0  0  0  0  0  0
    3.8741    2.4002  -20.9317 H   0  0  0  0  0  0
    5.1759    1.4384  -20.0293 H   0  0  0  0  0  0
   -1.7491    3.1899  -27.0209 H   0  0  0  0  0  0
    0.1745    1.9388  -20.9067 H   0  0  0  0  0  0
    6.9732    0.5276  -21.8780 H   0  0  0  0  0  0
   -3.1991    3.2628  -28.4445 H   0  0  0  0  0  0
    3.3540    7.2890  -21.0220 N   0  3  0  0  0  0
    4.0120    8.4920  -20.3840 C   0  0  0  0  0  0
    4.6180   10.8270  -20.3510 C   0  0  0  0  0  0
    5.9020    9.9980  -20.1450 C   0  0  0  0  0  0
    5.5440    8.5400  -20.4880 C   0  0  0  0  0  0
    3.5670    9.8590  -20.9190 C   0  0  0  0  0  0
    3.3720    7.1780  -22.5280 C   0  0  0  0  0  0
    2.4021    7.2230  -20.6970 H   0  0  0  0  0  0
    3.7460    6.4500  -20.6240 H   0  0  0  0  0  0
    3.7611    8.4670  -19.3133 H   0  0  0  0  0  0
    4.8120   11.6259  -21.0819 H   0  0  0  0  0  0
    4.2721   11.2139  -19.3812 H   0  0  0  0  0  0
    6.2119   10.0600  -19.0914 H   0  0  0  0  0  0
    6.6828   10.3549  -20.8328 H   0  0  0  0  0  0
    5.8460    8.3260  -21.5239 H   0  0  0  0  0  0
    5.9821    7.8698  -19.7338 H   0  0  0  0  0  0
    2.5799   10.1090  -20.5030 H   0  0  0  0  0  0
    3.6300    9.8570  -22.0172 H   0  0  0  0  0  0
    4.4018    7.3090  -22.8919 H   0  0  0  0  0  0
    2.7492    7.9747  -22.9609 H   0  0  0  0  0  0
  1  2  2  0  0  0
  1  3  1  0  0  0
  1 34  1  0  0  0
  2  6  1  0  0  0
  2 35  1  0  0  0
  3  5  2  0  0  0
  3 27  1  0  0  0
  4  5  1  0  0  0
  4  6  2  0  0  0
  4 18  1  0  0  0
  5 24  1  0  0  0
  6 10  1  0  0  0
  7 10  2  0  0  0
  7 23  1  0  0  0
  7 33  1  0  0  0
  8 21  1  0  0  0
  8 22  1  0  0  0
  8 36  1  0  0  0
  8 37  1  0  0  0
  9 21  1  0  0  0
  9 31  1  0  0  0
  9 38  1  0  0  0
  9 39  1  0  0  0
 10 40  1  0  0  0
 11 12  1  0  0  0
 11 14  2  0  0  0
 11 15  1  0  0  0
 12 17  1  0  0  0
 12 28  2  0  0  0
 13 28  1  0  0  0
 13 29  2  0  0  0
 13 58  1  0  0  0
 14 29  1  0  0  0
 14 31  1  0  0  0
 15 30  2  0  0  0
 15 41  1  0  0  0
 16 17  2  0  0  0
 16 18  1  0  0  0
 16 30  1  0  0  0
 17 26  1  0  0  0
 18 23  2  0  0  0
 19 20  1  0  0  0
 19 31  1  0  0  0
 19 42  1  0  0  0
 19 43  1  0  0  0
 20 22  1  0  0  0
 20 32  1  0  0  0
 20 44  1  0  0  0
 21 32  1  0  0  0
 21 45  1  0  0  0
 22 46  1  0  0  0
 22 47  1  0  0  0
 23 48  1  0  0  0
 24 25  3  0  0  0
 25 49  1  0  0  0
 32 50  1  0  0  0
 33 51  1  0  0  0
 52 53  1  0  0  0
 52 58  1  0  0  0
 52 59  1  0  0  0
 52 60  1  0  0  0
 53 56  1  0  0  0
 53 57  1  0  0  0
 53 61  1  0  0  0
 54 55  1  0  0  0
 54 57  1  0  0  0
 54 62  1  0  0  0
 54 63  1  0  0  0
 55 56  1  0  0  0
 55 64  1  0  0  0
 55 65  1  0  0  0
 56 66  1  0  0  0
 56 67  1  0  0  0
 57 68  1  0  0  0
 57 69  1  0  0  0
 58 70  1  0  0  0
 58 71  1  0  0  0
M  CHG  1  52   1
M  END
> <s_m_entry_id>
175

> <s_m_entry_name>
000000175.1

> <s_m_Source_Path>
/Users/zaksoul/Documents/2

> <s_m_Source_File>
000000175.mol2

> <i_m_Source_File_Index>
1

$$$$
No_0_186
                    3D
 Schrodinger Suite 2022-4.
 71 77  0  0  1  0            999 V2000
   -5.1360    3.1190  -22.1050 C   0  0  0  0  0  0
   -5.4160    3.3110  -23.4370 C   0  0  0  0  0  0
   -3.8850    2.9280  -21.7700 C   0  0  0  0  0  0
   -3.0080    3.1300  -23.9360 C   0  0  0  0  0  0
   -2.8310    2.8750  -22.5190 C   0  0  0  0  0  0
   -4.3700    3.3270  -24.4500 C   0  0  0  0  0  0
   -3.6230    3.4190  -26.6500 C   0  0  0  0  0  0
    6.1470    3.1320  -21.4170 C   0  0  0  0  0  0
    5.9930    3.3010  -23.9640 C   0  0  0  0  0  0
   -4.6310    3.4590  -25.7830 C   0  0  0  0  0  0
    2.1850    3.6470  -23.9650 C   0  0  0  0  0  0
    1.3070    4.7070  -23.6490 C   0  0  0  0  0  0
    3.0410    5.9870  -22.9570 C   0  0  0  0  0  0
    3.5740    3.9080  -23.6520 C   0  0  0  0  0  0
    1.6970    2.5120  -24.6400 C   0  0  0  0  0  0
   -0.4710    3.2090  -24.5140 C   0  0  0  0  0  0
   -0.0080    4.4480  -23.8990 C   0  0  0  0  0  0
   -1.9230    3.1430  -24.8650 C   0  0  0  0  0  0
    4.3120    1.4420  -23.3960 C   0  0  0  0  0  0
    5.2670    1.1210  -22.2560 C   0  0  2  0  0  0
    6.7740    2.7510  -22.7750 C   0  0  2  0  0  0
    5.1990    2.1050  -21.0750 C   0  0  0  0  0  0
   -2.2610    3.3040  -26.2900 C   0  0  0  0  0  0
   -1.4650    2.5260  -21.9290 C   0  0  0  0  0  0
   -0.4150    2.2270  -21.4310 C   0  0  0  0  0  0
   -0.9030    5.4420  -23.5390 F   0  0  0  0  0  0
   -3.6580    2.6780  -20.3920 F   0  0  0  0  0  0
    1.7230    5.8820  -23.1030 N   0  0  0  0  0  0
    3.9870    5.0760  -23.1920 N   0  0  0  0  0  0
    0.3960    2.3570  -24.9430 N   0  0  0  0  0  0
    4.5460    2.9130  -23.8460 N   0  0  0  0  0  0
    6.6670    1.2690  -22.7410 N   0  0  1  0  0  0
   -3.8010    3.4430  -28.0390 O   0  0  0  0  0  0
   -5.9377    3.1300  -21.3755 H   0  0  0  0  0  0
   -6.4405    3.4565  -23.7601 H   0  0  0  0  0  0
    5.6245    4.0953  -21.5118 H   0  0  0  0  0  0
    6.9333    3.1744  -20.6489 H   0  0  0  0  0  0
    6.4077    2.8903  -24.8964 H   0  0  0  0  0  0
    6.0777    4.3976  -23.9822 H   0  0  0  0  0  0
   -5.6506    3.5945  -26.1252 H   0  0  0  0  0  0
    2.3779    1.7216  -24.9343 H   0  0  0  0  0  0
    3.2747    1.3260  -23.0489 H   0  0  0  0  0  0
    4.5089    0.7646  -24.2400 H   0  0  0  0  0  0
    5.0975    0.0938  -21.9008 H   0  0  0  0  0  0
    7.8270    3.0657  -22.8214 H   0  0  0  0  0  0
    4.1908    2.5420  -21.0235 H   0  0  0  0  0  0
    5.5290    1.5954  -20.1577 H   0  0  0  0  0  0
   -1.4933    3.3351  -27.0547 H   0  0  0  0  0  0
    0.5085    1.9638  -20.9917 H   0  0  0  0  0  0
    7.3421    0.7972  -22.0424 H   0  0  0  0  0  0
   -2.9539    3.4054  -28.4675 H   0  0  0  0  0  0
    4.5640    7.1870  -21.3830 N   0  3  0  0  0  0
    5.2990    8.4180  -20.9050 C   0  0  0  0  0  0
    5.4100   10.7730  -20.3900 C   0  0  0  0  0  0
    6.5660   10.4410  -21.3560 C   0  0  0  0  0  0
    6.2830    9.0330  -21.9130 C   0  0  0  0  0  0
    4.4170    9.6030  -20.4880 C   0  0  0  0  0  0
    3.5300    7.3480  -22.4720 C   0  0  0  0  0  0
    4.1410    6.7270  -20.5921 H   0  0  0  0  0  0
    5.2358    6.4912  -21.6669 H   0  0  0  0  0  0
    5.8843    8.1229  -20.0216 H   0  0  0  0  0  0
    4.9153   11.6995  -20.7168 H   0  0  0  0  0  0
    5.7990   10.8380  -19.3631 H   0  0  0  0  0  0
    7.5155   10.4300  -20.8007 H   0  0  0  0  0  0
    6.5710   11.1667  -22.1826 H   0  0  0  0  0  0
    5.7923    9.1220  -22.8934 H   0  0  0  0  0  0
    7.2148    8.4485  -21.9160 H   0  0  0  0  0  0
    3.9903    9.4051  -19.4936 H   0  0  0  0  0  0
    3.6865    9.8112  -21.2836 H   0  0  0  0  0  0
    3.9688    7.9008  -23.3157 H   0  0  0  0  0  0
    2.6780    7.9270  -22.0860 H   0  0  0  0  0  0
  1  2  2  0  0  0
  1  3  1  0  0  0
  1 34  1  0  0  0
  2  6  1  0  0  0
  2 35  1  0  0  0
  3  5  2  0  0  0
  3 27  1  0  0  0
  4  5  1  0  0  0
  4  6  2  0  0  0
  4 18  1  0  0  0
  5 24  1  0  0  0
  6 10  1  0  0  0
  7 10  2  0  0  0
  7 23  1  0  0  0
  7 33  1  0  0  0
  8 21  1  0  0  0
  8 22  1  0  0  0
  8 36  1  0  0  0
  8 37  1  0  0  0
  9 21  1  0  0  0
  9 31  1  0  0  0
  9 38  1  0  0  0
  9 39  1  0  0  0
 10 40  1  0  0  0
 11 12  1  0  0  0
 11 14  2  0  0  0
 11 15  1  0  0  0
 12 17  1  0  0  0
 12 28  2  0  0  0
 13 28  1  0  0  0
 13 29  2  0  0  0
 13 58  1  0  0  0
 14 29  1  0  0  0
 14 31  1  0  0  0
 15 30  2  0  0  0
 15 41  1  0  0  0
 16 17  2  0  0  0
 16 18  1  0  0  0
 16 30  1  0  0  0
 17 26  1  0  0  0
 18 23  2  0  0  0
 19 20  1  0  0  0
 19 31  1  0  0  0
 19 42  1  0  0  0
 19 43  1  0  0  0
 20 22  1  0  0  0
 20 32  1  0  0  0
 20 44  1  0  0  0
 21 32  1  0  0  0
 21 45  1  0  0  0
 22 46  1  0  0  0
 22 47  1  0  0  0
 23 48  1  0  0  0
 24 25  3  0  0  0
 25 49  1  0  0  0
 32 50  1  0  0  0
 33 51  1  0  0  0
 52 53  1  0  0  0
 52 58  1  0  0  0
 52 59  1  0  0  0
 52 60  1  0  0  0
 53 56  1  0  0  0
 53 57  1  0  0  0
 53 61  1  0  0  0
 54 55  1  0  0  0
 54 57  1  0  0  0
 54 62  1  0  0  0
 54 63  1  0  0  0
 55 56  1  0  0  0
 55 64  1  0  0  0
 55 65  1  0  0  0
 56 66  1  0  0  0
 56 67  1  0  0  0
 57 68  1  0  0  0
 57 69  1  0  0  0
 58 70  1  0  0  0
 58 71  1  0  0  0
M  CHG  1  52   1
M  END
> <s_m_entry_id>
176

> <s_m_entry_name>
000000176.1

> <s_m_Source_Path>
/Users/zaksoul/Documents/2

> <s_m_Source_File>
000000176.mol2

> <i_m_Source_File_Index>
1

$$$$
No_0_187
                    3D
 Schrodinger Suite 2022-4.
 71 77  0  0  1  0            999 V2000
   -5.3160    3.5750  -21.9600 C   0  0  0  0  0  0
   -5.5610    3.7150  -23.3060 C   0  0  0  0  0  0
   -4.0830    3.3390  -21.5900 C   0  0  0  0  0  0
   -3.1570    3.3920  -23.7440 C   0  0  0  0  0  0
   -3.0180    3.1990  -22.3130 C   0  0  0  0  0  0
   -4.4960    3.6310  -24.2960 C   0  0  0  0  0  0
   -3.7050    3.5780  -26.4810 C   0  0  0  0  0  0
    5.9380    3.0690  -21.0340 C   0  0  0  0  0  0
    5.8410    3.1200  -23.5890 C   0  0  0  0  0  0
   -4.7260    3.7100  -25.6390 C   0  0  0  0  0  0
    2.0560    3.6520  -23.6880 C   0  0  0  0  0  0
    1.2260    4.7670  -23.4410 C   0  0  0  0  0  0
    3.0090    5.9930  -22.7750 C   0  0  0  0  0  0
    3.4500    3.8590  -23.3580 C   0  0  0  0  0  0
    1.5240    2.5100  -24.3180 C   0  0  0  0  0  0
   -0.6070    3.3190  -24.2710 C   0  0  0  0  0  0
   -0.0950    4.5610  -23.7070 C   0  0  0  0  0  0
   -2.0540    3.3060  -24.6490 C   0  0  0  0  0  0
    4.0590    1.3760  -22.9680 C   0  0  0  0  0  0
    4.9750    1.0650  -21.7950 C   0  0  2  0  0  0
    6.5710    2.5920  -22.3590 C   0  0  2  0  0  0
    4.9340    2.1060  -20.6640 C   0  0  0  0  0  0
   -2.3570    3.4140  -26.0870 C   0  0  0  0  0  0
   -1.6830    2.8120  -21.6790 C   0  0  0  0  0  0
   -0.6600    2.4870  -21.1440 C   0  0  0  0  0  0
   -0.9460    5.6150  -23.4140 F   0  0  0  0  0  0
   -3.8950    3.1460  -20.1970 F   0  0  0  0  0  0
    1.6900    5.9460  -22.9430 N   0  0  0  0  0  0
    3.9120    5.0270  -22.9460 N   0  0  0  0  0  0
    0.2230    2.4050  -24.6410 N   0  0  0  0  0  0
    4.3740    2.8090  -23.4830 N   0  0  0  0  0  0
    6.3890    1.1200  -22.2560 N   0  0  1  0  0  0
   -3.8550    3.5430  -27.8730 O   0  0  0  0  0  0
   -6.1301    3.6603  -21.2493 H   0  0  0  0  0  0
   -6.5706    3.8946  -23.6573 H   0  0  0  0  0  0
    5.4654    4.0505  -21.1865 H   0  0  0  0  0  0
    6.7118    3.1094  -20.2532 H   0  0  0  0  0  0
    6.2528    2.6446  -24.4914 H   0  0  0  0  0  0
    5.9813    4.2089  -23.6576 H   0  0  0  0  0  0
   -5.7310    3.8787  -26.0085 H   0  0  0  0  0  0
    2.1703    1.6740  -24.5599 H   0  0  0  0  0  0
    3.0108    1.3276  -22.6381 H   0  0  0  0  0  0
    4.2375    0.6499  -23.7748 H   0  0  0  0  0  0
    4.7481    0.0658  -21.3947 H   0  0  0  0  0  0
    7.6393    2.8513  -22.3973 H   0  0  0  0  0  0
    3.9484    2.5943  -20.6539 H   0  0  0  0  0  0
    5.2206    1.6266  -19.7163 H   0  0  0  0  0  0
   -1.5743    3.3698  -26.8356 H   0  0  0  0  0  0
    0.2406    2.2001  -20.6732 H   0  0  0  0  0  0
    7.0264    0.6505  -21.5213 H   0  0  0  0  0  0
   -3.0032    3.4431  -28.2816 H   0  0  0  0  0  0
    4.8010    7.1830  -21.5070 N   0  3  0  0  0  0
    5.5900    8.4200  -21.1420 C   0  0  0  0  0  0
    5.7500   10.7560  -20.5590 C   0  0  0  0  0  0
    6.6820   10.4990  -21.7610 C   0  0  0  0  0  0
    6.3220    9.1050  -22.3070 C   0  0  0  0  0  0
    4.7880    9.5580  -20.4960 C   0  0  0  0  0  0
    3.5560    7.3510  -22.3450 C   0  0  0  0  0  0
    4.5670    6.6809  -20.6649 H   0  0  0  0  0  0
    5.4141    6.5209  -21.9561 H   0  0  0  0  0  0
    6.3558    8.1111  -20.4152 H   0  0  0  0  0  0
    5.1753   11.6775  -20.7339 H   0  0  0  0  0  0
    6.3463   10.7960  -19.6355 H   0  0  0  0  0  0
    7.7278   10.4990  -21.4201 H   0  0  0  0  0  0
    6.4950   11.2549  -22.5379 H   0  0  0  0  0  0
    5.6321    9.2130  -23.1569 H   0  0  0  0  0  0
    7.2459    8.5520  -22.5320 H   0  0  0  0  0  0
    4.5869    9.3089  -19.4436 H   0  0  0  0  0  0
    3.9007    9.7711  -21.1102 H   0  0  0  0  0  0
    3.7931    7.9491  -23.2372 H   0  0  0  0  0  0
    2.7911    7.8860  -21.7630 H   0  0  0  0  0  0
  1  2  2  0  0  0
  1  3  1  0  0  0
  1 34  1  0  0  0
  2  6  1  0  0  0
  2 35  1  0  0  0
  3  5  2  0  0  0
  3 27  1  0  0  0
  4  5  1  0  0  0
  4  6  2  0  0  0
  4 18  1  0  0  0
  5 24  1  0  0  0
  6 10  1  0  0  0
  7 10  2  0  0  0
  7 23  1  0  0  0
  7 33  1  0  0  0
  8 21  1  0  0  0
  8 22  1  0  0  0
  8 36  1  0  0  0
  8 37  1  0  0  0
  9 21  1  0  0  0
  9 31  1  0  0  0
  9 38  1  0  0  0
  9 39  1  0  0  0
 10 40  1  0  0  0
 11 12  1  0  0  0
 11 14  2  0  0  0
 11 15  1  0  0  0
 12 17  1  0  0  0
 12 28  2  0  0  0
 13 28  1  0  0  0
 13 29  2  0  0  0
 13 58  1  0  0  0
 14 29  1  0  0  0
 14 31  1  0  0  0
 15 30  2  0  0  0
 15 41  1  0  0  0
 16 17  2  0  0  0
 16 18  1  0  0  0
 16 30  1  0  0  0
 17 26  1  0  0  0
 18 23  2  0  0  0
 19 20  1  0  0  0
 19 31  1  0  0  0
 19 42  1  0  0  0
 19 43  1  0  0  0
 20 22  1  0  0  0
 20 32  1  0  0  0
 20 44  1  0  0  0
 21 32  1  0  0  0
 21 45  1  0  0  0
 22 46  1  0  0  0
 22 47  1  0  0  0
 23 48  1  0  0  0
 24 25  3  0  0  0
 25 49  1  0  0  0
 32 50  1  0  0  0
 33 51  1  0  0  0
 52 53  1  0  0  0
 52 58  1  0  0  0
 52 59  1  0  0  0
 52 60  1  0  0  0
 53 56  1  0  0  0
 53 57  1  0  0  0
 53 61  1  0  0  0
 54 55  1  0  0  0
 54 57  1  0  0  0
 54 62  1  0  0  0
 54 63  1  0  0  0
 55 56  1  0  0  0
 55 64  1  0  0  0
 55 65  1  0  0  0
 56 66  1  0  0  0
 56 67  1  0  0  0
 57 68  1  0  0  0
 57 69  1  0  0  0
 58 70  1  0  0  0
 58 71  1  0  0  0
M  CHG  1  52   1
M  END
> <s_m_entry_id>
177

> <s_m_entry_name>
000000177.1

> <s_m_Source_Path>
/Users/zaksoul/Documents/2

> <s_m_Source_File>
000000177.mol2

> <i_m_Source_File_Index>
1

$$$$
No_0_188
                    3D
 Schrodinger Suite 2022-4.
 71 77  0  0  1  0            999 V2000
   -5.3210    3.2450  -22.0620 C   0  0  0  0  0  0
   -5.5650    3.4290  -23.4020 C   0  0  0  0  0  0
   -4.0820    3.0320  -21.6950 C   0  0  0  0  0  0
   -3.1510    3.1950  -23.8420 C   0  0  0  0  0  0
   -3.0120    2.9520  -22.4190 C   0  0  0  0  0  0
   -4.4950    3.4140  -24.3900 C   0  0  0  0  0  0
   -3.6950    3.4680  -26.5720 C   0  0  0  0  0  0
    5.9410    3.0420  -21.1050 C   0  0  0  0  0  0
    5.8510    3.1870  -23.6570 C   0  0  0  0  0  0
   -4.7220    3.5370  -25.7300 C   0  0  0  0  0  0
    2.0510    3.6090  -23.7520 C   0  0  0  0  0  0
    1.1880    4.6880  -23.4680 C   0  0  0  0  0  0
    2.9300    5.9410  -22.7470 C   0  0  0  0  0  0
    3.4370    3.8450  -23.4090 C   0  0  0  0  0  0
    1.5560    2.4760  -24.4270 C   0  0  0  0  0  0
   -0.5990    3.2180  -24.3590 C   0  0  0  0  0  0
   -0.1260    4.4530  -23.7470 C   0  0  0  0  0  0
   -2.0430    3.1770  -24.7440 C   0  0  0  0  0  0
    4.1200    1.3680  -23.1100 C   0  0  0  0  0  0
    5.0410    1.0400  -21.9450 C   0  0  2  0  0  0
    6.5920    2.6340  -22.4450 C   0  0  2  0  0  0
    4.9650    2.0370  -20.7760 C   0  0  0  0  0  0
   -2.3440    3.3290  -26.1780 C   0  0  0  0  0  0
   -1.6670    2.5810  -21.7930 C   0  0  0  0  0  0
   -0.6360    2.2670  -21.2660 C   0  0  0  0  0  0
   -1.0090    5.4690  -23.4170 F   0  0  0  0  0  0
   -3.8930    2.7930  -20.3100 F   0  0  0  0  0  0
    1.6140    5.8610  -22.9230 N   0  0  0  0  0  0
    3.8630    5.0100  -22.9510 N   0  0  0  0  0  0
    0.2600    2.3440  -24.7600 N   0  0  0  0  0  0
    4.3940    2.8290  -23.5690 N   0  0  0  0  0  0
    6.4540    1.1550  -22.3980 N   0  0  1  0  0  0
   -3.8390    3.4810  -27.9650 O   0  0  0  0  0  0
   -6.1389    3.2791  -21.3515 H   0  0  0  0  0  0
   -6.5784    3.5905  -23.7512 H   0  0  0  0  0  0
    5.4394    4.0139  -21.2221 H   0  0  0  0  0  0
    6.7103    3.0763  -20.3195 H   0  0  0  0  0  0
    6.2793    2.7587  -24.5752 H   0  0  0  0  0  0
    5.9579    4.2815  -23.6842 H   0  0  0  0  0  0
   -5.7304    3.6895  -26.0972 H   0  0  0  0  0  0
    2.2284    1.6701  -24.6980 H   0  0  0  0  0  0
    3.0725    1.2762  -22.7871 H   0  0  0  0  0  0
    4.3229    0.6786  -23.9428 H   0  0  0  0  0  0
    4.8423    0.0202  -21.5839 H   0  0  0  0  0  0
    7.6519    2.9275  -22.4682 H   0  0  0  0  0  0
    3.9648    2.4942  -20.7528 H   0  0  0  0  0  0
    5.2628    1.5302  -19.8462 H   0  0  0  0  0  0
   -1.5582    3.3380  -26.9247 H   0  0  0  0  0  0
    0.2716    1.9898  -20.8027 H   0  0  0  0  0  0
    7.1032    0.6770  -21.6793 H   0  0  0  0  0  0
   -2.9829    3.4226  -28.3727 H   0  0  0  0  0  0
    4.8510    7.1880  -21.7510 N   0  3  0  0  0  0
    5.5860    8.4610  -21.4000 C   0  0  0  0  0  0
    5.6600   10.7180  -20.5490 C   0  0  0  0  0  0
    6.3070   10.7150  -21.9490 C   0  0  0  0  0  0
    5.9600    9.3580  -22.5910 C   0  0  0  0  0  0
    4.8550    9.4130  -20.4430 C   0  0  0  0  0  0
    3.4350    7.2970  -22.2640 C   0  0  0  0  0  0
    4.8670    6.5682  -20.9562 H   0  0  0  0  0  0
    5.4011    6.6599  -22.4102 H   0  0  0  0  0  0
    6.5253    8.1669  -20.9088 H   0  0  0  0  0  0
    4.9781   11.5769  -20.4630 H   0  0  0  0  0  0
    6.4487   10.7240  -19.7823 H   0  0  0  0  0  0
    7.3989   10.8030  -21.8490 H   0  0  0  0  0  0
    5.8751   11.5259  -22.5539 H   0  0  0  0  0  0
    5.0838    9.4780  -23.2451 H   0  0  0  0  0  0
    6.8533    8.9509  -23.0872 H   0  0  0  0  0  0
    4.9280    9.0230  -19.4170 H   0  0  0  0  0  0
    3.8331    9.5850  -20.8120 H   0  0  0  0  0  0
    3.4010    8.0175  -23.0945 H   0  0  0  0  0  0
    2.7811    7.6660  -21.4601 H   0  0  0  0  0  0
  1  2  2  0  0  0
  1  3  1  0  0  0
  1 34  1  0  0  0
  2  6  1  0  0  0
  2 35  1  0  0  0
  3  5  2  0  0  0
  3 27  1  0  0  0
  4  5  1  0  0  0
  4  6  2  0  0  0
  4 18  1  0  0  0
  5 24  1  0  0  0
  6 10  1  0  0  0
  7 10  2  0  0  0
  7 23  1  0  0  0
  7 33  1  0  0  0
  8 21  1  0  0  0
  8 22  1  0  0  0
  8 36  1  0  0  0
  8 37  1  0  0  0
  9 21  1  0  0  0
  9 31  1  0  0  0
  9 38  1  0  0  0
  9 39  1  0  0  0
 10 40  1  0  0  0
 11 12  1  0  0  0
 11 14  2  0  0  0
 11 15  1  0  0  0
 12 17  1  0  0  0
 12 28  2  0  0  0
 13 28  1  0  0  0
 13 29  2  0  0  0
 13 58  1  0  0  0
 14 29  1  0  0  0
 14 31  1  0  0  0
 15 30  2  0  0  0
 15 41  1  0  0  0
 16 17  2  0  0  0
 16 18  1  0  0  0
 16 30  1  0  0  0
 17 26  1  0  0  0
 18 23  2  0  0  0
 19 20  1  0  0  0
 19 31  1  0  0  0
 19 42  1  0  0  0
 19 43  1  0  0  0
 20 22  1  0  0  0
 20 32  1  0  0  0
 20 44  1  0  0  0
 21 32  1  0  0  0
 21 45  1  0  0  0
 22 46  1  0  0  0
 22 47  1  0  0  0
 23 48  1  0  0  0
 24 25  3  0  0  0
 25 49  1  0  0  0
 32 50  1  0  0  0
 33 51  1  0  0  0
 52 53  1  0  0  0
 52 58  1  0  0  0
 52 59  1  0  0  0
 52 60  1  0  0  0
 53 56  1  0  0  0
 53 57  1  0  0  0
 53 61  1  0  0  0
 54 55  1  0  0  0
 54 57  1  0  0  0
 54 62  1  0  0  0
 54 63  1  0  0  0
 55 56  1  0  0  0
 55 64  1  0  0  0
 55 65  1  0  0  0
 56 66  1  0  0  0
 56 67  1  0  0  0
 57 68  1  0  0  0
 57 69  1  0  0  0
 58 70  1  0  0  0
 58 71  1  0  0  0
M  CHG  1  52   1
M  END
> <s_m_entry_id>
178

> <s_m_entry_name>
000000178.1

> <s_m_Source_Path>
/Users/zaksoul/Documents/2

> <s_m_Source_File>
000000178.mol2

> <i_m_Source_File_Index>
1

$$$$
No_0_189
                    3D
 Schrodinger Suite 2022-4.
 71 77  0  0  1  0            999 V2000
   -5.5260    3.1180  -22.1800 C   0  0  0  0  0  0
   -5.7230    3.3260  -23.5240 C   0  0  0  0  0  0
   -4.3040    2.8740  -21.7780 C   0  0  0  0  0  0
   -3.3010    3.0470  -23.8900 C   0  0  0  0  0  0
   -3.2130    2.7800  -22.4670 C   0  0  0  0  0  0
   -4.6220    3.3030  -24.4780 C   0  0  0  0  0  0
   -3.7520    3.3700  -26.6320 C   0  0  0  0  0  0
    5.6930    2.6610  -20.8680 C   0  0  0  0  0  0
    5.6880    2.8450  -23.4180 C   0  0  0  0  0  0
   -4.8040    3.4500  -25.8230 C   0  0  0  0  0  0
    1.9030    3.3490  -23.6290 C   0  0  0  0  0  0
    1.0530    4.4420  -23.3560 C   0  0  0  0  0  0
    2.7970    5.6480  -22.5610 C   0  0  0  0  0  0
    3.2820    3.5510  -23.2380 C   0  0  0  0  0  0
    1.4060    2.2370  -24.3360 C   0  0  0  0  0  0
   -0.7340    3.0230  -24.3260 C   0  0  0  0  0  0
   -0.2550    4.2390  -23.6800 C   0  0  0  0  0  0
   -2.1660    3.0180  -24.7570 C   0  0  0  0  0  0
    3.9030    1.0560  -22.9550 C   0  0  0  0  0  0
    4.7790    0.6910  -21.7660 C   0  0  2  0  0  0
    6.3780    2.2600  -22.1920 C   0  0  2  0  0  0
    4.6860    1.6730  -20.5860 C   0  0  0  0  0  0
   -2.4170    3.1980  -26.1980 C   0  0  0  0  0  0
   -1.8970    2.3730  -21.8050 C   0  0  0  0  0  0
   -0.8900    2.0290  -21.2500 C   0  0  0  0  0  0
   -1.1270    5.2680  -23.3640 F   0  0  0  0  0  0
   -4.1650    2.6100  -20.3900 F   0  0  0  0  0  0
    1.4870    5.5980  -22.7810 N   0  0  0  0  0  0
    3.7160    4.6990  -22.7490 N   0  0  0  0  0  0
    0.1190    2.1370  -24.7120 N   0  0  0  0  0  0
    4.2210    2.5170  -23.3830 N   0  0  0  0  0  0
    6.2080    0.7830  -22.1720 N   0  0  1  0  0  0
   -3.8500    3.4070  -28.0290 O   0  0  0  0  0  0
   -6.3662    3.1592  -21.4964 H   0  0  0  0  0  0
   -6.7207    3.5147  -23.9034 H   0  0  0  0  0  0
    5.2160    3.6452  -20.9860 H   0  0  0  0  0  0
    6.4368    2.6681  -20.0576 H   0  0  0  0  0  0
    6.1363    2.4210  -24.3286 H   0  0  0  0  0  0
    5.8182    3.9372  -23.4261 H   0  0  0  0  0  0
   -5.7969    3.6287  -26.2196 H   0  0  0  0  0  0
    2.0699    1.4207  -24.5967 H   0  0  0  0  0  0
    2.8441    0.9814  -22.6666 H   0  0  0  0  0  0
    4.1180    0.3737  -23.7907 H   0  0  0  0  0  0
    4.5478   -0.3296  -21.4268 H   0  0  0  0  0  0
    7.4442    2.5303  -22.1779 H   0  0  0  0  0  0
    3.6954    2.1512  -20.5870 H   0  0  0  0  0  0
    4.9433    1.1473  -19.6546 H   0  0  0  0  0  0
   -1.6076    3.2000  -26.9190 H   0  0  0  0  0  0
   -0.0039    1.7260  -20.7620 H   0  0  0  0  0  0
    6.8229    0.2814  -21.4394 H   0  0  0  0  0  0
   -2.9827    3.3357  -28.4102 H   0  0  0  0  0  0
    4.8230    6.9820  -21.9670 N   0  3  0  0  0  0
    5.5270    8.2810  -21.6500 C   0  0  0  0  0  0
    5.6720   10.4130  -20.5270 C   0  0  0  0  0  0
    5.8770   10.6540  -22.0370 C   0  0  0  0  0  0
    5.4640    9.3530  -22.7500 C   0  0  0  0  0  0
    5.0370    9.0180  -20.3960 C   0  0  0  0  0  0
    3.3140    6.9850  -22.0420 C   0  0  0  0  0  0
    5.1190    6.2771  -21.3101 H   0  0  0  0  0  0
    5.1950    6.6060  -22.8251 H   0  0  0  0  0  0
    6.5890    8.0430  -21.4900 H   0  0  0  0  0  0
    4.9791   11.1679  -20.1270 H   0  0  0  0  0  0
    6.6475   10.4190  -20.0187 H   0  0  0  0  0  0
    6.9402   10.8569  -22.2329 H   0  0  0  0  0  0
    5.2247   11.4754  -22.3682 H   0  0  0  0  0  0
    4.4285    9.4470  -23.1092 H   0  0  0  0  0  0
    6.2018    9.1161  -23.5308 H   0  0  0  0  0  0
    5.4370    8.5190  -19.5010 H   0  0  0  0  0  0
    3.9418    9.1129  -20.4350 H   0  0  0  0  0  0
    2.9829    7.7912  -22.7132 H   0  0  0  0  0  0
    2.8979    7.1751  -21.0417 H   0  0  0  0  0  0
  1  2  2  0  0  0
  1  3  1  0  0  0
  1 34  1  0  0  0
  2  6  1  0  0  0
  2 35  1  0  0  0
  3  5  2  0  0  0
  3 27  1  0  0  0
  4  5  1  0  0  0
  4  6  2  0  0  0
  4 18  1  0  0  0
  5 24  1  0  0  0
  6 10  1  0  0  0
  7 10  2  0  0  0
  7 23  1  0  0  0
  7 33  1  0  0  0
  8 21  1  0  0  0
  8 22  1  0  0  0
  8 36  1  0  0  0
  8 37  1  0  0  0
  9 21  1  0  0  0
  9 31  1  0  0  0
  9 38  1  0  0  0
  9 39  1  0  0  0
 10 40  1  0  0  0
 11 12  1  0  0  0
 11 14  2  0  0  0
 11 15  1  0  0  0
 12 17  1  0  0  0
 12 28  2  0  0  0
 13 28  1  0  0  0
 13 29  2  0  0  0
 13 58  1  0  0  0
 14 29  1  0  0  0
 14 31  1  0  0  0
 15 30  2  0  0  0
 15 41  1  0  0  0
 16 17  2  0  0  0
 16 18  1  0  0  0
 16 30  1  0  0  0
 17 26  1  0  0  0
 18 23  2  0  0  0
 19 20  1  0  0  0
 19 31  1  0  0  0
 19 42  1  0  0  0
 19 43  1  0  0  0
 20 22  1  0  0  0
 20 32  1  0  0  0
 20 44  1  0  0  0
 21 32  1  0  0  0
 21 45  1  0  0  0
 22 46  1  0  0  0
 22 47  1  0  0  0
 23 48  1  0  0  0
 24 25  3  0  0  0
 25 49  1  0  0  0
 32 50  1  0  0  0
 33 51  1  0  0  0
 52 53  1  0  0  0
 52 58  1  0  0  0
 52 59  1  0  0  0
 52 60  1  0  0  0
 53 56  1  0  0  0
 53 57  1  0  0  0
 53 61  1  0  0  0
 54 55  1  0  0  0
 54 57  1  0  0  0
 54 62  1  0  0  0
 54 63  1  0  0  0
 55 56  1  0  0  0
 55 64  1  0  0  0
 55 65  1  0  0  0
 56 66  1  0  0  0
 56 67  1  0  0  0
 57 68  1  0  0  0
 57 69  1  0  0  0
 58 70  1  0  0  0
 58 71  1  0  0  0
M  CHG  1  52   1
M  END
> <s_m_entry_id>
179

> <s_m_entry_name>
000000179.1

> <s_m_Source_Path>
/Users/zaksoul/Documents/2

> <s_m_Source_File>
000000179.mol2

> <i_m_Source_File_Index>
1

$$$$
No_0_190
                    3D
 Schrodinger Suite 2022-4.
 74 80  0  0  1  0            999 V2000
   -5.3040    3.4670  -22.2270 C   0  0  0  0  0  0
   -5.5570    3.6240  -23.5690 C   0  0  0  0  0  0
   -4.0690    3.2270  -21.8670 C   0  0  0  0  0  0
   -3.1550    3.3070  -24.0250 C   0  0  0  0  0  0
   -3.0080    3.0960  -22.5970 C   0  0  0  0  0  0
   -4.4970    3.5520  -24.5660 C   0  0  0  0  0  0
   -3.7180    3.5260  -26.7560 C   0  0  0  0  0  0
    5.9550    2.9530  -21.3690 C   0  0  0  0  0  0
    5.8440    3.0360  -23.9230 C   0  0  0  0  0  0
   -4.7340    3.6480  -25.9070 C   0  0  0  0  0  0
    2.0580    3.5680  -23.9940 C   0  0  0  0  0  0
    1.2290    4.6800  -23.7290 C   0  0  0  0  0  0
    3.0150    5.8980  -23.0580 C   0  0  0  0  0  0
    3.4540    3.7720  -23.6700 C   0  0  0  0  0  0
    1.5230    2.4340  -24.6350 C   0  0  0  0  0  0
   -0.6080    3.2410  -24.5670 C   0  0  0  0  0  0
   -0.0930    4.4770  -23.9900 C   0  0  0  0  0  0
   -2.0570    3.2330  -24.9370 C   0  0  0  0  0  0
    4.0660    1.2840  -23.3140 C   0  0  0  0  0  0
    4.9880    0.9580  -22.1490 C   0  0  2  0  0  0
    6.5810    2.4920  -22.7040 C   0  0  2  0  0  0
    4.9540    1.9860  -21.0060 C   0  0  0  0  0  0
   -2.3680    3.3580  -26.3710 C   0  0  0  0  0  0
   -1.6690    2.7020  -21.9750 C   0  0  0  0  0  0
   -0.6430    2.3700  -21.4500 C   0  0  0  0  0  0
   -0.9420    5.5260  -23.6790 F   0  0  0  0  0  0
   -3.8730    3.0170  -20.4770 F   0  0  0  0  0  0
    1.6960    5.8530  -23.2190 N   0  0  0  0  0  0
    3.9180    4.9340  -23.2460 N   0  0  0  0  0  0
    0.2200    2.3320  -24.9520 N   0  0  0  0  0  0
    4.3780    2.7240  -23.8130 N   0  0  0  0  0  0
    6.4000    1.0200  -22.6180 N   0  0  1  0  0  0
   -3.8760    3.5080  -28.1480 O   0  0  0  0  0  0
   -6.1143    3.5432  -21.5110 H   0  0  0  0  0  0
   -6.5686    3.8078  -23.9125 H   0  0  0  0  0  0
    5.4816    3.9362  -21.5073 H   0  0  0  0  0  0
    6.7330    2.9843  -20.5920 H   0  0  0  0  0  0
    6.2508    2.5717  -24.8335 H   0  0  0  0  0  0
    5.9832    4.1257  -23.9795 H   0  0  0  0  0  0
   -5.7414    3.8206  -26.2682 H   0  0  0  0  0  0
    2.1681    1.6013  -24.8908 H   0  0  0  0  0  0
    3.0196    1.2305  -22.9790 H   0  0  0  0  0  0
    4.2396    0.5675  -24.1304 H   0  0  0  0  0  0
    4.7639   -0.0464  -21.7604 H   0  0  0  0  0  0
    7.6487    2.7534  -22.7454 H   0  0  0  0  0  0
    3.9681    2.4734  -20.9848 H   0  0  0  0  0  0
    5.2457    1.4944  -20.0662 H   0  0  0  0  0  0
   -1.5904    3.3239  -27.1255 H   0  0  0  0  0  0
    0.2607    2.0781  -20.9882 H   0  0  0  0  0  0
    7.0415    0.5410  -21.8931 H   0  0  0  0  0  0
   -3.0260    3.4140  -28.5616 H   0  0  0  0  0  0
    4.5740    7.0750  -21.5050 N   0  3  0  0  0  0
    6.4040    8.7340  -22.1030 C   0  0  0  0  0  0
    4.4240    9.4730  -20.6780 C   0  0  0  0  0  0
    5.3470    8.2940  -21.0610 C   0  0  0  0  0  0
    6.2570   11.0950  -21.2540 C   0  0  0  0  0  0
    7.2160    9.9280  -21.5600 C   0  0  0  0  0  0
    5.2640   10.6570  -20.1590 C   0  0  0  0  0  0
    3.5650    7.2500  -22.6140 C   0  0  0  0  0  0
    4.1192    6.6631  -20.7053 H   0  0  0  0  0  0
    5.2230    6.3471  -21.7600 H   0  0  0  0  0  0
    5.8991    9.0289  -23.0347 H   0  0  0  0  0  0
    7.0825    7.8943  -22.3142 H   0  0  0  0  0  0
    3.7228    9.1489  -19.8948 H   0  0  0  0  0  0
    3.8492    9.7899  -21.5607 H   0  0  0  0  0  0
    5.8961    8.0110  -20.1508 H   0  0  0  0  0  0
    5.7030   11.3620  -22.1660 H   0  0  0  0  0  0
    6.8354   11.9606  -20.8988 H   0  0  0  0  0  0
    7.9502   10.2451  -22.3152 H   0  0  0  0  0  0
    7.7339    9.6280  -20.6371 H   0  0  0  0  0  0
    5.8204   10.3468  -19.2623 H   0  0  0  0  0  0
    4.5982   11.4968  -19.9111 H   0  0  0  0  0  0
    4.0430    7.7490  -23.4699 H   0  0  0  0  0  0
    2.7380    7.8830  -22.2600 H   0  0  0  0  0  0
  1  2  2  0  0  0
  1  3  1  0  0  0
  1 34  1  0  0  0
  2  6  1  0  0  0
  2 35  1  0  0  0
  3  5  2  0  0  0
  3 27  1  0  0  0
  4  5  1  0  0  0
  4  6  2  0  0  0
  4 18  1  0  0  0
  5 24  1  0  0  0
  6 10  1  0  0  0
  7 10  2  0  0  0
  7 23  1  0  0  0
  7 33  1  0  0  0
  8 21  1  0  0  0
  8 22  1  0  0  0
  8 36  1  0  0  0
  8 37  1  0  0  0
  9 21  1  0  0  0
  9 31  1  0  0  0
  9 38  1  0  0  0
  9 39  1  0  0  0
 10 40  1  0  0  0
 11 12  1  0  0  0
 11 14  2  0  0  0
 11 15  1  0  0  0
 12 17  1  0  0  0
 12 28  2  0  0  0
 13 28  1  0  0  0
 13 29  2  0  0  0
 13 59  1  0  0  0
 14 29  1  0  0  0
 14 31  1  0  0  0
 15 30  2  0  0  0
 15 41  1  0  0  0
 16 17  2  0  0  0
 16 18  1  0  0  0
 16 30  1  0  0  0
 17 26  1  0  0  0
 18 23  2  0  0  0
 19 20  1  0  0  0
 19 31  1  0  0  0
 19 42  1  0  0  0
 19 43  1  0  0  0
 20 22  1  0  0  0
 20 32  1  0  0  0
 20 44  1  0  0  0
 21 32  1  0  0  0
 21 45  1  0  0  0
 22 46  1  0  0  0
 22 47  1  0  0  0
 23 48  1  0  0  0
 24 25  3  0  0  0
 25 49  1  0  0  0
 32 50  1  0  0  0
 33 51  1  0  0  0
 52 55  1  0  0  0
 52 59  1  0  0  0
 52 60  1  0  0  0
 52 61  1  0  0  0
 53 55  1  0  0  0
 53 57  1  0  0  0
 53 62  1  0  0  0
 53 63  1  0  0  0
 54 55  1  0  0  0
 54 58  1  0  0  0
 54 64  1  0  0  0
 54 65  1  0  0  0
 55 66  1  0  0  0
 56 57  1  0  0  0
 56 58  1  0  0  0
 56 67  1  0  0  0
 56 68  1  0  0  0
 57 69  1  0  0  0
 57 70  1  0  0  0
 58 71  1  0  0  0
 58 72  1  0  0  0
 59 73  1  0  0  0
 59 74  1  0  0  0
M  CHG  1  52   1
M  END
> <s_m_entry_id>
180

> <s_m_entry_name>
000000180.1

> <s_m_Source_Path>
/Users/zaksoul/Documents/2

> <s_m_Source_File>
000000180.mol2

> <i_m_Source_File_Index>
1

$$$$
No_0_191
                    3D
 Schrodinger Suite 2022-4.
 72 78  0  0  1  0            999 V2000
   -5.4500    3.2610  -22.2000 C   0  0  0  0  0  0
   -5.7110    3.3990  -23.5430 C   0  0  0  0  0  0
   -4.2080    3.0510  -21.8440 C   0  0  0  0  0  0
   -3.3050    3.1300  -24.0070 C   0  0  0  0  0  0
   -3.1480    2.9360  -22.5780 C   0  0  0  0  0  0
   -4.6550    3.3410  -24.5440 C   0  0  0  0  0  0
   -3.8860    3.3100  -26.7380 C   0  0  0  0  0  0
    5.8220    2.9980  -21.3930 C   0  0  0  0  0  0
    5.6980    3.0540  -23.9470 C   0  0  0  0  0  0
   -4.9010    3.4180  -25.8850 C   0  0  0  0  0  0
    1.9000    3.5030  -24.0040 C   0  0  0  0  0  0
    1.0490    4.6000  -23.7470 C   0  0  0  0  0  0
    2.8120    5.8630  -23.0960 C   0  0  0  0  0  0
    3.2930    3.7400  -23.6890 C   0  0  0  0  0  0
    1.3870    2.3520  -24.6320 C   0  0  0  0  0  0
   -0.7610    3.1130  -24.5610 C   0  0  0  0  0  0
   -0.2690    4.3650  -23.9990 C   0  0  0  0  0  0
   -2.2110    3.0700  -24.9240 C   0  0  0  0  0  0
    3.9600    1.2700  -23.3120 C   0  0  0  0  0  0
    4.8950    0.9760  -22.1490 C   0  0  2  0  0  0
    6.4520    2.5380  -22.7260 C   0  0  2  0  0  0
    4.8440    2.0140  -21.0150 C   0  0  0  0  0  0
   -2.5310    3.1750  -26.3580 C   0  0  0  0  0  0
   -1.7980    2.5770  -21.9590 C   0  0  0  0  0  0
   -0.7620    2.2730  -21.4350 C   0  0  0  0  0  0
   -1.1400    5.3990  -23.6940 F   0  0  0  0  0  0
   -4.0010    2.8600  -20.4530 F   0  0  0  0  0  0
    1.4930    5.7870  -23.2500 N   0  0  0  0  0  0
    3.7340    4.9170  -23.2790 N   0  0  0  0  0  0
    0.0860    2.2190  -24.9420 N   0  0  0  0  0  0
    4.2390    2.7110  -23.8260 N   0  0  0  0  0  0
    6.3030    1.0630  -22.6250 N   0  0  1  0  0  0
   -4.0500    3.2750  -28.1280 O   0  0  0  0  0  0
   -6.2580    3.3272  -21.4804 H   0  0  0  0  0  0
   -6.7280    3.5575  -23.8830 H   0  0  0  0  0  0
    5.3275    3.9699  -21.5373 H   0  0  0  0  0  0
    6.6029    3.0535  -20.6202 H   0  0  0  0  0  0
    6.1101    2.5894  -24.8549 H   0  0  0  0  0  0
    5.8130    4.1459  -24.0146 H   0  0  0  0  0  0
   -5.9137    3.5655  -26.2423 H   0  0  0  0  0  0
    2.0492    1.5313  -24.8828 H   0  0  0  0  0  0
    2.9167    1.1974  -22.9710 H   0  0  0  0  0  0
    4.1457    0.5496  -24.1222 H   0  0  0  0  0  0
    4.6942   -0.0290  -21.7494 H   0  0  0  0  0  0
    7.5137    2.8216  -22.7744 H   0  0  0  0  0  0
    3.8479    2.4802  -20.9938 H   0  0  0  0  0  0
    5.1509    1.5376  -20.0722 H   0  0  0  0  0  0
   -1.7562    3.1499  -27.1157 H   0  0  0  0  0  0
    0.1500    2.0050  -20.9750 H   0  0  0  0  0  0
    6.9585    0.6053  -21.8989 H   0  0  0  0  0  0
   -3.2004    3.1949  -28.5454 H   0  0  0  0  0  0
    5.9110   10.9110  -20.8430 O   0  0  0  0  0  0
    3.6580    7.2510  -21.1940 N   0  3  0  0  0  0
    4.3900    8.4630  -20.6650 C   0  0  0  0  0  0
    5.8870    8.4640  -21.0410 C   0  0  0  0  0  0
    3.7370    9.7950  -21.0910 C   0  0  0  0  0  0
    4.5220   10.9610  -20.4590 C   0  0  0  0  0  0
    6.5580    9.6990  -20.4070 C   0  0  0  0  0  0
    3.3340    7.2300  -22.6680 C   0  0  0  0  0  0
    2.8097    7.1190  -20.6658 H   0  0  0  0  0  0
    4.1790    6.4210  -20.9580 H   0  0  0  0  0  0
    4.3350    8.4160  -19.5674 H   0  0  0  0  0  0
    5.9900    8.5130  -22.1351 H   0  0  0  0  0  0
    6.3628    7.5504  -20.6552 H   0  0  0  0  0  0
    2.6952    9.8220  -20.7391 H   0  0  0  0  0  0
    3.7670    9.8850  -22.1869 H   0  0  0  0  0  0
    4.0862   11.9166  -20.7859 H   0  0  0  0  0  0
    4.4430   10.9050  -19.3633 H   0  0  0  0  0  0
    6.4980    9.6260  -19.3111 H   0  0  0  0  0  0
    7.6196    9.7270  -20.6939 H   0  0  0  0  0  0
    4.2374    7.4741  -23.2462 H   0  0  0  0  0  0
    2.5753    7.9957  -22.8869 H   0  0  0  0  0  0
  1  2  2  0  0  0
  1  3  1  0  0  0
  1 34  1  0  0  0
  2  6  1  0  0  0
  2 35  1  0  0  0
  3  5  2  0  0  0
  3 27  1  0  0  0
  4  5  1  0  0  0
  4  6  2  0  0  0
  4 18  1  0  0  0
  5 24  1  0  0  0
  6 10  1  0  0  0
  7 10  2  0  0  0
  7 23  1  0  0  0
  7 33  1  0  0  0
  8 21  1  0  0  0
  8 22  1  0  0  0
  8 36  1  0  0  0
  8 37  1  0  0  0
  9 21  1  0  0  0
  9 31  1  0  0  0
  9 38  1  0  0  0
  9 39  1  0  0  0
 10 40  1  0  0  0
 11 12  1  0  0  0
 11 14  2  0  0  0
 11 15  1  0  0  0
 12 17  1  0  0  0
 12 28  2  0  0  0
 13 28  1  0  0  0
 13 29  2  0  0  0
 13 59  1  0  0  0
 14 29  1  0  0  0
 14 31  1  0  0  0
 15 30  2  0  0  0
 15 41  1  0  0  0
 16 17  2  0  0  0
 16 18  1  0  0  0
 16 30  1  0  0  0
 17 26  1  0  0  0
 18 23  2  0  0  0
 19 20  1  0  0  0
 19 31  1  0  0  0
 19 42  1  0  0  0
 19 43  1  0  0  0
 20 22  1  0  0  0
 20 32  1  0  0  0
 20 44  1  0  0  0
 21 32  1  0  0  0
 21 45  1  0  0  0
 22 46  1  0  0  0
 22 47  1  0  0  0
 23 48  1  0  0  0
 24 25  3  0  0  0
 25 49  1  0  0  0
 32 50  1  0  0  0
 33 51  1  0  0  0
 52 57  1  0  0  0
 52 58  1  0  0  0
 53 54  1  0  0  0
 53 59  1  0  0  0
 53 60  1  0  0  0
 53 61  1  0  0  0
 54 55  1  0  0  0
 54 56  1  0  0  0
 54 62  1  0  0  0
 55 58  1  0  0  0
 55 63  1  0  0  0
 55 64  1  0  0  0
 56 57  1  0  0  0
 56 65  1  0  0  0
 56 66  1  0  0  0
 57 67  1  0  0  0
 57 68  1  0  0  0
 58 69  1  0  0  0
 58 70  1  0  0  0
 59 71  1  0  0  0
 59 72  1  0  0  0
M  CHG  1  53   1
M  END
> <s_m_entry_id>
181

> <s_m_entry_name>
000000181.1

> <s_m_Source_Path>
/Users/zaksoul/Documents/2

> <s_m_Source_File>
000000181.mol2

> <i_m_Source_File_Index>
1

$$$$
No_0_192
                    3D
 Schrodinger Suite 2022-4.
 72 78  0  0  1  0            999 V2000
   -5.1690    3.0880  -21.9310 C   0  0  0  0  0  0
   -5.4650    3.2950  -23.2570 C   0  0  0  0  0  0
   -3.9170    2.8670  -21.6170 C   0  0  0  0  0  0
   -3.0700    3.0650  -23.7950 C   0  0  0  0  0  0
   -2.8760    2.7970  -22.3830 C   0  0  0  0  0  0
   -4.4340    3.2950  -24.2860 C   0  0  0  0  0  0
   -3.7200    3.3850  -26.4970 C   0  0  0  0  0  0
    6.1210    2.8520  -21.4200 C   0  0  0  0  0  0
    5.9320    3.0410  -23.9630 C   0  0  0  0  0  0
   -4.7140    3.4420  -25.6140 C   0  0  0  0  0  0
    2.1320    3.4700  -23.9020 C   0  0  0  0  0  0
    1.2830    4.5460  -23.5660 C   0  0  0  0  0  0
    3.0550    5.7840  -22.8930 C   0  0  0  0  0  0
    3.5320    3.6990  -23.6100 C   0  0  0  0  0  0
    1.6090    2.3500  -24.5770 C   0  0  0  0  0  0
   -0.5400    3.0930  -24.4120 C   0  0  0  0  0  0
   -0.0410    4.3170  -23.7970 C   0  0  0  0  0  0
   -1.9990    3.0610  -24.7400 C   0  0  0  0  0  0
    4.2200    1.2160  -23.3800 C   0  0  0  0  0  0
    5.1850    0.8670  -22.2580 C   0  0  2  0  0  0
    6.7190    2.4670  -22.7910 C   0  0  2  0  0  0
    5.1570    1.8430  -21.0700 C   0  0  0  0  0  0
   -2.3550    3.2380  -26.1590 C   0  0  0  0  0  0
   -1.5080    2.4150  -21.8170 C   0  0  0  0  0  0
   -0.4580    2.0900  -21.3360 C   0  0  0  0  0  0
   -0.9080    5.3280  -23.4160 F   0  0  0  0  0  0
   -3.6740    2.6040  -20.2440 F   0  0  0  0  0  0
    1.7330    5.7080  -23.0190 N   0  0  0  0  0  0
    3.9770    4.8550  -23.1490 N   0  0  0  0  0  0
    0.3010    2.2250  -24.8610 N   0  0  0  0  0  0
    4.4790    2.6840  -23.8250 N   0  0  0  0  0  0
    6.5800    0.9880  -22.7640 N   0  0  1  0  0  0
   -3.9190    3.4220  -27.8830 O   0  0  0  0  0  0
   -5.9590    3.1111  -21.1891 H   0  0  0  0  0  0
   -6.4909    3.4646  -23.5632 H   0  0  0  0  0  0
    5.6183    3.8271  -21.5008 H   0  0  0  0  0  0
    6.9206    2.8722  -20.6648 H   0  0  0  0  0  0
    6.3226    2.6282  -24.9048 H   0  0  0  0  0  0
    6.0399    4.1356  -23.9761 H   0  0  0  0  0  0
   -5.7357    3.6016  -25.9392 H   0  0  0  0  0  0
    2.2682    1.5473  -24.8870 H   0  0  0  0  0  0
    3.1859    1.1191  -23.0178 H   0  0  0  0  0  0
    4.3885    0.5401  -24.2314 H   0  0  0  0  0  0
    4.9994   -0.1588  -21.9070 H   0  0  0  0  0  0
    7.7779    2.7587  -22.8506 H   0  0  0  0  0  0
    4.1595    2.3013  -20.9993 H   0  0  0  0  0  0
    5.4902    1.3201  -20.1614 H   0  0  0  0  0  0
   -1.5992    3.2581  -26.9358 H   0  0  0  0  0  0
    0.4660    1.8030  -20.9130 H   0  0  0  0  0  0
    7.2552    0.4966  -22.0792 H   0  0  0  0  0  0
   -3.0795    3.3695  -28.3245 H   0  0  0  0  0  0
    6.3410   10.9000  -21.1060 O   0  0  0  0  0  0
    4.6280    6.9490  -21.3360 N   0  3  0  0  0  0
    5.4000    8.1770  -20.9100 C   0  0  0  0  0  0
    6.4670    8.5960  -21.9450 C   0  0  0  0  0  0
    4.4890    9.3770  -20.5750 C   0  0  0  0  0  0
    5.3660   10.5530  -20.1030 C   0  0  0  0  0  0
    7.2410    9.8110  -21.3970 C   0  0  0  0  0  0
    3.5810    7.1300  -22.4070 C   0  0  0  0  0  0
    4.2029    6.5279  -20.5248 H   0  0  0  0  0  0
    5.2772    6.2338  -21.6241 H   0  0  0  0  0  0
    5.9359    7.9140  -19.9861 H   0  0  0  0  0  0
    5.9732    8.8709  -22.8887 H   0  0  0  0  0  0
    7.1643    7.7616  -22.1111 H   0  0  0  0  0  0
    3.7922    9.0941  -19.7722 H   0  0  0  0  0  0
    3.9286    9.6742  -21.4737 H   0  0  0  0  0  0
    4.7281   11.4249  -19.8960 H   0  0  0  0  0  0
    5.8809   10.2761  -19.1712 H   0  0  0  0  0  0
    7.7739    9.5220  -20.4791 H   0  0  0  0  0  0
    7.9831   10.1381  -22.1401 H   0  0  0  0  0  0
    4.0148    7.6808  -23.2546 H   0  0  0  0  0  0
    2.7470    7.7260  -22.0080 H   0  0  0  0  0  0
  1  2  2  0  0  0
  1  3  1  0  0  0
  1 34  1  0  0  0
  2  6  1  0  0  0
  2 35  1  0  0  0
  3  5  2  0  0  0
  3 27  1  0  0  0
  4  5  1  0  0  0
  4  6  2  0  0  0
  4 18  1  0  0  0
  5 24  1  0  0  0
  6 10  1  0  0  0
  7 10  2  0  0  0
  7 23  1  0  0  0
  7 33  1  0  0  0
  8 21  1  0  0  0
  8 22  1  0  0  0
  8 36  1  0  0  0
  8 37  1  0  0  0
  9 21  1  0  0  0
  9 31  1  0  0  0
  9 38  1  0  0  0
  9 39  1  0  0  0
 10 40  1  0  0  0
 11 12  1  0  0  0
 11 14  2  0  0  0
 11 15  1  0  0  0
 12 17  1  0  0  0
 12 28  2  0  0  0
 13 28  1  0  0  0
 13 29  2  0  0  0
 13 59  1  0  0  0
 14 29  1  0  0  0
 14 31  1  0  0  0
 15 30  2  0  0  0
 15 41  1  0  0  0
 16 17  2  0  0  0
 16 18  1  0  0  0
 16 30  1  0  0  0
 17 26  1  0  0  0
 18 23  2  0  0  0
 19 20  1  0  0  0
 19 31  1  0  0  0
 19 42  1  0  0  0
 19 43  1  0  0  0
 20 22  1  0  0  0
 20 32  1  0  0  0
 20 44  1  0  0  0
 21 32  1  0  0  0
 21 45  1  0  0  0
 22 46  1  0  0  0
 22 47  1  0  0  0
 23 48  1  0  0  0
 24 25  3  0  0  0
 25 49  1  0  0  0
 32 50  1  0  0  0
 33 51  1  0  0  0
 52 57  1  0  0  0
 52 58  1  0  0  0
 53 54  1  0  0  0
 53 59  1  0  0  0
 53 60  1  0  0  0
 53 61  1  0  0  0
 54 55  1  0  0  0
 54 56  1  0  0  0
 54 62  1  0  0  0
 55 58  1  0  0  0
 55 63  1  0  0  0
 55 64  1  0  0  0
 56 57  1  0  0  0
 56 65  1  0  0  0
 56 66  1  0  0  0
 57 67  1  0  0  0
 57 68  1  0  0  0
 58 69  1  0  0  0
 58 70  1  0  0  0
 59 71  1  0  0  0
 59 72  1  0  0  0
M  CHG  1  53   1
M  END
> <s_m_entry_id>
182

> <s_m_entry_name>
000000182.1

> <s_m_Source_Path>
/Users/zaksoul/Documents/2

> <s_m_Source_File>
000000182.mol2

> <i_m_Source_File_Index>
1

$$$$
No_0_193
                    3D
 Schrodinger Suite 2022-4.
 69 75  0  0  1  0            999 V2000
   -5.1750    3.3780  -22.0860 C   0  0  0  0  0  0
   -5.4260    3.5570  -23.4260 C   0  0  0  0  0  0
   -3.9420    3.1160  -21.7310 C   0  0  0  0  0  0
   -3.0290    3.2140  -23.8880 C   0  0  0  0  0  0
   -2.8840    2.9810  -22.4640 C   0  0  0  0  0  0
   -4.3680    3.4850  -24.4250 C   0  0  0  0  0  0
   -3.5910    3.4800  -26.6160 C   0  0  0  0  0  0
    6.0780    2.6970  -21.2480 C   0  0  0  0  0  0
    5.9660    2.8190  -23.8000 C   0  0  0  0  0  0
   -4.6050    3.6030  -25.7640 C   0  0  0  0  0  0
    2.1870    3.4030  -23.8590 C   0  0  0  0  0  0
    1.3740    4.5220  -23.5780 C   0  0  0  0  0  0
    3.1770    5.7060  -22.8910 C   0  0  0  0  0  0
    3.5860    3.5830  -23.5340 C   0  0  0  0  0  0
    1.6360    2.2860  -24.5160 C   0  0  0  0  0  0
   -0.4840    3.1210  -24.4340 C   0  0  0  0  0  0
    0.0490    4.3410  -23.8400 C   0  0  0  0  0  0
   -1.9330    3.1380  -24.8030 C   0  0  0  0  0  0
    4.1640    1.0820  -23.2140 C   0  0  0  0  0  0
    5.0830    0.7270  -22.0550 C   0  0  2  0  0  0
    6.6960    2.2480  -22.5890 C   0  0  2  0  0  0
    5.0630    1.7390  -20.8970 C   0  0  0  0  0  0
   -2.2430    3.2880  -26.2350 C   0  0  0  0  0  0
   -1.5500    2.5600  -21.8490 C   0  0  0  0  0  0
   -0.5280    2.2060  -21.3300 C   0  0  0  0  0  0
   -0.7860    5.3970  -23.5130 F   0  0  0  0  0  0
   -3.7480    2.8830  -20.3450 F   0  0  0  0  0  0
    1.8570    5.6810  -23.0520 N   0  0  0  0  0  0
    4.0660    4.7330  -23.0940 N   0  0  0  0  0  0
    0.3320    2.2060  -24.8340 N   0  0  0  0  0  0
    4.4950    2.5250  -23.6930 N   0  0  0  0  0  0
    6.4950    0.7760  -22.5240 N   0  0  1  0  0  0
   -3.7500    3.4840  -28.0070 O   0  0  0  0  0  0
   -5.9834    3.4553  -21.3680 H   0  0  0  0  0  0
   -6.4350    3.7598  -23.7663 H   0  0  0  0  0  0
    5.6180    3.6886  -21.3711 H   0  0  0  0  0  0
    6.8563    2.7071  -20.4707 H   0  0  0  0  0  0
    6.3647    2.3617  -24.7176 H   0  0  0  0  0  0
    6.1195    3.9075  -23.8404 H   0  0  0  0  0  0
   -5.6099    3.7947  -26.1224 H   0  0  0  0  0  0
    2.2693    1.4480  -24.7840 H   0  0  0  0  0  0
    3.1175    1.0386  -22.8779 H   0  0  0  0  0  0
    4.3276    0.3753  -24.0409 H   0  0  0  0  0  0
    4.8448   -0.2795  -21.6805 H   0  0  0  0  0  0
    7.7674    2.4942  -22.6283 H   0  0  0  0  0  0
    4.0840    2.2396  -20.8677 H   0  0  0  0  0  0
    5.3496    1.2305  -19.9647 H   0  0  0  0  0  0
   -1.4664    3.2539  -26.9905 H   0  0  0  0  0  0
    0.3718    1.8951  -20.8731 H   0  0  0  0  0  0
    7.1308    0.2783  -21.8068 H   0  0  0  0  0  0
   -2.9021    3.3841  -28.4235 H   0  0  0  0  0  0
    3.3970    7.3110  -20.9830 N   0  3  0  0  0  0
    5.7060    7.8810  -20.1410 C   0  0  0  0  0  0
    4.2040    9.7060  -20.9760 C   0  0  0  0  0  0
    4.2280    8.3390  -20.2480 C   0  0  0  0  0  0
    3.7450    7.0440  -22.4290 C   0  0  0  0  0  0
    5.5970    9.7740  -21.5360 C   0  0  0  0  0  0
    6.3830    8.8210  -21.0990 C   0  0  0  0  0  0
    2.4237    7.5651  -20.9190 H   0  0  0  0  0  0
    3.4160    6.4425  -20.4717 H   0  0  0  0  0  0
    5.7940    6.8525  -20.5212 H   0  0  0  0  0  0
    6.0718    8.0789  -19.1226 H   0  0  0  0  0  0
    4.0740   10.5083  -20.2348 H   0  0  0  0  0  0
    3.4832    9.6610  -21.8057 H   0  0  0  0  0  0
    3.8207    8.4681  -19.2344 H   0  0  0  0  0  0
    4.8386    7.0380  -22.5470 H   0  0  0  0  0  0
    3.3410    7.8510  -23.0580 H   0  0  0  0  0  0
    5.9778   10.5146  -22.2377 H   0  0  0  0  0  0
    7.4173    8.7700  -21.4361 H   0  0  0  0  0  0
  1  2  2  0  0  0
  1  3  1  0  0  0
  1 34  1  0  0  0
  2  6  1  0  0  0
  2 35  1  0  0  0
  3  5  2  0  0  0
  3 27  1  0  0  0
  4  5  1  0  0  0
  4  6  2  0  0  0
  4 18  1  0  0  0
  5 24  1  0  0  0
  6 10  1  0  0  0
  7 10  2  0  0  0
  7 23  1  0  0  0
  7 33  1  0  0  0
  8 21  1  0  0  0
  8 22  1  0  0  0
  8 36  1  0  0  0
  8 37  1  0  0  0
  9 21  1  0  0  0
  9 31  1  0  0  0
  9 38  1  0  0  0
  9 39  1  0  0  0
 10 40  1  0  0  0
 11 12  1  0  0  0
 11 14  2  0  0  0
 11 15  1  0  0  0
 12 17  1  0  0  0
 12 28  2  0  0  0
 13 28  1  0  0  0
 13 29  2  0  0  0
 13 56  1  0  0  0
 14 29  1  0  0  0
 14 31  1  0  0  0
 15 30  2  0  0  0
 15 41  1  0  0  0
 16 17  2  0  0  0
 16 18  1  0  0  0
 16 30  1  0  0  0
 17 26  1  0  0  0
 18 23  2  0  0  0
 19 20  1  0  0  0
 19 31  1  0  0  0
 19 42  1  0  0  0
 19 43  1  0  0  0
 20 22  1  0  0  0
 20 32  1  0  0  0
 20 44  1  0  0  0
 21 32  1  0  0  0
 21 45  1  0  0  0
 22 46  1  0  0  0
 22 47  1  0  0  0
 23 48  1  0  0  0
 24 25  3  0  0  0
 25 49  1  0  0  0
 32 50  1  0  0  0
 33 51  1  0  0  0
 52 55  1  0  0  0
 52 56  1  0  0  0
 52 59  1  0  0  0
 52 60  1  0  0  0
 53 55  1  0  0  0
 53 58  1  0  0  0
 53 61  1  0  0  0
 53 62  1  0  0  0
 54 55  1  0  0  0
 54 57  1  0  0  0
 54 63  1  0  0  0
 54 64  1  0  0  0
 55 65  1  0  0  0
 56 66  1  0  0  0
 56 67  1  0  0  0
 57 58  2  0  0  0
 57 68  1  0  0  0
 58 69  1  0  0  0
M  CHG  1  52   1
M  END
> <s_m_entry_id>
183

> <s_m_entry_name>
000000183.1

> <s_m_Source_Path>
/Users/zaksoul/Documents/2

> <s_m_Source_File>
000000183.mol2

> <i_m_Source_File_Index>
1

$$$$
No_0_194
                    3D
 Schrodinger Suite 2022-4.
 69 75  0  0  1  0            999 V2000
   -5.2080    3.3950  -22.2460 C   0  0  0  0  0  0
   -5.4260    3.5620  -23.5930 C   0  0  0  0  0  0
   -3.9790    3.1720  -21.8550 C   0  0  0  0  0  0
   -3.0070    3.2930  -23.9860 C   0  0  0  0  0  0
   -2.8960    3.0680  -22.5580 C   0  0  0  0  0  0
   -4.3390    3.5200  -24.5610 C   0  0  0  0  0  0
   -3.5010    3.5320  -26.7290 C   0  0  0  0  0  0
    6.0320    3.0710  -21.0870 C   0  0  0  0  0  0
    5.9890    3.1800  -23.6420 C   0  0  0  0  0  0
   -4.5420    3.6260  -25.9070 C   0  0  0  0  0  0
    2.1970    3.6460  -23.8110 C   0  0  0  0  0  0
    1.3410    4.7400  -23.5570 C   0  0  0  0  0  0
    3.0860    5.9820  -22.8240 C   0  0  0  0  0  0
    3.5800    3.8700  -23.4470 C   0  0  0  0  0  0
    1.7000    2.5090  -24.4780 C   0  0  0  0  0  0
   -0.4470    3.2780  -24.4590 C   0  0  0  0  0  0
    0.0310    4.5160  -23.8560 C   0  0  0  0  0  0
   -1.8850    3.2480  -24.8690 C   0  0  0  0  0  0
    4.2260    1.3900  -23.1000 C   0  0  0  0  0  0
    5.1230    1.0680  -21.9150 C   0  0  2  0  0  0
    6.7020    2.6360  -22.4090 C   0  0  2  0  0  0
    5.0390    2.0820  -20.7620 C   0  0  0  0  0  0
   -2.1590    3.3840  -26.3100 C   0  0  0  0  0  0
   -1.5680    2.6910  -21.9030 C   0  0  0  0  0  0
   -0.5500    2.3720  -21.3540 C   0  0  0  0  0  0
   -0.8460    5.5460  -23.5570 F   0  0  0  0  0  0
   -3.8160    2.9510  -20.4630 F   0  0  0  0  0  0
    1.7730    5.9150  -23.0220 N   0  0  0  0  0  0
    4.0110    5.0360  -22.9980 N   0  0  0  0  0  0
    0.4080    2.3880  -24.8320 N   0  0  0  0  0  0
    4.5260    2.8410  -23.5750 N   0  0  0  0  0  0
    6.5450    1.1600  -22.3440 N   0  0  1  0  0  0
   -3.6200    3.5270  -28.1250 O   0  0  0  0  0  0
   -6.0383    3.4492  -21.5512 H   0  0  0  0  0  0
   -6.4312    3.7305  -23.9622 H   0  0  0  0  0  0
    5.5445    4.0470  -21.2273 H   0  0  0  0  0  0
    6.7879    3.1073  -20.2887 H   0  0  0  0  0  0
    6.4281    2.7338  -24.5465 H   0  0  0  0  0  0
    6.1101    4.2725  -23.6834 H   0  0  0  0  0  0
   -5.5422    3.7847  -26.2936 H   0  0  0  0  0  0
    2.3667    1.6907  -24.7250 H   0  0  0  0  0  0
    3.1720    1.3153  -22.7941 H   0  0  0  0  0  0
    4.4348    0.6860  -23.9190 H   0  0  0  0  0  0
    4.9061    0.0559  -21.5427 H   0  0  0  0  0  0
    7.7656    2.9165  -22.4181 H   0  0  0  0  0  0
    4.0445    2.5520  -20.7620 H   0  0  0  0  0  0
    5.3135    1.5855  -19.8196 H   0  0  0  0  0  0
   -1.3601    3.3720  -27.0426 H   0  0  0  0  0  0
    0.3456    2.0911  -20.8702 H   0  0  0  0  0  0
    7.1757    0.6843  -21.6075 H   0  0  0  0  0  0
   -2.7579    3.4518  -28.5170 H   0  0  0  0  0  0
    3.5310    7.4500  -20.8460 N   0  3  0  0  0  0
    5.8940    8.2250  -20.4210 C   0  0  0  0  0  0
    4.0750    9.9160  -20.7600 C   0  0  0  0  0  0
    4.3870    8.5100  -20.1900 C   0  0  0  0  0  0
    3.5990    7.3380  -22.3510 C   0  0  0  0  0  0
    5.3090   10.1930  -21.5720 C   0  0  0  0  0  0
    6.2600    9.3090  -21.3940 C   0  0  0  0  0  0
    2.5711    7.5800  -20.5670 H   0  0  0  0  0  0
    3.7430    6.5530  -20.4380 H   0  0  0  0  0  0
    6.0059    7.2464  -20.9108 H   0  0  0  0  0  0
    6.4398    8.3849  -19.4794 H   0  0  0  0  0  0
    4.0200   10.6370  -19.9310 H   0  0  0  0  0  0
    3.2068    9.8490  -21.4321 H   0  0  0  0  0  0
    4.1859    8.5110  -19.1085 H   0  0  0  0  0  0
    4.6394    7.4720  -22.6821 H   0  0  0  0  0  0
    2.9944    8.1365  -22.8057 H   0  0  0  0  0  0
    5.4600   11.0251  -22.2581 H   0  0  0  0  0  0
    7.2024    9.4079  -21.9307 H   0  0  0  0  0  0
  1  2  2  0  0  0
  1  3  1  0  0  0
  1 34  1  0  0  0
  2  6  1  0  0  0
  2 35  1  0  0  0
  3  5  2  0  0  0
  3 27  1  0  0  0
  4  5  1  0  0  0
  4  6  2  0  0  0
  4 18  1  0  0  0
  5 24  1  0  0  0
  6 10  1  0  0  0
  7 10  2  0  0  0
  7 23  1  0  0  0
  7 33  1  0  0  0
  8 21  1  0  0  0
  8 22  1  0  0  0
  8 36  1  0  0  0
  8 37  1  0  0  0
  9 21  1  0  0  0
  9 31  1  0  0  0
  9 38  1  0  0  0
  9 39  1  0  0  0
 10 40  1  0  0  0
 11 12  1  0  0  0
 11 14  2  0  0  0
 11 15  1  0  0  0
 12 17  1  0  0  0
 12 28  2  0  0  0
 13 28  1  0  0  0
 13 29  2  0  0  0
 13 56  1  0  0  0
 14 29  1  0  0  0
 14 31  1  0  0  0
 15 30  2  0  0  0
 15 41  1  0  0  0
 16 17  2  0  0  0
 16 18  1  0  0  0
 16 30  1  0  0  0
 17 26  1  0  0  0
 18 23  2  0  0  0
 19 20  1  0  0  0
 19 31  1  0  0  0
 19 42  1  0  0  0
 19 43  1  0  0  0
 20 22  1  0  0  0
 20 32  1  0  0  0
 20 44  1  0  0  0
 21 32  1  0  0  0
 21 45  1  0  0  0
 22 46  1  0  0  0
 22 47  1  0  0  0
 23 48  1  0  0  0
 24 25  3  0  0  0
 25 49  1  0  0  0
 32 50  1  0  0  0
 33 51  1  0  0  0
 52 55  1  0  0  0
 52 56  1  0  0  0
 52 59  1  0  0  0
 52 60  1  0  0  0
 53 55  1  0  0  0
 53 58  1  0  0  0
 53 61  1  0  0  0
 53 62  1  0  0  0
 54 55  1  0  0  0
 54 57  1  0  0  0
 54 63  1  0  0  0
 54 64  1  0  0  0
 55 65  1  0  0  0
 56 66  1  0  0  0
 56 67  1  0  0  0
 57 58  2  0  0  0
 57 68  1  0  0  0
 58 69  1  0  0  0
M  CHG  1  52   1
M  END
> <s_m_entry_id>
184

> <s_m_entry_name>
000000184.1

> <s_m_Source_Path>
/Users/zaksoul/Documents/2

> <s_m_Source_File>
000000184.mol2

> <i_m_Source_File_Index>
1

$$$$
No_0_195
                    3D
 Schrodinger Suite 2022-4.
 69 75  0  0  1  0            999 V2000
   -5.5870    3.2050  -21.9090 C   0  0  0  0  0  0
   -5.8530    3.3780  -23.2470 C   0  0  0  0  0  0
   -4.3430    2.9950  -21.5610 C   0  0  0  0  0  0
   -3.4460    3.1410  -23.7230 C   0  0  0  0  0  0
   -3.2840    2.9090  -22.3010 C   0  0  0  0  0  0
   -4.7990    3.3560  -24.2520 C   0  0  0  0  0  0
   -4.0340    3.3920  -26.4470 C   0  0  0  0  0  0
    5.6890    3.0110  -21.1320 C   0  0  0  0  0  0
    5.5580    3.1360  -23.6830 C   0  0  0  0  0  0
   -5.0470    3.4680  -25.5890 C   0  0  0  0  0  0
    1.7570    3.5560  -23.7210 C   0  0  0  0  0  0
    0.8980    4.6380  -23.4310 C   0  0  0  0  0  0
    2.6510    5.8970  -22.7480 C   0  0  0  0  0  0
    3.1490    3.7960  -23.4020 C   0  0  0  0  0  0
    1.2520    2.4180  -24.3790 C   0  0  0  0  0  0
   -0.9020    3.1600  -24.2820 C   0  0  0  0  0  0
   -0.4200    4.4000  -23.6870 C   0  0  0  0  0  0
   -2.3530    3.1160  -24.6440 C   0  0  0  0  0  0
    3.8360    1.3210  -23.0950 C   0  0  0  0  0  0
    4.7760    1.0020  -21.9420 C   0  0  2  0  0  0
    6.3190    2.5930  -22.4790 C   0  0  2  0  0  0
    4.7190    2.0080  -20.7800 C   0  0  0  0  0  0
   -2.6770    3.2570  -26.0740 C   0  0  0  0  0  0
   -1.9290    2.5440  -21.6940 C   0  0  0  0  0  0
   -0.8900    2.2330  -21.1820 C   0  0  0  0  0  0
   -1.2980    5.4180  -23.3510 F   0  0  0  0  0  0
   -4.1310    2.7660  -20.1770 F   0  0  0  0  0  0
    1.3330    5.8150  -22.9030 N   0  0  0  0  0  0
    3.5810    4.9640  -22.9600 N   0  0  0  0  0  0
   -0.0490    2.2840  -24.6900 N   0  0  0  0  0  0
    4.1020    2.7780  -23.5690 N   0  0  0  0  0  0
    6.1820    1.1140  -22.4180 N   0  0  1  0  0  0
   -4.2000    3.3940  -27.8370 O   0  0  0  0  0  0
   -6.3940    3.2441  -21.1863 H   0  0  0  0  0  0
   -6.8718    3.5376  -23.5812 H   0  0  0  0  0  0
    5.1854    3.9819  -21.2491 H   0  0  0  0  0  0
    6.4703    3.0514  -20.3588 H   0  0  0  0  0  0
    5.9719    2.7009  -24.6046 H   0  0  0  0  0  0
    5.6640    4.2302  -23.7203 H   0  0  0  0  0  0
   -6.0613    3.6175  -25.9411 H   0  0  0  0  0  0
    1.9198    1.6096  -24.6541 H   0  0  0  0  0  0
    2.7941    1.2311  -22.7538 H   0  0  0  0  0  0
    4.0257    0.6249  -23.9253 H   0  0  0  0  0  0
    4.5843   -0.0152  -21.5697 H   0  0  0  0  0  0
    7.3784    2.8859  -22.5214 H   0  0  0  0  0  0
    3.7191    2.4651  -20.7437 H   0  0  0  0  0  0
    5.0318    1.5095  -19.8507 H   0  0  0  0  0  0
   -1.9030    3.2600  -26.8329 H   0  0  0  0  0  0
    0.0250    1.9600  -20.7310 H   0  0  0  0  0  0
    6.8429    0.6424  -21.7058 H   0  0  0  0  0  0
   -3.3509    3.3326  -28.2586 H   0  0  0  0  0  0
    3.4910    7.2380  -20.8090 N   0  3  0  0  0  0
    5.8140    8.2170  -20.9300 C   0  0  0  0  0  0
    3.8430    9.7320  -20.6070 C   0  0  0  0  0  0
    4.4060    8.3240  -20.2890 C   0  0  0  0  0  0
    3.1630    7.2560  -22.2840 C   0  0  0  0  0  0
    4.7890   10.2000  -21.6770 C   0  0  0  0  0  0
    5.8200    9.4080  -21.8450 C   0  0  0  0  0  0
    2.6337    7.2450  -20.2788 H   0  0  0  0  0  0
    3.8750    6.3380  -20.5670 H   0  0  0  0  0  0
    5.8670    7.2984  -21.5328 H   0  0  0  0  0  0
    6.5770    8.3560  -20.1500 H   0  0  0  0  0  0
    3.9549   10.3736  -19.7205 H   0  0  0  0  0  0
    2.8348    9.6310  -21.0351 H   0  0  0  0  0  0
    4.5010    8.2170  -19.1983 H   0  0  0  0  0  0
    4.0639    7.5230  -22.8559 H   0  0  0  0  0  0
    2.3981    8.0219  -22.4800 H   0  0  0  0  0  0
    4.6860   11.0969  -22.2860 H   0  0  0  0  0  0
    6.5736    9.6479  -22.5936 H   0  0  0  0  0  0
  1  2  2  0  0  0
  1  3  1  0  0  0
  1 34  1  0  0  0
  2  6  1  0  0  0
  2 35  1  0  0  0
  3  5  2  0  0  0
  3 27  1  0  0  0
  4  5  1  0  0  0
  4  6  2  0  0  0
  4 18  1  0  0  0
  5 24  1  0  0  0
  6 10  1  0  0  0
  7 10  2  0  0  0
  7 23  1  0  0  0
  7 33  1  0  0  0
  8 21  1  0  0  0
  8 22  1  0  0  0
  8 36  1  0  0  0
  8 37  1  0  0  0
  9 21  1  0  0  0
  9 31  1  0  0  0
  9 38  1  0  0  0
  9 39  1  0  0  0
 10 40  1  0  0  0
 11 12  1  0  0  0
 11 14  2  0  0  0
 11 15  1  0  0  0
 12 17  1  0  0  0
 12 28  2  0  0  0
 13 28  1  0  0  0
 13 29  2  0  0  0
 13 56  1  0  0  0
 14 29  1  0  0  0
 14 31  1  0  0  0
 15 30  2  0  0  0
 15 41  1  0  0  0
 16 17  2  0  0  0
 16 18  1  0  0  0
 16 30  1  0  0  0
 17 26  1  0  0  0
 18 23  2  0  0  0
 19 20  1  0  0  0
 19 31  1  0  0  0
 19 42  1  0  0  0
 19 43  1  0  0  0
 20 22  1  0  0  0
 20 32  1  0  0  0
 20 44  1  0  0  0
 21 32  1  0  0  0
 21 45  1  0  0  0
 22 46  1  0  0  0
 22 47  1  0  0  0
 23 48  1  0  0  0
 24 25  3  0  0  0
 25 49  1  0  0  0
 32 50  1  0  0  0
 33 51  1  0  0  0
 52 55  1  0  0  0
 52 56  1  0  0  0
 52 59  1  0  0  0
 52 60  1  0  0  0
 53 55  1  0  0  0
 53 58  1  0  0  0
 53 61  1  0  0  0
 53 62  1  0  0  0
 54 55  1  0  0  0
 54 57  1  0  0  0
 54 63  1  0  0  0
 54 64  1  0  0  0
 55 65  1  0  0  0
 56 66  1  0  0  0
 56 67  1  0  0  0
 57 58  2  0  0  0
 57 68  1  0  0  0
 58 69  1  0  0  0
M  CHG  1  52   1
M  END
> <s_m_entry_id>
185

> <s_m_entry_name>
000000185.1

> <s_m_Source_Path>
/Users/zaksoul/Documents/2

> <s_m_Source_File>
000000185.mol2

> <i_m_Source_File_Index>
1

$$$$
No_0_196
                    3D
 Schrodinger Suite 2022-4.
 69 75  0  0  1  0            999 V2000
   -5.1940    3.4530  -22.1820 C   0  0  0  0  0  0
   -5.4390    3.6370  -23.5230 C   0  0  0  0  0  0
   -3.9550    3.2420  -21.8160 C   0  0  0  0  0  0
   -3.0240    3.4050  -23.9630 C   0  0  0  0  0  0
   -2.8840    3.1620  -22.5400 C   0  0  0  0  0  0
   -4.3690    3.6230  -24.5110 C   0  0  0  0  0  0
   -3.5690    3.6770  -26.6930 C   0  0  0  0  0  0
    6.0680    3.2600  -21.2280 C   0  0  0  0  0  0
    5.9770    3.4050  -23.7800 C   0  0  0  0  0  0
   -4.5970    3.7450  -25.8510 C   0  0  0  0  0  0
    2.1770    3.8230  -23.8740 C   0  0  0  0  0  0
    1.3130    4.9020  -23.5900 C   0  0  0  0  0  0
    3.0550    6.1570  -22.8700 C   0  0  0  0  0  0
    3.5640    4.0610  -23.5320 C   0  0  0  0  0  0
    1.6830    2.6900  -24.5490 C   0  0  0  0  0  0
   -0.4720    3.4300  -24.4810 C   0  0  0  0  0  0
   -0.0000    4.6660  -23.8690 C   0  0  0  0  0  0
   -1.9170    3.3870  -24.8660 C   0  0  0  0  0  0
    4.2480    1.5850  -23.2330 C   0  0  0  0  0  0
    5.1700    1.2580  -22.0680 C   0  0  2  0  0  0
    6.7200    2.8530  -22.5680 C   0  0  2  0  0  0
    5.0930    2.2540  -20.8990 C   0  0  0  0  0  0
   -2.2180    3.5400  -26.3000 C   0  0  0  0  0  0
   -1.5390    2.7930  -21.9140 C   0  0  0  0  0  0
   -0.5080    2.4790  -21.3880 C   0  0  0  0  0  0
   -0.8840    5.6800  -23.5390 F   0  0  0  0  0  0
   -3.7650    3.0030  -20.4310 F   0  0  0  0  0  0
    1.7390    6.0750  -23.0460 N   0  0  0  0  0  0
    3.9880    5.2260  -23.0740 N   0  0  0  0  0  0
    0.3880    2.5570  -24.8820 N   0  0  0  0  0  0
    4.5210    3.0460  -23.6920 N   0  0  0  0  0  0
    6.5830    1.3740  -22.5210 N   0  0  1  0  0  0
   -3.7140    3.6900  -28.0860 O   0  0  0  0  0  0
   -6.0124    3.4871  -21.4720 H   0  0  0  0  0  0
   -6.4529    3.7976  -23.8713 H   0  0  0  0  0  0
    5.5664    4.2319  -21.3451 H   0  0  0  0  0  0
    6.8373    3.2953  -20.4426 H   0  0  0  0  0  0
    6.4062    2.9769  -24.6979 H   0  0  0  0  0  0
    6.0839    4.4995  -23.8072 H   0  0  0  0  0  0
   -5.6059    3.8966  -26.2174 H   0  0  0  0  0  0
    2.3560    1.8846  -24.8198 H   0  0  0  0  0  0
    3.2010    1.4911  -22.9089 H   0  0  0  0  0  0
    4.4518    0.8951  -24.0652 H   0  0  0  0  0  0
    4.9723    0.2380  -21.7068 H   0  0  0  0  0  0
    7.7798    3.1467  -22.5922 H   0  0  0  0  0  0
    4.0928    2.7112  -20.8748 H   0  0  0  0  0  0
    5.3919    1.7481  -19.9691 H   0  0  0  0  0  0
   -1.4322    3.5490  -27.0467 H   0  0  0  0  0  0
    0.4001    2.2030  -20.9250 H   0  0  0  0  0  0
    7.2324    0.8968  -21.8020 H   0  0  0  0  0  0
   -2.8579    3.6316  -28.4937 H   0  0  0  0  0  0
    4.2660    7.3880  -21.0590 N   0  3  0  0  0  0
    6.3850    8.6260  -21.6450 C   0  0  0  0  0  0
    4.4540    9.8740  -20.6460 C   0  0  0  0  0  0
    5.1940    8.5130  -20.6580 C   0  0  0  0  0  0
    3.5580    7.5130  -22.3870 C   0  0  0  0  0  0
    5.0400   10.5460  -21.8560 C   0  0  0  0  0  0
    6.0510    9.8940  -22.3770 C   0  0  0  0  0  0
    3.5826    7.2471  -20.3316 H   0  0  0  0  0  0
    4.7725    6.5169  -21.0340 H   0  0  0  0  0  0
    6.3520    7.7817  -22.3493 H   0  0  0  0  0  0
    7.3137    8.7730  -21.0742 H   0  0  0  0  0  0
    4.7430   10.4350  -19.7450 H   0  0  0  0  0  0
    3.3803    9.7030  -20.8130 H   0  0  0  0  0  0
    5.5842    8.3109  -19.6496 H   0  0  0  0  0  0
    4.2495    7.9327  -23.1325 H   0  0  0  0  0  0
    2.7081    8.2039  -22.2860 H   0  0  0  0  0  0
    4.7060   11.4811  -22.3031 H   0  0  0  0  0  0
    6.5567   10.2877  -23.2574 H   0  0  0  0  0  0
  1  2  2  0  0  0
  1  3  1  0  0  0
  1 34  1  0  0  0
  2  6  1  0  0  0
  2 35  1  0  0  0
  3  5  2  0  0  0
  3 27  1  0  0  0
  4  5  1  0  0  0
  4  6  2  0  0  0
  4 18  1  0  0  0
  5 24  1  0  0  0
  6 10  1  0  0  0
  7 10  2  0  0  0
  7 23  1  0  0  0
  7 33  1  0  0  0
  8 21  1  0  0  0
  8 22  1  0  0  0
  8 36  1  0  0  0
  8 37  1  0  0  0
  9 21  1  0  0  0
  9 31  1  0  0  0
  9 38  1  0  0  0
  9 39  1  0  0  0
 10 40  1  0  0  0
 11 12  1  0  0  0
 11 14  2  0  0  0
 11 15  1  0  0  0
 12 17  1  0  0  0
 12 28  2  0  0  0
 13 28  1  0  0  0
 13 29  2  0  0  0
 13 56  1  0  0  0
 14 29  1  0  0  0
 14 31  1  0  0  0
 15 30  2  0  0  0
 15 41  1  0  0  0
 16 17  2  0  0  0
 16 18  1  0  0  0
 16 30  1  0  0  0
 17 26  1  0  0  0
 18 23  2  0  0  0
 19 20  1  0  0  0
 19 31  1  0  0  0
 19 42  1  0  0  0
 19 43  1  0  0  0
 20 22  1  0  0  0
 20 32  1  0  0  0
 20 44  1  0  0  0
 21 32  1  0  0  0
 21 45  1  0  0  0
 22 46  1  0  0  0
 22 47  1  0  0  0
 23 48  1  0  0  0
 24 25  3  0  0  0
 25 49  1  0  0  0
 32 50  1  0  0  0
 33 51  1  0  0  0
 52 55  1  0  0  0
 52 56  1  0  0  0
 52 59  1  0  0  0
 52 60  1  0  0  0
 53 55  1  0  0  0
 53 58  1  0  0  0
 53 61  1  0  0  0
 53 62  1  0  0  0
 54 55  1  0  0  0
 54 57  1  0  0  0
 54 63  1  0  0  0
 54 64  1  0  0  0
 55 65  1  0  0  0
 56 66  1  0  0  0
 56 67  1  0  0  0
 57 58  2  0  0  0
 57 68  1  0  0  0
 58 69  1  0  0  0
M  CHG  1  52   1
M  END
> <s_m_entry_id>
186

> <s_m_entry_name>
000000186.1

> <s_m_Source_Path>
/Users/zaksoul/Documents/2

> <s_m_Source_File>
000000186.mol2

> <i_m_Source_File_Index>
1

$$$$
No_0_197
                    3D
 Schrodinger Suite 2022-4.
 69 75  0  0  1  0            999 V2000
   -5.3040    3.5980  -22.0670 C   0  0  0  0  0  0
   -5.5520    3.7520  -23.4100 C   0  0  0  0  0  0
   -4.0700    3.3590  -21.7030 C   0  0  0  0  0  0
   -3.1490    3.4360  -23.8580 C   0  0  0  0  0  0
   -3.0070    3.2280  -22.4300 C   0  0  0  0  0  0
   -4.4900    3.6790  -24.4040 C   0  0  0  0  0  0
   -3.7040    3.6500  -26.5920 C   0  0  0  0  0  0
    5.9540    3.0930  -21.1760 C   0  0  0  0  0  0
    5.8500    3.1720  -23.7290 C   0  0  0  0  0  0
   -4.7230    3.7730  -25.7460 C   0  0  0  0  0  0
    2.0630    3.7010  -23.8130 C   0  0  0  0  0  0
    1.2330    4.8130  -23.5520 C   0  0  0  0  0  0
    3.0160    6.0340  -22.8770 C   0  0  0  0  0  0
    3.4580    3.9060  -23.4850 C   0  0  0  0  0  0
    1.5310    2.5650  -24.4530 C   0  0  0  0  0  0
   -0.6010    3.3710  -24.3920 C   0  0  0  0  0  0
   -0.0880    4.6080  -23.8170 C   0  0  0  0  0  0
   -2.0490    3.3610  -24.7670 C   0  0  0  0  0  0
    4.0710    1.4190  -23.1230 C   0  0  0  0  0  0
    4.9900    1.0970  -21.9550 C   0  0  2  0  0  0
    6.5840    2.6310  -22.5080 C   0  0  2  0  0  0
    4.9520    2.1260  -20.8130 C   0  0  0  0  0  0
   -2.3550    3.4840  -26.2030 C   0  0  0  0  0  0
   -1.6690    2.8360  -21.8030 C   0  0  0  0  0  0
   -0.6440    2.5060  -21.2740 C   0  0  0  0  0  0
   -0.9390    5.6570  -23.5100 F   0  0  0  0  0  0
   -3.8770    3.1520  -20.3120 F   0  0  0  0  0  0
    1.6980    5.9870  -23.0430 N   0  0  0  0  0  0
    3.9200    5.0700  -23.0610 N   0  0  0  0  0  0
    0.2300    2.4620  -24.7740 N   0  0  0  0  0  0
    4.3840    2.8590  -23.6230 N   0  0  0  0  0  0
    6.4030    1.1580  -22.4200 N   0  0  1  0  0  0
   -3.8580    3.6300  -27.9830 O   0  0  0  0  0  0
   -6.1162    3.6753  -21.3532 H   0  0  0  0  0  0
   -6.5627    3.9337  -23.7573 H   0  0  0  0  0  0
    5.4798    4.0756  -21.3162 H   0  0  0  0  0  0
    6.7289    3.1263  -20.3960 H   0  0  0  0  0  0
    6.2587    2.7068  -24.6382 H   0  0  0  0  0  0
    5.9882    4.2617  -23.7875 H   0  0  0  0  0  0
   -5.7296    3.9436  -26.1103 H   0  0  0  0  0  0
    2.1783    1.7331  -24.7059 H   0  0  0  0  0  0
    3.0236    1.3665  -22.7910 H   0  0  0  0  0  0
    4.2477    0.7013  -23.9376 H   0  0  0  0  0  0
    4.7650    0.0931  -21.5656 H   0  0  0  0  0  0
    7.6518    2.8924  -22.5464 H   0  0  0  0  0  0
    3.9658    2.6130  -20.7959 H   0  0  0  0  0  0
    5.2416    1.6365  -19.8714 H   0  0  0  0  0  0
   -1.5750    3.4489  -26.9549 H   0  0  0  0  0  0
    0.2583    2.2149  -20.8089 H   0  0  0  0  0  0
    7.0431    0.6814  -21.6923 H   0  0  0  0  0  0
   -3.0070    3.5360  -28.3946 H   0  0  0  0  0  0
    4.5720    7.2260  -21.3210 N   0  3  0  0  0  0
    6.4370    8.6140  -22.3020 C   0  0  0  0  0  0
    4.7480    9.6920  -20.7950 C   0  0  0  0  0  0
    5.5200    8.3780  -21.0740 C   0  0  0  0  0  0
    3.5630    7.3870  -22.4350 C   0  0  0  0  0  0
    5.0020   10.4640  -22.0600 C   0  0  0  0  0  0
    5.8850    9.9010  -22.8470 C   0  0  0  0  0  0
    4.0870    7.0070  -20.4649 H   0  0  0  0  0  0
    5.1052    6.3847  -21.4761 H   0  0  0  0  0  0
    6.2721    7.8113  -23.0358 H   0  0  0  0  0  0
    7.4681    8.7810  -21.9570 H   0  0  0  0  0  0
    5.2201   10.2161  -19.9509 H   0  0  0  0  0  0
    3.6735    9.4699  -20.7170 H   0  0  0  0  0  0
    6.1468    8.1421  -20.2013 H   0  0  0  0  0  0
    4.0391    7.8871  -23.2912 H   0  0  0  0  0  0
    2.7336    8.0213  -22.0888 H   0  0  0  0  0  0
    4.5319   11.4022  -22.3511 H   0  0  0  0  0  0
    6.1499   10.3718  -23.7926 H   0  0  0  0  0  0
  1  2  2  0  0  0
  1  3  1  0  0  0
  1 34  1  0  0  0
  2  6  1  0  0  0
  2 35  1  0  0  0
  3  5  2  0  0  0
  3 27  1  0  0  0
  4  5  1  0  0  0
  4  6  2  0  0  0
  4 18  1  0  0  0
  5 24  1  0  0  0
  6 10  1  0  0  0
  7 10  2  0  0  0
  7 23  1  0  0  0
  7 33  1  0  0  0
  8 21  1  0  0  0
  8 22  1  0  0  0
  8 36  1  0  0  0
  8 37  1  0  0  0
  9 21  1  0  0  0
  9 31  1  0  0  0
  9 38  1  0  0  0
  9 39  1  0  0  0
 10 40  1  0  0  0
 11 12  1  0  0  0
 11 14  2  0  0  0
 11 15  1  0  0  0
 12 17  1  0  0  0
 12 28  2  0  0  0
 13 28  1  0  0  0
 13 29  2  0  0  0
 13 56  1  0  0  0
 14 29  1  0  0  0
 14 31  1  0  0  0
 15 30  2  0  0  0
 15 41  1  0  0  0
 16 17  2  0  0  0
 16 18  1  0  0  0
 16 30  1  0  0  0
 17 26  1  0  0  0
 18 23  2  0  0  0
 19 20  1  0  0  0
 19 31  1  0  0  0
 19 42  1  0  0  0
 19 43  1  0  0  0
 20 22  1  0  0  0
 20 32  1  0  0  0
 20 44  1  0  0  0
 21 32  1  0  0  0
 21 45  1  0  0  0
 22 46  1  0  0  0
 22 47  1  0  0  0
 23 48  1  0  0  0
 24 25  3  0  0  0
 25 49  1  0  0  0
 32 50  1  0  0  0
 33 51  1  0  0  0
 52 55  1  0  0  0
 52 56  1  0  0  0
 52 59  1  0  0  0
 52 60  1  0  0  0
 53 55  1  0  0  0
 53 58  1  0  0  0
 53 61  1  0  0  0
 53 62  1  0  0  0
 54 55  1  0  0  0
 54 57  1  0  0  0
 54 63  1  0  0  0
 54 64  1  0  0  0
 55 65  1  0  0  0
 56 66  1  0  0  0
 56 67  1  0  0  0
 57 58  2  0  0  0
 57 68  1  0  0  0
 58 69  1  0  0  0
M  CHG  1  52   1
M  END
> <s_m_entry_id>
187

> <s_m_entry_name>
000000187.1

> <s_m_Source_Path>
/Users/zaksoul/Documents/2

> <s_m_Source_File>
000000187.mol2

> <i_m_Source_File_Index>
1

$$$$
No_0_198
                    3D
 Schrodinger Suite 2022-4.
 69 75  0  0  1  0            999 V2000
   -5.3720    3.2760  -21.9210 C   0  0  0  0  0  0
   -5.6370    3.4970  -23.2520 C   0  0  0  0  0  0
   -4.1340    3.0210  -21.5840 C   0  0  0  0  0  0
   -3.2380    3.2060  -23.7430 C   0  0  0  0  0  0
   -3.0790    2.9270  -22.3290 C   0  0  0  0  0  0
   -4.5860    3.4740  -24.2610 C   0  0  0  0  0  0
   -3.8260    3.5550  -26.4560 C   0  0  0  0  0  0
    5.8950    2.7390  -21.1880 C   0  0  0  0  0  0
    5.7610    2.9440  -23.7340 C   0  0  0  0  0  0
   -4.8350    3.6340  -25.5930 C   0  0  0  0  0  0
    1.9740    3.4730  -23.7460 C   0  0  0  0  0  0
    1.1470    4.5690  -23.4210 C   0  0  0  0  0  0
    2.9370    5.7570  -22.7080 C   0  0  0  0  0  0
    3.3730    3.6630  -23.4250 C   0  0  0  0  0  0
    1.4350    2.3700  -24.4360 C   0  0  0  0  0  0
   -0.6970    3.1690  -24.3100 C   0  0  0  0  0  0
   -0.1780    4.3770  -23.6800 C   0  0  0  0  0  0
   -2.1490    3.1770  -24.6680 C   0  0  0  0  0  0
    3.9900    1.1620  -23.1940 C   0  0  0  0  0  0
    4.9230    0.7820  -22.0550 C   0  0  2  0  0  0
    6.5100    2.3440  -22.5490 C   0  0  2  0  0  0
    4.8980    1.7540  -20.8630 C   0  0  0  0  0  0
   -2.4720    3.3700  -26.0920 C   0  0  0  0  0  0
   -1.7340    2.5050  -21.7380 C   0  0  0  0  0  0
   -0.7030    2.1500  -21.2390 C   0  0  0  0  0  0
   -1.0260    5.4090  -23.3110 F   0  0  0  0  0  0
   -3.9250    2.7450  -20.2080 F   0  0  0  0  0  0
    1.6170    5.7170  -22.8600 N   0  0  0  0  0  0
    3.8390    4.8050  -22.9500 N   0  0  0  0  0  0
    0.1300    2.2810  -24.7470 N   0  0  0  0  0  0
    4.2960    2.6240  -23.6260 N   0  0  0  0  0  0
    6.3310    0.8680  -22.5320 N   0  0  1  0  0  0
   -3.9960    3.6030  -27.8450 O   0  0  0  0  0  0
   -6.1761    3.3172  -21.1952 H   0  0  0  0  0  0
   -6.6520    3.6948  -23.5773 H   0  0  0  0  0  0
    5.4196    3.7272  -21.2748 H   0  0  0  0  0  0
    6.6793    2.7340  -20.4168 H   0  0  0  0  0  0
    6.1597    2.5251  -24.6697 H   0  0  0  0  0  0
    5.8993    4.0353  -23.7390 H   0  0  0  0  0  0
   -5.8455    3.8226  -25.9372 H   0  0  0  0  0  0
    2.0787    1.5515  -24.7373 H   0  0  0  0  0  0
    2.9470    1.0913  -22.8517 H   0  0  0  0  0  0
    4.1575    0.4860  -24.0455 H   0  0  0  0  0  0
    4.7041   -0.2400  -21.7120 H   0  0  0  0  0  0
    7.5773    2.6075  -22.5864 H   0  0  0  0  0  0
    3.9119    2.2385  -20.8095 H   0  0  0  0  0  0
    5.1987    1.2193  -19.9499 H   0  0  0  0  0  0
   -1.7010    3.3740  -26.8540 H   0  0  0  0  0  0
    0.2049    1.8380  -20.7991 H   0  0  0  0  0  0
    6.9796    0.3564  -21.8363 H   0  0  0  0  0  0
   -3.1502    3.5298  -28.2714 H   0  0  0  0  0  0
    4.7470    6.8810  -21.3940 N   0  3  0  0  0  0
    6.2240    8.5620  -22.5610 C   0  0  0  0  0  0
    4.8900    9.2610  -20.5570 C   0  0  0  0  0  0
    5.6520    8.0770  -21.2030 C   0  0  0  0  0  0
    3.4890    7.0870  -22.2050 C   0  0  0  0  0  0
    4.7770   10.2140  -21.7130 C   0  0  0  0  0  0
    5.4750    9.8490  -22.7610 C   0  0  0  0  0  0
    4.5020    6.5039  -20.4919 H   0  0  0  0  0  0
    5.2788    6.1243  -21.7948 H   0  0  0  0  0  0
    5.9361    7.8502  -23.3487 H   0  0  0  0  0  0
    7.2954    8.7821  -22.4440 H   0  0  0  0  0  0
    5.5201    9.7131  -19.7769 H   0  0  0  0  0  0
    3.8838    8.9259  -20.2649 H   0  0  0  0  0  0
    6.4872    7.7909  -20.5468 H   0  0  0  0  0  0
    3.7081    7.7403  -23.0624 H   0  0  0  0  0  0
    2.7308    7.5862  -21.5838 H   0  0  0  0  0  0
    4.1913   11.1316  -21.7420 H   0  0  0  0  0  0
    5.4700   10.4639  -23.6598 H   0  0  0  0  0  0
  1  2  2  0  0  0
  1  3  1  0  0  0
  1 34  1  0  0  0
  2  6  1  0  0  0
  2 35  1  0  0  0
  3  5  2  0  0  0
  3 27  1  0  0  0
  4  5  1  0  0  0
  4  6  2  0  0  0
  4 18  1  0  0  0
  5 24  1  0  0  0
  6 10  1  0  0  0
  7 10  2  0  0  0
  7 23  1  0  0  0
  7 33  1  0  0  0
  8 21  1  0  0  0
  8 22  1  0  0  0
  8 36  1  0  0  0
  8 37  1  0  0  0
  9 21  1  0  0  0
  9 31  1  0  0  0
  9 38  1  0  0  0
  9 39  1  0  0  0
 10 40  1  0  0  0
 11 12  1  0  0  0
 11 14  2  0  0  0
 11 15  1  0  0  0
 12 17  1  0  0  0
 12 28  2  0  0  0
 13 28  1  0  0  0
 13 29  2  0  0  0
 13 56  1  0  0  0
 14 29  1  0  0  0
 14 31  1  0  0  0
 15 30  2  0  0  0
 15 41  1  0  0  0
 16 17  2  0  0  0
 16 18  1  0  0  0
 16 30  1  0  0  0
 17 26  1  0  0  0
 18 23  2  0  0  0
 19 20  1  0  0  0
 19 31  1  0  0  0
 19 42  1  0  0  0
 19 43  1  0  0  0
 20 22  1  0  0  0
 20 32  1  0  0  0
 20 44  1  0  0  0
 21 32  1  0  0  0
 21 45  1  0  0  0
 22 46  1  0  0  0
 22 47  1  0  0  0
 23 48  1  0  0  0
 24 25  3  0  0  0
 25 49  1  0  0  0
 32 50  1  0  0  0
 33 51  1  0  0  0
 52 55  1  0  0  0
 52 56  1  0  0  0
 52 59  1  0  0  0
 52 60  1  0  0  0
 53 55  1  0  0  0
 53 58  1  0  0  0
 53 61  1  0  0  0
 53 62  1  0  0  0
 54 55  1  0  0  0
 54 57  1  0  0  0
 54 63  1  0  0  0
 54 64  1  0  0  0
 55 65  1  0  0  0
 56 66  1  0  0  0
 56 67  1  0  0  0
 57 58  2  0  0  0
 57 68  1  0  0  0
 58 69  1  0  0  0
M  CHG  1  52   1
M  END
> <s_m_entry_id>
188

> <s_m_entry_name>
000000188.1

> <s_m_Source_Path>
/Users/zaksoul/Documents/2

> <s_m_Source_File>
000000188.mol2

> <i_m_Source_File_Index>
1

$$$$
No_0_199
                    3D
 Schrodinger Suite 2022-4.
 69 75  0  0  1  0            999 V2000
   -5.4130    3.2150  -21.9380 C   0  0  0  0  0  0
   -5.6530    3.4270  -23.2750 C   0  0  0  0  0  0
   -4.1780    2.9770  -21.5750 C   0  0  0  0  0  0
   -3.2420    3.1660  -23.7160 C   0  0  0  0  0  0
   -3.1080    2.8940  -22.2980 C   0  0  0  0  0  0
   -4.5820    3.4150  -24.2620 C   0  0  0  0  0  0
   -3.7790    3.4980  -26.4420 C   0  0  0  0  0  0
    5.8430    2.8260  -20.9750 C   0  0  0  0  0  0
    5.7590    3.0200  -23.5240 C   0  0  0  0  0  0
   -4.8060    3.5670  -25.6000 C   0  0  0  0  0  0
    1.9660    3.5000  -23.6150 C   0  0  0  0  0  0
    1.1180    4.5870  -23.3110 C   0  0  0  0  0  0
    2.8780    5.8000  -22.5650 C   0  0  0  0  0  0
    3.3550    3.7100  -23.2660 C   0  0  0  0  0  0
    1.4550    2.3880  -24.3110 C   0  0  0  0  0  0
   -0.6890    3.1600  -24.2320 C   0  0  0  0  0  0
   -0.1980    4.3770  -23.5950 C   0  0  0  0  0  0
   -2.1340    3.1480  -24.6180 C   0  0  0  0  0  0
    4.0000    1.2170  -23.0130 C   0  0  0  0  0  0
    4.9150    0.8540  -21.8540 C   0  0  2  0  0  0
    6.4900    2.4340  -22.3220 C   0  0  2  0  0  0
    4.8520    1.8290  -20.6660 C   0  0  0  0  0  0
   -2.4300    3.3320  -26.0500 C   0  0  0  0  0  0
   -1.7700    2.4920  -21.6780 C   0  0  0  0  0  0
   -0.7440    2.1520  -21.1570 C   0  0  0  0  0  0
   -1.0670    5.3990  -23.2480 F   0  0  0  0  0  0
   -3.9940    2.7080  -20.1940 F   0  0  0  0  0  0
    1.5620    5.7430  -22.7440 N   0  0  0  0  0  0
    3.7970    4.8590  -22.7850 N   0  0  0  0  0  0
    0.1580    2.2820  -24.6480 N   0  0  0  0  0  0
    4.2960    2.6820  -23.4440 N   0  0  0  0  0  0
    6.3300    0.9570  -22.3030 N   0  0  1  0  0  0
   -3.9210    3.5390  -27.8340 O   0  0  0  0  0  0
   -6.2319    3.2481  -21.2285 H   0  0  0  0  0  0
   -6.6637    3.6107  -23.6213 H   0  0  0  0  0  0
    5.3563    3.8074  -21.0750 H   0  0  0  0  0  0
    6.6122    2.8341  -20.1887 H   0  0  0  0  0  0
    6.1820    2.6030  -24.4498 H   0  0  0  0  0  0
    5.8821    4.1131  -23.5301 H   0  0  0  0  0  0
   -5.8120    3.7407  -25.9645 H   0  0  0  0  0  0
    2.1154    1.5770  -24.5960 H   0  0  0  0  0  0
    2.9509    1.1342  -22.6929 H   0  0  0  0  0  0
    4.1938    0.5408  -23.8587 H   0  0  0  0  0  0
    4.7012   -0.1695  -21.5122 H   0  0  0  0  0  0
    7.5543    2.7114  -22.3392 H   0  0  0  0  0  0
    3.8590    2.3013  -20.6347 H   0  0  0  0  0  0
    5.1417    1.3011  -19.7455 H   0  0  0  0  0  0
   -1.6437    3.3430  -26.7961 H   0  0  0  0  0  0
    0.1589    1.8530  -20.6981 H   0  0  0  0  0  0
    6.9713    0.4557  -21.5932 H   0  0  0  0  0  0
   -3.0658    3.4757  -28.2428 H   0  0  0  0  0  0
    4.8930    7.0820  -21.8160 N   0  3  0  0  0  0
    5.5580    9.1500  -23.1000 C   0  0  0  0  0  0
    5.0380    9.3220  -20.6540 C   0  0  0  0  0  0
    5.6340    8.3980  -21.7460 C   0  0  0  0  0  0
    3.4020    7.1390  -22.0560 C   0  0  0  0  0  0
    4.3560   10.3710  -21.4860 C   0  0  0  0  0  0
    4.6280   10.2820  -22.7650 C   0  0  0  0  0  0
    5.0730    6.5549  -20.9759 H   0  0  0  0  0  0
    5.3199    6.4991  -22.5189 H   0  0  0  0  0  0
    5.0809    8.4999  -23.8481 H   0  0  0  0  0  0
    6.5504    9.5577  -23.3428 H   0  0  0  0  0  0
    5.8580    9.7870  -20.0870 H   0  0  0  0  0  0
    4.2806    8.7645  -20.0835 H   0  0  0  0  0  0
    6.6894    8.2001  -21.5071 H   0  0  0  0  0  0
    3.1800    7.9239  -22.7940 H   0  0  0  0  0  0
    2.8896    7.4002  -21.1183 H   0  0  0  0  0  0
    3.6901   11.1529  -21.1240 H   0  0  0  0  0  0
    4.1908   10.9913  -23.4663 H   0  0  0  0  0  0
  1  2  2  0  0  0
  1  3  1  0  0  0
  1 34  1  0  0  0
  2  6  1  0  0  0
  2 35  1  0  0  0
  3  5  2  0  0  0
  3 27  1  0  0  0
  4  5  1  0  0  0
  4  6  2  0  0  0
  4 18  1  0  0  0
  5 24  1  0  0  0
  6 10  1  0  0  0
  7 10  2  0  0  0
  7 23  1  0  0  0
  7 33  1  0  0  0
  8 21  1  0  0  0
  8 22  1  0  0  0
  8 36  1  0  0  0
  8 37  1  0  0  0
  9 21  1  0  0  0
  9 31  1  0  0  0
  9 38  1  0  0  0
  9 39  1  0  0  0
 10 40  1  0  0  0
 11 12  1  0  0  0
 11 14  2  0  0  0
 11 15  1  0  0  0
 12 17  1  0  0  0
 12 28  2  0  0  0
 13 28  1  0  0  0
 13 29  2  0  0  0
 13 56  1  0  0  0
 14 29  1  0  0  0
 14 31  1  0  0  0
 15 30  2  0  0  0
 15 41  1  0  0  0
 16 17  2  0  0  0
 16 18  1  0  0  0
 16 30  1  0  0  0
 17 26  1  0  0  0
 18 23  2  0  0  0
 19 20  1  0  0  0
 19 31  1  0  0  0
 19 42  1  0  0  0
 19 43  1  0  0  0
 20 22  1  0  0  0
 20 32  1  0  0  0
 20 44  1  0  0  0
 21 32  1  0  0  0
 21 45  1  0  0  0
 22 46  1  0  0  0
 22 47  1  0  0  0
 23 48  1  0  0  0
 24 25  3  0  0  0
 25 49  1  0  0  0
 32 50  1  0  0  0
 33 51  1  0  0  0
 52 55  1  0  0  0
 52 56  1  0  0  0
 52 59  1  0  0  0
 52 60  1  0  0  0
 53 55  1  0  0  0
 53 58  1  0  0  0
 53 61  1  0  0  0
 53 62  1  0  0  0
 54 55  1  0  0  0
 54 57  1  0  0  0
 54 63  1  0  0  0
 54 64  1  0  0  0
 55 65  1  0  0  0
 56 66  1  0  0  0
 56 67  1  0  0  0
 57 58  2  0  0  0
 57 68  1  0  0  0
 58 69  1  0  0  0
M  CHG  1  52   1
M  END
> <s_m_entry_id>
189

> <s_m_entry_name>
000000189.1

> <s_m_Source_Path>
/Users/zaksoul/Documents/2

> <s_m_Source_File>
000000189.mol2

> <i_m_Source_File_Index>
1

$$$$
No_0_200
                    3D
 Schrodinger Suite 2022-4.
 66 72  0  0  1  0            999 V2000
   -5.2760    3.4640  -22.0820 C   0  0  0  0  0  0
   -5.5400    3.6010  -23.4250 C   0  0  0  0  0  0
   -4.0330    3.2570  -21.7270 C   0  0  0  0  0  0
   -3.1330    3.3360  -23.8920 C   0  0  0  0  0  0
   -2.9740    3.1440  -22.4630 C   0  0  0  0  0  0
   -4.4850    3.5430  -24.4280 C   0  0  0  0  0  0
   -3.7180    3.5120  -26.6220 C   0  0  0  0  0  0
    5.9980    3.2250  -21.2890 C   0  0  0  0  0  0
    5.8700    3.2780  -23.8420 C   0  0  0  0  0  0
   -4.7320    3.6190  -25.7680 C   0  0  0  0  0  0
    2.0710    3.7200  -23.8960 C   0  0  0  0  0  0
    1.2190    4.8150  -23.6380 C   0  0  0  0  0  0
    2.9790    6.0820  -22.9900 C   0  0  0  0  0  0
    3.4640    3.9600  -23.5830 C   0  0  0  0  0  0
    1.5600    2.5670  -24.5220 C   0  0  0  0  0  0
   -0.5900    3.3240  -24.4490 C   0  0  0  0  0  0
   -0.1000    4.5780  -23.8880 C   0  0  0  0  0  0
   -2.0400    3.2780  -24.8100 C   0  0  0  0  0  0
    4.1370    1.4910  -23.2040 C   0  0  0  0  0  0
    5.0740    1.2000  -22.0420 C   0  0  2  0  0  0
    6.6260    2.7650  -22.6230 C   0  0  2  0  0  0
    5.0210    2.2390  -20.9090 C   0  0  0  0  0  0
   -2.3620    3.3800  -26.2440 C   0  0  0  0  0  0
   -1.6220    2.7880  -21.8450 C   0  0  0  0  0  0
   -0.5850    2.4860  -21.3230 C   0  0  0  0  0  0
   -0.9720    5.6100  -23.5830 F   0  0  0  0  0  0
   -3.8240    3.0670  -20.3370 F   0  0  0  0  0  0
    1.6600    6.0040  -23.1430 N   0  0  0  0  0  0
    3.9030    5.1380  -23.1740 N   0  0  0  0  0  0
    0.2580    2.4310  -24.8300 N   0  0  0  0  0  0
    4.4120    2.9330  -23.7200 N   0  0  0  0  0  0
    6.4810    1.2900  -22.5200 N   0  0  1  0  0  0
   -3.8840    3.4760  -28.0120 O   0  0  0  0  0  0
   -6.0836    3.5293  -21.3618 H   0  0  0  0  0  0
   -6.5576    3.7567  -23.7645 H   0  0  0  0  0  0
    5.5007    4.1954  -21.4343 H   0  0  0  0  0  0
    6.7792    3.2835  -20.5168 H   0  0  0  0  0  0
    6.2814    2.8141  -24.7506 H   0  0  0  0  0  0
    5.9830    4.3700  -23.9116 H   0  0  0  0  0  0
   -5.7453    3.7646  -26.1245 H   0  0  0  0  0  0
    2.2233    1.7472  -24.7729 H   0  0  0  0  0  0
    3.0942    1.4173  -22.8618 H   0  0  0  0  0  0
    4.3227    0.7706  -24.0142 H   0  0  0  0  0  0
    4.8752    0.1950  -21.6414 H   0  0  0  0  0  0
    7.6871    3.0505  -22.6734 H   0  0  0  0  0  0
    4.0242    2.7036  -20.8868 H   0  0  0  0  0  0
    5.3309    1.7646  -19.9662 H   0  0  0  0  0  0
   -1.5877    3.3569  -27.0023 H   0  0  0  0  0  0
    0.3277    2.2201  -20.8632 H   0  0  0  0  0  0
    7.1377    0.8343  -21.7937 H   0  0  0  0  0  0
   -3.0347    3.3969  -28.4302 H   0  0  0  0  0  0
    3.4720    7.5760  -21.0620 N   0  3  0  0  0  0
    4.5150    9.8860  -21.3450 N   0  0  0  0  0  0
    5.3900    8.4700  -19.8380 N   0  0  0  0  0  0
    4.0970    8.8050  -20.4420 C   0  0  0  0  0  0
    3.4990    7.4510  -22.5650 C   0  0  0  0  0  0
    6.3690    9.2950  -20.3100 C   0  0  0  0  0  0
    5.8560   10.1160  -21.2230 C   0  0  0  0  0  0
    2.5202    7.4910  -20.7411 H   0  0  0  0  0  0
    3.8880    6.7530  -20.6550 H   0  0  0  0  0  0
    5.6210    7.7381  -19.1511 H   0  0  0  0  0  0
    3.4250    9.2100  -19.6710 H   0  0  0  0  0  0
    4.5303    7.5800  -22.9251 H   0  0  0  0  0  0
    2.8691    8.2359  -23.0090 H   0  0  0  0  0  0
    7.3852    9.2100  -19.9279 H   0  0  0  0  0  0
    6.4991   10.8281  -21.7381 H   0  0  0  0  0  0
  1  2  2  0  0  0
  1  3  1  0  0  0
  1 34  1  0  0  0
  2  6  1  0  0  0
  2 35  1  0  0  0
  3  5  2  0  0  0
  3 27  1  0  0  0
  4  5  1  0  0  0
  4  6  2  0  0  0
  4 18  1  0  0  0
  5 24  1  0  0  0
  6 10  1  0  0  0
  7 10  2  0  0  0
  7 23  1  0  0  0
  7 33  1  0  0  0
  8 21  1  0  0  0
  8 22  1  0  0  0
  8 36  1  0  0  0
  8 37  1  0  0  0
  9 21  1  0  0  0
  9 31  1  0  0  0
  9 38  1  0  0  0
  9 39  1  0  0  0
 10 40  1  0  0  0
 11 12  1  0  0  0
 11 14  2  0  0  0
 11 15  1  0  0  0
 12 17  1  0  0  0
 12 28  2  0  0  0
 13 28  1  0  0  0
 13 29  2  0  0  0
 13 56  1  0  0  0
 14 29  1  0  0  0
 14 31  1  0  0  0
 15 30  2  0  0  0
 15 41  1  0  0  0
 16 17  2  0  0  0
 16 18  1  0  0  0
 16 30  1  0  0  0
 17 26  1  0  0  0
 18 23  2  0  0  0
 19 20  1  0  0  0
 19 31  1  0  0  0
 19 42  1  0  0  0
 19 43  1  0  0  0
 20 22  1  0  0  0
 20 32  1  0  0  0
 20 44  1  0  0  0
 21 32  1  0  0  0
 21 45  1  0  0  0
 22 46  1  0  0  0
 22 47  1  0  0  0
 23 48  1  0  0  0
 24 25  3  0  0  0
 25 49  1  0  0  0
 32 50  1  0  0  0
 33 51  1  0  0  0
 52 55  1  0  0  0
 52 56  1  0  0  0
 52 59  1  0  0  0
 52 60  1  0  0  0
 53 55  1  0  0  0
 53 58  1  0  0  0
 54 55  1  0  0  0
 54 57  1  0  0  0
 54 61  1  0  0  0
 55 62  1  0  0  0
 56 63  1  0  0  0
 56 64  1  0  0  0
 57 58  2  0  0  0
 57 65  1  0  0  0
 58 66  1  0  0  0
M  CHG  1  52   1
M  END
> <s_m_entry_id>
190

> <s_m_entry_name>
000000190.1

> <s_m_Source_Path>
/Users/zaksoul/Documents/2

> <s_m_Source_File>
000000190.mol2

> <i_m_Source_File_Index>
1

$$$$
No_0_201
                    3D
 Schrodinger Suite 2022-4.
 66 72  0  0  1  0            999 V2000
   -5.3290    3.4230  -22.3500 C   0  0  0  0  0  0
   -5.5750    3.5970  -23.6910 C   0  0  0  0  0  0
   -4.0890    3.2140  -21.9840 C   0  0  0  0  0  0
   -3.1610    3.3610  -24.1330 C   0  0  0  0  0  0
   -3.0200    3.1280  -22.7080 C   0  0  0  0  0  0
   -4.5070    3.5750  -24.6810 C   0  0  0  0  0  0
   -3.7110    3.6120  -26.8650 C   0  0  0  0  0  0
    5.9350    3.2340  -21.4100 C   0  0  0  0  0  0
    5.8400    3.3600  -23.9630 C   0  0  0  0  0  0
   -4.7360    3.6880  -26.0220 C   0  0  0  0  0  0
    2.0400    3.7780  -24.0550 C   0  0  0  0  0  0
    1.1770    4.8600  -23.7770 C   0  0  0  0  0  0
    2.9200    6.1190  -23.0700 C   0  0  0  0  0  0
    3.4270    4.0180  -23.7160 C   0  0  0  0  0  0
    1.5450    2.6400  -24.7210 C   0  0  0  0  0  0
   -0.6100    3.3810  -24.6550 C   0  0  0  0  0  0
   -0.1370    4.6210  -24.0530 C   0  0  0  0  0  0
   -2.0560    3.3360  -25.0370 C   0  0  0  0  0  0
    4.1110    1.5440  -23.4000 C   0  0  0  0  0  0
    5.0340    1.2250  -22.2340 C   0  0  2  0  0  0
    6.5840    2.8170  -22.7480 C   0  0  2  0  0  0
    4.9600    2.2300  -21.0720 C   0  0  0  0  0  0
   -2.3590    3.4780  -26.4720 C   0  0  0  0  0  0
   -1.6740    2.7640  -22.0820 C   0  0  0  0  0  0
   -0.6420    2.4540  -21.5550 C   0  0  0  0  0  0
   -1.0200    5.6390  -23.7300 F   0  0  0  0  0  0
   -3.8980    2.9850  -20.5970 F   0  0  0  0  0  0
    1.6040    6.0370  -23.2430 N   0  0  0  0  0  0
    3.8520    5.1860  -23.2680 N   0  0  0  0  0  0
    0.2490    2.5050  -25.0510 N   0  0  0  0  0  0
    4.3840    3.0010  -23.8700 N   0  0  0  0  0  0
    6.4470    1.3380  -22.6900 N   0  0  1  0  0  0
   -3.8570    3.6150  -28.2570 O   0  0  0  0  0  0
   -6.1464    3.4622  -21.6391 H   0  0  0  0  0  0
   -6.5890    3.7555  -24.0400 H   0  0  0  0  0  0
    5.4325    4.2046  -21.5341 H   0  0  0  0  0  0
    6.7052    3.2744  -20.6257 H   0  0  0  0  0  0
    6.2670    2.9249  -24.8786 H   0  0  0  0  0  0
    5.9470    4.4542  -23.9983 H   0  0  0  0  0  0
   -5.7454    3.8365  -26.3882 H   0  0  0  0  0  0
    2.2174    1.8321  -24.9860 H   0  0  0  0  0  0
    3.0644    1.4532  -23.0740 H   0  0  0  0  0  0
    4.3128    0.8478  -24.2274 H   0  0  0  0  0  0
    4.8372    0.2077  -21.8646 H   0  0  0  0  0  0
    7.6440    3.1098  -22.7753 H   0  0  0  0  0  0
    3.9598    2.6872  -21.0498 H   0  0  0  0  0  0
    5.2600    1.7310  -20.1387 H   0  0  0  0  0  0
   -1.5742    3.4810  -27.2197 H   0  0  0  0  0  0
    0.2663    2.1809  -21.0908 H   0  0  0  0  0  0
    7.0970    0.8655  -21.9684 H   0  0  0  0  0  0
   -3.0021    3.5537  -28.6667 H   0  0  0  0  0  0
    3.7250    7.4400  -21.1200 N   0  3  0  0  0  0
    4.5150    9.8560  -21.3290 N   0  0  0  0  0  0
    5.8010    8.3780  -20.2320 N   0  0  0  0  0  0
    4.3840    8.6510  -20.5000 C   0  0  0  0  0  0
    3.4240    7.4790  -22.5980 C   0  0  0  0  0  0
    6.5890    9.3390  -20.7960 C   0  0  0  0  0  0
    5.8290   10.1990  -21.4690 C   0  0  0  0  0  0
    2.8773    7.2311  -20.6162 H   0  0  0  0  0  0
    4.2773    6.6216  -20.9169 H   0  0  0  0  0  0
    6.2301    7.6028  -19.7069 H   0  0  0  0  0  0
    3.8748    8.9051  -19.5586 H   0  0  0  0  0  0
    4.3379    7.7420  -23.1509 H   0  0  0  0  0  0
    2.6579    8.2431  -22.7960 H   0  0  0  0  0  0
    7.6682    9.3110  -20.6530 H   0  0  0  0  0  0
    6.2903   11.0196  -22.0164 H   0  0  0  0  0  0
  1  2  2  0  0  0
  1  3  1  0  0  0
  1 34  1  0  0  0
  2  6  1  0  0  0
  2 35  1  0  0  0
  3  5  2  0  0  0
  3 27  1  0  0  0
  4  5  1  0  0  0
  4  6  2  0  0  0
  4 18  1  0  0  0
  5 24  1  0  0  0
  6 10  1  0  0  0
  7 10  2  0  0  0
  7 23  1  0  0  0
  7 33  1  0  0  0
  8 21  1  0  0  0
  8 22  1  0  0  0
  8 36  1  0  0  0
  8 37  1  0  0  0
  9 21  1  0  0  0
  9 31  1  0  0  0
  9 38  1  0  0  0
  9 39  1  0  0  0
 10 40  1  0  0  0
 11 12  1  0  0  0
 11 14  2  0  0  0
 11 15  1  0  0  0
 12 17  1  0  0  0
 12 28  2  0  0  0
 13 28  1  0  0  0
 13 29  2  0  0  0
 13 56  1  0  0  0
 14 29  1  0  0  0
 14 31  1  0  0  0
 15 30  2  0  0  0
 15 41  1  0  0  0
 16 17  2  0  0  0
 16 18  1  0  0  0
 16 30  1  0  0  0
 17 26  1  0  0  0
 18 23  2  0  0  0
 19 20  1  0  0  0
 19 31  1  0  0  0
 19 42  1  0  0  0
 19 43  1  0  0  0
 20 22  1  0  0  0
 20 32  1  0  0  0
 20 44  1  0  0  0
 21 32  1  0  0  0
 21 45  1  0  0  0
 22 46  1  0  0  0
 22 47  1  0  0  0
 23 48  1  0  0  0
 24 25  3  0  0  0
 25 49  1  0  0  0
 32 50  1  0  0  0
 33 51  1  0  0  0
 52 55  1  0  0  0
 52 56  1  0  0  0
 52 59  1  0  0  0
 52 60  1  0  0  0
 53 55  1  0  0  0
 53 58  1  0  0  0
 54 55  1  0  0  0
 54 57  1  0  0  0
 54 61  1  0  0  0
 55 62  1  0  0  0
 56 63  1  0  0  0
 56 64  1  0  0  0
 57 58  2  0  0  0
 57 65  1  0  0  0
 58 66  1  0  0  0
M  CHG  1  52   1
M  END
> <s_m_entry_id>
191

> <s_m_entry_name>
000000191.1

> <s_m_Source_Path>
/Users/zaksoul/Documents/2

> <s_m_Source_File>
000000191.mol2

> <i_m_Source_File_Index>
1

$$$$
No_0_202
                    3D
 Schrodinger Suite 2022-4.
 66 72  0  0  1  0            999 V2000
   -5.2300    3.5400  -22.1210 C   0  0  0  0  0  0
   -5.4730    3.7130  -23.4630 C   0  0  0  0  0  0
   -3.9920    3.3300  -21.7520 C   0  0  0  0  0  0
   -3.0580    3.4760  -23.8990 C   0  0  0  0  0  0
   -2.9200    3.2440  -22.4740 C   0  0  0  0  0  0
   -4.4020    3.6900  -24.4500 C   0  0  0  0  0  0
   -3.6010    3.7260  -26.6320 C   0  0  0  0  0  0
    6.0310    3.3470  -21.1540 C   0  0  0  0  0  0
    5.9430    3.4710  -23.7070 C   0  0  0  0  0  0
   -4.6290    3.8020  -25.7920 C   0  0  0  0  0  0
    2.1430    3.8910  -23.8090 C   0  0  0  0  0  0
    1.2790    4.9730  -23.5340 C   0  0  0  0  0  0
    3.0210    6.2320  -22.8220 C   0  0  0  0  0  0
    3.5290    4.1310  -23.4670 C   0  0  0  0  0  0
    1.6490    2.7530  -24.4750 C   0  0  0  0  0  0
   -0.5060    3.4950  -24.4150 C   0  0  0  0  0  0
   -0.0340    4.7350  -23.8120 C   0  0  0  0  0  0
   -1.9510    3.4500  -24.8010 C   0  0  0  0  0  0
    4.2120    1.6560  -23.1470 C   0  0  0  0  0  0
    5.1320    1.3380  -21.9790 C   0  0  2  0  0  0
    6.6830    2.9290  -22.4900 C   0  0  2  0  0  0
    5.0550    2.3440  -20.8180 C   0  0  0  0  0  0
   -2.2500    3.5920  -26.2360 C   0  0  0  0  0  0
   -1.5760    2.8790  -21.8440 C   0  0  0  0  0  0
   -0.5460    2.5690  -21.3140 C   0  0  0  0  0  0
   -0.9180    5.7530  -23.4910 F   0  0  0  0  0  0
   -3.8030    3.1020  -20.3650 F   0  0  0  0  0  0
    1.7050    6.1500  -22.9980 N   0  0  0  0  0  0
    3.9540    5.2990  -23.0170 N   0  0  0  0  0  0
    0.3530    2.6180  -24.8080 N   0  0  0  0  0  0
    4.4860    3.1140  -23.6180 N   0  0  0  0  0  0
    6.5460    1.4500  -22.4310 N   0  0  1  0  0  0
   -3.7440    3.7280  -28.0250 O   0  0  0  0  0  0
   -6.0492    3.5792  -21.4122 H   0  0  0  0  0  0
   -6.4862    3.8715  -23.8141 H   0  0  0  0  0  0
    5.5294    4.3179  -21.2792 H   0  0  0  0  0  0
    6.7992    3.3874  -20.3677 H   0  0  0  0  0  0
    6.3721    3.0359  -24.6217 H   0  0  0  0  0  0
    6.0499    4.5652  -23.7433 H   0  0  0  0  0  0
   -5.6374    3.9516  -26.1606 H   0  0  0  0  0  0
    2.3216    1.9449  -24.7390 H   0  0  0  0  0  0
    3.1643    1.5662  -22.8240 H   0  0  0  0  0  0
    4.4158    0.9600  -23.9741 H   0  0  0  0  0  0
    4.9342    0.3209  -21.6097 H   0  0  0  0  0  0
    7.7431    3.2215  -22.5152 H   0  0  0  0  0  0
    4.0547    2.8012  -20.7988 H   0  0  0  0  0  0
    5.3527    1.8456  -19.8837 H   0  0  0  0  0  0
   -1.4642    3.5940  -26.9827 H   0  0  0  0  0  0
    0.3613    2.2959  -20.8478 H   0  0  0  0  0  0
    7.1942    0.9772  -21.7080 H   0  0  0  0  0  0
   -2.8877    3.6666  -28.4319 H   0  0  0  0  0  0
    4.2900    7.4450  -21.0580 N   0  3  0  0  0  0
    4.7460    9.9520  -21.1710 N   0  0  0  0  0  0
    6.4470    8.5520  -20.7390 N   0  0  0  0  0  0
    5.0010    8.6630  -20.5150 C   0  0  0  0  0  0
    3.5250    7.5920  -22.3490 C   0  0  0  0  0  0
    6.9190    9.6580  -21.3840 C   0  0  0  0  0  0
    5.9070   10.4750  -21.6640 C   0  0  0  0  0  0
    3.6740    7.0790  -20.3490 H   0  0  0  0  0  0
    4.9512    6.6898  -21.1500 H   0  0  0  0  0  0
    7.0918    7.7903  -20.4841 H   0  0  0  0  0  0
    4.8030    8.7540  -19.4368 H   0  0  0  0  0  0
    4.1820    8.0260  -23.1171 H   0  0  0  0  0  0
    2.6694    8.2657  -22.1941 H   0  0  0  0  0  0
    7.9841    9.7570  -21.5880 H   0  0  0  0  0  0
    6.0881   11.3995  -22.2103 H   0  0  0  0  0  0
  1  2  2  0  0  0
  1  3  1  0  0  0
  1 34  1  0  0  0
  2  6  1  0  0  0
  2 35  1  0  0  0
  3  5  2  0  0  0
  3 27  1  0  0  0
  4  5  1  0  0  0
  4  6  2  0  0  0
  4 18  1  0  0  0
  5 24  1  0  0  0
  6 10  1  0  0  0
  7 10  2  0  0  0
  7 23  1  0  0  0
  7 33  1  0  0  0
  8 21  1  0  0  0
  8 22  1  0  0  0
  8 36  1  0  0  0
  8 37  1  0  0  0
  9 21  1  0  0  0
  9 31  1  0  0  0
  9 38  1  0  0  0
  9 39  1  0  0  0
 10 40  1  0  0  0
 11 12  1  0  0  0
 11 14  2  0  0  0
 11 15  1  0  0  0
 12 17  1  0  0  0
 12 28  2  0  0  0
 13 28  1  0  0  0
 13 29  2  0  0  0
 13 56  1  0  0  0
 14 29  1  0  0  0
 14 31  1  0  0  0
 15 30  2  0  0  0
 15 41  1  0  0  0
 16 17  2  0  0  0
 16 18  1  0  0  0
 16 30  1  0  0  0
 17 26  1  0  0  0
 18 23  2  0  0  0
 19 20  1  0  0  0
 19 31  1  0  0  0
 19 42  1  0  0  0
 19 43  1  0  0  0
 20 22  1  0  0  0
 20 32  1  0  0  0
 20 44  1  0  0  0
 21 32  1  0  0  0
 21 45  1  0  0  0
 22 46  1  0  0  0
 22 47  1  0  0  0
 23 48  1  0  0  0
 24 25  3  0  0  0
 25 49  1  0  0  0
 32 50  1  0  0  0
 33 51  1  0  0  0
 52 55  1  0  0  0
 52 56  1  0  0  0
 52 59  1  0  0  0
 52 60  1  0  0  0
 53 55  1  0  0  0
 53 58  1  0  0  0
 54 55  1  0  0  0
 54 57  1  0  0  0
 54 61  1  0  0  0
 55 62  1  0  0  0
 56 63  1  0  0  0
 56 64  1  0  0  0
 57 58  2  0  0  0
 57 65  1  0  0  0
 58 66  1  0  0  0
M  CHG  1  52   1
M  END
> <s_m_entry_id>
192

> <s_m_entry_name>
000000192.1

> <s_m_Source_Path>
/Users/zaksoul/Documents/2

> <s_m_Source_File>
000000192.mol2

> <i_m_Source_File_Index>
1

$$$$
No_0_203
                    3D
 Schrodinger Suite 2022-4.
 66 72  0  0  1  0            999 V2000
   -5.1880    3.4490  -22.1740 C   0  0  0  0  0  0
   -5.4560    3.6540  -23.5060 C   0  0  0  0  0  0
   -3.9480    3.1930  -21.8390 C   0  0  0  0  0  0
   -3.0610    3.3470  -24.0040 C   0  0  0  0  0  0
   -2.8980    3.0850  -22.5870 C   0  0  0  0  0  0
   -4.4100    3.6140  -24.5190 C   0  0  0  0  0  0
   -3.6590    3.6640  -26.7190 C   0  0  0  0  0  0
    6.0810    2.8740  -21.4820 C   0  0  0  0  0  0
    5.9370    3.0480  -24.0290 C   0  0  0  0  0  0
   -4.6640    3.7580  -25.8530 C   0  0  0  0  0  0
    2.1520    3.5920  -24.0320 C   0  0  0  0  0  0
    1.3300    4.6960  -23.7180 C   0  0  0  0  0  0
    3.1290    5.8850  -23.0260 C   0  0  0  0  0  0
    3.5520    3.7800  -23.7190 C   0  0  0  0  0  0
    1.6050    2.4830  -24.7060 C   0  0  0  0  0  0
   -0.5230    3.2930  -24.5810 C   0  0  0  0  0  0
    0.0040    4.5060  -23.9680 C   0  0  0  0  0  0
   -1.9760    3.3020  -24.9330 C   0  0  0  0  0  0
    4.1610    1.2800  -23.4590 C   0  0  0  0  0  0
    5.0970    0.9110  -22.3190 C   0  0  2  0  0  0
    6.6880    2.4590  -22.8400 C   0  0  2  0  0  0
    5.0810    1.8970  -21.1400 C   0  0  0  0  0  0
   -2.3050    3.4790  -26.3580 C   0  0  0  0  0  0
   -1.5520    2.6650  -21.9960 C   0  0  0  0  0  0
   -0.5200    2.3130  -21.4970 C   0  0  0  0  0  0
   -0.8380    5.5460  -23.6090 F   0  0  0  0  0  0
   -3.7350    2.9330  -20.4600 F   0  0  0  0  0  0
    1.8070    5.8490  -23.1730 N   0  0  0  0  0  0
    4.0260    4.9260  -23.2600 N   0  0  0  0  0  0
    0.2980    2.3960  -25.0100 N   0  0  0  0  0  0
    4.4710    2.7360  -23.9110 N   0  0  0  0  0  0
    6.5030    0.9850  -22.8030 N   0  0  1  0  0  0
   -3.8350    3.6960  -28.1080 O   0  0  0  0  0  0
   -5.9884    3.5022  -21.4449 H   0  0  0  0  0  0
   -6.4714    3.8517  -23.8301 H   0  0  0  0  0  0
    5.6088    3.8628  -21.5779 H   0  0  0  0  0  0
    6.8683    2.8760  -20.7138 H   0  0  0  0  0  0
    6.3297    2.6149  -24.9608 H   0  0  0  0  0  0
    6.0794    4.1386  -24.0482 H   0  0  0  0  0  0
   -5.6755    3.9466  -26.1942 H   0  0  0  0  0  0
    2.2443    1.6581  -24.9990 H   0  0  0  0  0  0
    3.1187    1.2184  -23.1129 H   0  0  0  0  0  0
    4.3225    0.5928  -24.3026 H   0  0  0  0  0  0
    4.8751   -0.1058  -21.9629 H   0  0  0  0  0  0
    7.7560    2.7184  -22.8854 H   0  0  0  0  0  0
    4.0972    2.3864  -21.0875 H   0  0  0  0  0  0
    5.3828    1.3722  -20.2216 H   0  0  0  0  0  0
   -1.5365    3.4690  -27.1225 H   0  0  0  0  0  0
    0.3884    2.0022  -21.0573 H   0  0  0  0  0  0
    7.1526    0.4788  -22.1042 H   0  0  0  0  0  0
   -2.9911    3.6139  -28.5364 H   0  0  0  0  0  0
    4.7080    6.9940  -21.4560 N   0  3  0  0  0  0
    5.0720    9.5180  -21.4250 N   0  0  0  0  0  0
    6.8580    8.1590  -21.4850 N   0  0  0  0  0  0
    5.4890    8.1890  -20.9590 C   0  0  0  0  0  0
    3.6880    7.2190  -22.5430 C   0  0  0  0  0  0
    7.1590    9.3360  -22.1070 C   0  0  0  0  0  0
    6.0920   10.1300  -22.0950 C   0  0  0  0  0  0
    4.2629    6.5419  -20.6728 H   0  0  0  0  0  0
    5.3531    6.2779  -21.7511 H   0  0  0  0  0  0
    7.5592    7.4058  -21.4400 H   0  0  0  0  0  0
    5.5170    8.1780  -19.8594 H   0  0  0  0  0  0
    4.1603    7.7453  -23.3855 H   0  0  0  0  0  0
    2.8680    7.8400  -22.1530 H   0  0  0  0  0  0
    8.1556    9.4971  -22.5153 H   0  0  0  0  0  0
    6.1340   11.1051  -22.5780 H   0  0  0  0  0  0
  1  2  2  0  0  0
  1  3  1  0  0  0
  1 34  1  0  0  0
  2  6  1  0  0  0
  2 35  1  0  0  0
  3  5  2  0  0  0
  3 27  1  0  0  0
  4  5  1  0  0  0
  4  6  2  0  0  0
  4 18  1  0  0  0
  5 24  1  0  0  0
  6 10  1  0  0  0
  7 10  2  0  0  0
  7 23  1  0  0  0
  7 33  1  0  0  0
  8 21  1  0  0  0
  8 22  1  0  0  0
  8 36  1  0  0  0
  8 37  1  0  0  0
  9 21  1  0  0  0
  9 31  1  0  0  0
  9 38  1  0  0  0
  9 39  1  0  0  0
 10 40  1  0  0  0
 11 12  1  0  0  0
 11 14  2  0  0  0
 11 15  1  0  0  0
 12 17  1  0  0  0
 12 28  2  0  0  0
 13 28  1  0  0  0
 13 29  2  0  0  0
 13 56  1  0  0  0
 14 29  1  0  0  0
 14 31  1  0  0  0
 15 30  2  0  0  0
 15 41  1  0  0  0
 16 17  2  0  0  0
 16 18  1  0  0  0
 16 30  1  0  0  0
 17 26  1  0  0  0
 18 23  2  0  0  0
 19 20  1  0  0  0
 19 31  1  0  0  0
 19 42  1  0  0  0
 19 43  1  0  0  0
 20 22  1  0  0  0
 20 32  1  0  0  0
 20 44  1  0  0  0
 21 32  1  0  0  0
 21 45  1  0  0  0
 22 46  1  0  0  0
 22 47  1  0  0  0
 23 48  1  0  0  0
 24 25  3  0  0  0
 25 49  1  0  0  0
 32 50  1  0  0  0
 33 51  1  0  0  0
 52 55  1  0  0  0
 52 56  1  0  0  0
 52 59  1  0  0  0
 52 60  1  0  0  0
 53 55  1  0  0  0
 53 58  1  0  0  0
 54 55  1  0  0  0
 54 57  1  0  0  0
 54 61  1  0  0  0
 55 62  1  0  0  0
 56 63  1  0  0  0
 56 64  1  0  0  0
 57 58  2  0  0  0
 57 65  1  0  0  0
 58 66  1  0  0  0
M  CHG  1  52   1
M  END
> <s_m_entry_id>
193

> <s_m_entry_name>
000000193.1

> <s_m_Source_Path>
/Users/zaksoul/Documents/2

> <s_m_Source_File>
000000193.mol2

> <i_m_Source_File_Index>
1

$$$$
No_0_204
                    3D
 Schrodinger Suite 2022-4.
 66 72  0  0  1  0            999 V2000
   -5.3610    3.3840  -22.1940 C   0  0  0  0  0  0
   -5.5890    3.5810  -23.5360 C   0  0  0  0  0  0
   -4.1320    3.1390  -21.8180 C   0  0  0  0  0  0
   -3.1770    3.2890  -23.9540 C   0  0  0  0  0  0
   -3.0570    3.0350  -22.5320 C   0  0  0  0  0  0
   -4.5100    3.5440  -24.5140 C   0  0  0  0  0  0
   -3.6890    3.5890  -26.6880 C   0  0  0  0  0  0
    5.8830    2.8970  -21.1360 C   0  0  0  0  0  0
    5.8200    3.0570  -23.6870 C   0  0  0  0  0  0
   -4.7220    3.6800  -25.8550 C   0  0  0  0  0  0
    2.0330    3.5730  -23.8150 C   0  0  0  0  0  0
    1.1940    4.6730  -23.5330 C   0  0  0  0  0  0
    2.9600    5.8780  -22.7900 C   0  0  0  0  0  0
    3.4210    3.7740  -23.4580 C   0  0  0  0  0  0
    1.5160    2.4570  -24.5010 C   0  0  0  0  0  0
   -0.6200    3.2510  -24.4490 C   0  0  0  0  0  0
   -0.1220    4.4710  -23.8250 C   0  0  0  0  0  0
   -2.0620    3.2480  -24.8470 C   0  0  0  0  0  0
    4.0390    1.2790  -23.1670 C   0  0  0  0  0  0
    4.9410    0.9220  -21.9950 C   0  0  2  0  0  0
    6.5360    2.4800  -22.4720 C   0  0  2  0  0  0
    4.8790    1.9140  -20.8220 C   0  0  0  0  0  0
   -2.3450    3.4160  -26.2830 C   0  0  0  0  0  0
   -1.7280    2.6290  -21.8960 C   0  0  0  0  0  0
   -0.7100    2.2860  -21.3610 C   0  0  0  0  0  0
   -0.9830    5.5070  -23.4990 F   0  0  0  0  0  0
   -3.9610    2.8870  -20.4320 F   0  0  0  0  0  0
    1.6440    5.8320  -22.9790 N   0  0  0  0  0  0
    3.8710    4.9250  -22.9900 N   0  0  0  0  0  0
    0.2210    2.3590  -24.8460 N   0  0  0  0  0  0
    4.3530    2.7350  -23.6150 N   0  0  0  0  0  0
    6.3610    1.0050  -22.4340 N   0  0  1  0  0  0
   -3.8200    3.6130  -28.0820 O   0  0  0  0  0  0
   -6.1850    3.4352  -21.4915 H   0  0  0  0  0  0
   -6.5948    3.7697  -23.8934 H   0  0  0  0  0  0
    5.4068    3.8817  -21.2530 H   0  0  0  0  0  0
    6.6450    2.9081  -20.3427 H   0  0  0  0  0  0
    6.2457    2.6233  -24.6039 H   0  0  0  0  0  0
    5.9542    4.1486  -23.7082 H   0  0  0  0  0  0
   -5.7230    3.8587  -26.2305 H   0  0  0  0  0  0
    2.1705    1.6358  -24.7700 H   0  0  0  0  0  0
    2.9869    1.2114  -22.8530 H   0  0  0  0  0  0
    4.2327    0.5889  -24.0014 H   0  0  0  0  0  0
    4.7149   -0.0945  -21.6407 H   0  0  0  0  0  0
    7.6032    2.7465  -22.4841 H   0  0  0  0  0  0
    3.8907    2.3966  -20.8038 H   0  0  0  0  0  0
    5.1555    1.3963  -19.8916 H   0  0  0  0  0  0
   -1.5529    3.4080  -27.0229 H   0  0  0  0  0  0
    0.1861    1.9840  -20.8910 H   0  0  0  0  0  0
    6.9909    0.5066  -21.7121 H   0  0  0  0  0  0
   -2.9622    3.5348  -28.4827 H   0  0  0  0  0  0
    4.7250    7.0110  -21.4510 N   0  3  0  0  0  0
    4.8800    9.5480  -21.2460 N   0  0  0  0  0  0
    6.7230    8.3820  -21.7780 N   0  0  0  0  0  0
    5.4890    8.2340  -20.9990 C   0  0  0  0  0  0
    3.4930    7.2190  -22.2950 C   0  0  0  0  0  0
    6.7970    9.6290  -22.3280 C   0  0  0  0  0  0
    5.6920   10.3090  -22.0350 C   0  0  0  0  0  0
    4.4830    6.4560  -20.6451 H   0  0  0  0  0  0
    5.3549    6.3881  -21.9319 H   0  0  0  0  0  0
    7.4787    7.7013  -21.9409 H   0  0  0  0  0  0
    5.7369    8.1390  -19.9315 H   0  0  0  0  0  0
    3.7431    7.8543  -23.1574 H   0  0  0  0  0  0
    2.7197    7.7232  -21.6968 H   0  0  0  0  0  0
    7.6751    9.9190  -22.9031 H   0  0  0  0  0  0
    5.5571   11.3184  -22.4208 H   0  0  0  0  0  0
  1  2  2  0  0  0
  1  3  1  0  0  0
  1 34  1  0  0  0
  2  6  1  0  0  0
  2 35  1  0  0  0
  3  5  2  0  0  0
  3 27  1  0  0  0
  4  5  1  0  0  0
  4  6  2  0  0  0
  4 18  1  0  0  0
  5 24  1  0  0  0
  6 10  1  0  0  0
  7 10  2  0  0  0
  7 23  1  0  0  0
  7 33  1  0  0  0
  8 21  1  0  0  0
  8 22  1  0  0  0
  8 36  1  0  0  0
  8 37  1  0  0  0
  9 21  1  0  0  0
  9 31  1  0  0  0
  9 38  1  0  0  0
  9 39  1  0  0  0
 10 40  1  0  0  0
 11 12  1  0  0  0
 11 14  2  0  0  0
 11 15  1  0  0  0
 12 17  1  0  0  0
 12 28  2  0  0  0
 13 28  1  0  0  0
 13 29  2  0  0  0
 13 56  1  0  0  0
 14 29  1  0  0  0
 14 31  1  0  0  0
 15 30  2  0  0  0
 15 41  1  0  0  0
 16 17  2  0  0  0
 16 18  1  0  0  0
 16 30  1  0  0  0
 17 26  1  0  0  0
 18 23  2  0  0  0
 19 20  1  0  0  0
 19 31  1  0  0  0
 19 42  1  0  0  0
 19 43  1  0  0  0
 20 22  1  0  0  0
 20 32  1  0  0  0
 20 44  1  0  0  0
 21 32  1  0  0  0
 21 45  1  0  0  0
 22 46  1  0  0  0
 22 47  1  0  0  0
 23 48  1  0  0  0
 24 25  3  0  0  0
 25 49  1  0  0  0
 32 50  1  0  0  0
 33 51  1  0  0  0
 52 55  1  0  0  0
 52 56  1  0  0  0
 52 59  1  0  0  0
 52 60  1  0  0  0
 53 55  1  0  0  0
 53 58  1  0  0  0
 54 55  1  0  0  0
 54 57  1  0  0  0
 54 61  1  0  0  0
 55 62  1  0  0  0
 56 63  1  0  0  0
 56 64  1  0  0  0
 57 58  2  0  0  0
 57 65  1  0  0  0
 58 66  1  0  0  0
M  CHG  1  52   1
M  END
> <s_m_entry_id>
194

> <s_m_entry_name>
000000194.1

> <s_m_Source_Path>
/Users/zaksoul/Documents/2

> <s_m_Source_File>
000000194.mol2

> <i_m_Source_File_Index>
1

$$$$
No_0_205
                    3D
 Schrodinger Suite 2022-4.
 66 72  0  0  1  0            999 V2000
   -5.3880    3.3570  -22.2440 C   0  0  0  0  0  0
   -5.5980    3.5750  -23.5850 C   0  0  0  0  0  0
   -4.1620    3.1100  -21.8550 C   0  0  0  0  0  0
   -3.1790    3.2980  -23.9760 C   0  0  0  0  0  0
   -3.0780    3.0210  -22.5560 C   0  0  0  0  0  0
   -4.5060    3.5580  -24.5490 C   0  0  0  0  0  0
   -3.6560    3.6410  -26.7110 C   0  0  0  0  0  0
    5.8430    2.8910  -21.0420 C   0  0  0  0  0  0
    5.8140    3.0920  -23.5910 C   0  0  0  0  0  0
   -4.7000    3.7140  -25.8910 C   0  0  0  0  0  0
    2.0270    3.5980  -23.7620 C   0  0  0  0  0  0
    1.1800    4.6890  -23.4730 C   0  0  0  0  0  0
    2.9320    5.8890  -22.6870 C   0  0  0  0  0  0
    3.4100    3.7970  -23.3830 C   0  0  0  0  0  0
    1.5240    2.4910  -24.4720 C   0  0  0  0  0  0
   -0.6160    3.2770  -24.4360 C   0  0  0  0  0  0
   -0.1310    4.4880  -23.7860 C   0  0  0  0  0  0
   -2.0520    3.2750  -24.8540 C   0  0  0  0  0  0
    4.0330    1.3000  -23.1230 C   0  0  0  0  0  0
    4.9200    0.9270  -21.9450 C   0  0  2  0  0  0
    6.5160    2.4980  -22.3750 C   0  0  2  0  0  0
    4.8390    1.9000  -20.7570 C   0  0  0  0  0  0
   -2.3170    3.4650  -26.2900 C   0  0  0  0  0  0
   -1.7560    2.6090  -21.9080 C   0  0  0  0  0  0
   -0.7440    2.2610  -21.3660 C   0  0  0  0  0  0
   -1.0000    5.5150  -23.4550 F   0  0  0  0  0  0
   -4.0100    2.8370  -20.4710 F   0  0  0  0  0  0
    1.6190    5.8410  -22.8940 N   0  0  0  0  0  0
    3.8490    4.9420  -22.8900 N   0  0  0  0  0  0
    0.2330    2.3940  -24.8360 N   0  0  0  0  0  0
    4.3480    2.7640  -23.5440 N   0  0  0  0  0  0
    6.3450    1.0220  -22.3640 N   0  0  1  0  0  0
   -3.7680    3.6860  -28.1060 O   0  0  0  0  0  0
   -6.2211    3.3941  -21.5514 H   0  0  0  0  0  0
   -6.5997    3.7659  -23.9527 H   0  0  0  0  0  0
    5.3647    3.8758  -21.1490 H   0  0  0  0  0  0
    6.5941    2.8910  -20.2384 H   0  0  0  0  0  0
    6.2541    2.6741  -24.5085 H   0  0  0  0  0  0
    5.9441    4.1843  -23.5920 H   0  0  0  0  0  0
   -5.6967    3.8957  -26.2764 H   0  0  0  0  0  0
    2.1845    1.6760  -24.7450 H   0  0  0  0  0  0
    2.9768    1.2233  -22.8254 H   0  0  0  0  0  0
    4.2399    0.6239  -23.9656 H   0  0  0  0  0  0
    4.6920   -0.0960  -21.6111 H   0  0  0  0  0  0
    7.5822    2.7686  -22.3689 H   0  0  0  0  0  0
    3.8484    2.3781  -20.7449 H   0  0  0  0  0  0
    5.1043    1.3673  -19.8319 H   0  0  0  0  0  0
   -1.5152    3.4720  -27.0195 H   0  0  0  0  0  0
    0.1470    1.9550  -20.8890 H   0  0  0  0  0  0
    6.9670    0.5144  -21.6416 H   0  0  0  0  0  0
   -2.9043    3.6177  -28.4958 H   0  0  0  0  0  0
    4.8530    7.0610  -21.6240 N   0  3  0  0  0  0
    4.8490    9.5690  -21.1650 N   0  0  0  0  0  0
    6.6170    8.6520  -22.2010 N   0  0  0  0  0  0
    5.5980    8.3070  -21.2040 C   0  0  0  0  0  0
    3.4540    7.2230  -22.1630 C   0  0  0  0  0  0
    6.4710    9.9470  -22.6080 C   0  0  0  0  0  0
    5.4070   10.4810  -22.0140 C   0  0  0  0  0  0
    4.8370    6.4098  -20.8548 H   0  0  0  0  0  0
    5.4089    6.5541  -22.2949 H   0  0  0  0  0  0
    7.3701    8.0709  -22.5961 H   0  0  0  0  0  0
    6.0807    8.1351  -20.2306 H   0  0  0  0  0  0
    3.4590    7.9598  -22.9798 H   0  0  0  0  0  0
    2.7926    7.5862  -21.3626 H   0  0  0  0  0  0
    7.1769   10.3789  -23.3159 H   0  0  0  0  0  0
    5.1121   11.5038  -22.2439 H   0  0  0  0  0  0
  1  2  2  0  0  0
  1  3  1  0  0  0
  1 34  1  0  0  0
  2  6  1  0  0  0
  2 35  1  0  0  0
  3  5  2  0  0  0
  3 27  1  0  0  0
  4  5  1  0  0  0
  4  6  2  0  0  0
  4 18  1  0  0  0
  5 24  1  0  0  0
  6 10  1  0  0  0
  7 10  2  0  0  0
  7 23  1  0  0  0
  7 33  1  0  0  0
  8 21  1  0  0  0
  8 22  1  0  0  0
  8 36  1  0  0  0
  8 37  1  0  0  0
  9 21  1  0  0  0
  9 31  1  0  0  0
  9 38  1  0  0  0
  9 39  1  0  0  0
 10 40  1  0  0  0
 11 12  1  0  0  0
 11 14  2  0  0  0
 11 15  1  0  0  0
 12 17  1  0  0  0
 12 28  2  0  0  0
 13 28  1  0  0  0
 13 29  2  0  0  0
 13 56  1  0  0  0
 14 29  1  0  0  0
 14 31  1  0  0  0
 15 30  2  0  0  0
 15 41  1  0  0  0
 16 17  2  0  0  0
 16 18  1  0  0  0
 16 30  1  0  0  0
 17 26  1  0  0  0
 18 23  2  0  0  0
 19 20  1  0  0  0
 19 31  1  0  0  0
 19 42  1  0  0  0
 19 43  1  0  0  0
 20 22  1  0  0  0
 20 32  1  0  0  0
 20 44  1  0  0  0
 21 32  1  0  0  0
 21 45  1  0  0  0
 22 46  1  0  0  0
 22 47  1  0  0  0
 23 48  1  0  0  0
 24 25  3  0  0  0
 25 49  1  0  0  0
 32 50  1  0  0  0
 33 51  1  0  0  0
 52 55  1  0  0  0
 52 56  1  0  0  0
 52 59  1  0  0  0
 52 60  1  0  0  0
 53 55  1  0  0  0
 53 58  1  0  0  0
 54 55  1  0  0  0
 54 57  1  0  0  0
 54 61  1  0  0  0
 55 62  1  0  0  0
 56 63  1  0  0  0
 56 64  1  0  0  0
 57 58  2  0  0  0
 57 65  1  0  0  0
 58 66  1  0  0  0
M  CHG  1  52   1
M  END
> <s_m_entry_id>
195

> <s_m_entry_name>
000000195.1

> <s_m_Source_Path>
/Users/zaksoul/Documents/2

> <s_m_Source_File>
000000195.mol2

> <i_m_Source_File_Index>
1

$$$$
No_0_206
                    3D
 Schrodinger Suite 2022-4.
 66 72  0  0  1  0            999 V2000
   -5.3260    3.4030  -22.2060 C   0  0  0  0  0  0
   -5.5460    3.6080  -23.5470 C   0  0  0  0  0  0
   -4.0970    3.1700  -21.8230 C   0  0  0  0  0  0
   -3.1280    3.3490  -23.9510 C   0  0  0  0  0  0
   -3.0150    3.0850  -22.5290 C   0  0  0  0  0  0
   -4.4600    3.5930  -24.5180 C   0  0  0  0  0  0
   -3.6250    3.6650  -26.6860 C   0  0  0  0  0  0
    5.9150    3.0410  -21.0710 C   0  0  0  0  0  0
    5.8680    3.2220  -23.6210 C   0  0  0  0  0  0
   -4.6640    3.7370  -25.8600 C   0  0  0  0  0  0
    2.0760    3.6940  -23.7720 C   0  0  0  0  0  0
    1.2220    4.7810  -23.4870 C   0  0  0  0  0  0
    2.9690    6.0010  -22.7220 C   0  0  0  0  0  0
    3.4600    3.9080  -23.4040 C   0  0  0  0  0  0
    1.5780    2.5770  -24.4700 C   0  0  0  0  0  0
   -0.5680    3.3460  -24.4270 C   0  0  0  0  0  0
   -0.0890    4.5660  -23.7900 C   0  0  0  0  0  0
   -2.0070    3.3280  -24.8360 C   0  0  0  0  0  0
    4.1060    1.4180  -23.1280 C   0  0  0  0  0  0
    5.0030    1.0630  -21.9520 C   0  0  2  0  0  0
    6.5830    2.6440  -22.4050 C   0  0  2  0  0  0
    4.9210    2.0450  -20.7720 C   0  0  0  0  0  0
   -2.2820    3.5040  -26.2720 C   0  0  0  0  0  0
   -1.6860    2.6890  -21.8870 C   0  0  0  0  0  0
   -0.6680    2.3540  -21.3480 C   0  0  0  0  0  0
   -0.9650    5.5890  -23.4610 F   0  0  0  0  0  0
   -3.9330    2.9090  -20.4370 F   0  0  0  0  0  0
    1.6550    5.9410  -22.9200 N   0  0  0  0  0  0
    3.8920    5.0610  -22.9230 N   0  0  0  0  0  0
    0.2860    2.4660  -24.8260 N   0  0  0  0  0  0
    4.4050    2.8820  -23.5620 N   0  0  0  0  0  0
    6.4250    1.1660  -22.3810 N   0  0  1  0  0  0
   -3.7460    3.6990  -28.0810 O   0  0  0  0  0  0
   -6.1554    3.4381  -21.5090 H   0  0  0  0  0  0
   -6.5514    3.7876  -23.9102 H   0  0  0  0  0  0
    5.4285    4.0212  -21.1830 H   0  0  0  0  0  0
    6.6718    3.0551  -20.2728 H   0  0  0  0  0  0
    6.3059    2.8012  -24.5382 H   0  0  0  0  0  0
    5.9901    4.3151  -23.6321 H   0  0  0  0  0  0
   -5.6644    3.9066  -26.2413 H   0  0  0  0  0  0
    2.2444    1.7661  -24.7410 H   0  0  0  0  0  0
    3.0526    1.3353  -22.8223 H   0  0  0  0  0  0
    4.3130    0.7375  -23.9671 H   0  0  0  0  0  0
    4.7860    0.0407  -21.6089 H   0  0  0  0  0  0
    7.6469    2.9236  -22.4080 H   0  0  0  0  0  0
    3.9264    2.5145  -20.7569 H   0  0  0  0  0  0
    5.1973    1.5226  -19.8442 H   0  0  0  0  0  0
   -1.4846    3.5120  -27.0062 H   0  0  0  0  0  0
    0.2282    2.0589  -20.8739 H   0  0  0  0  0  0
    7.0558    0.6699  -21.6582 H   0  0  0  0  0  0
   -2.8843    3.6347  -28.4757 H   0  0  0  0  0  0
    4.9860    7.3170  -22.0950 N   0  3  0  0  0  0
    4.8630    9.7600  -21.3710 N   0  0  0  0  0  0
    6.3480    9.1610  -22.9460 N   0  0  0  0  0  0
    5.6920    8.6100  -21.7550 C   0  0  0  0  0  0
    3.4820    7.3440  -22.2120 C   0  0  0  0  0  0
    5.9650   10.4550  -23.1480 C   0  0  0  0  0  0
    5.0650   10.8010  -22.2310 C   0  0  0  0  0  0
    5.2532    6.6095  -21.4286 H   0  0  0  0  0  0
    5.3760    6.9410  -22.9450 H   0  0  0  0  0  0
    7.0122    8.7129  -23.5932 H   0  0  0  0  0  0
    6.4443    8.4222  -20.9747 H   0  0  0  0  0  0
    3.1830    8.1399  -22.9099 H   0  0  0  0  0  0
    3.0421    7.5550  -21.2261 H   0  0  0  0  0  0
    6.3960   11.0290  -23.9670 H   0  0  0  0  0  0
    4.6169   11.7932  -22.2550 H   0  0  0  0  0  0
  1  2  2  0  0  0
  1  3  1  0  0  0
  1 34  1  0  0  0
  2  6  1  0  0  0
  2 35  1  0  0  0
  3  5  2  0  0  0
  3 27  1  0  0  0
  4  5  1  0  0  0
  4  6  2  0  0  0
  4 18  1  0  0  0
  5 24  1  0  0  0
  6 10  1  0  0  0
  7 10  2  0  0  0
  7 23  1  0  0  0
  7 33  1  0  0  0
  8 21  1  0  0  0
  8 22  1  0  0  0
  8 36  1  0  0  0
  8 37  1  0  0  0
  9 21  1  0  0  0
  9 31  1  0  0  0
  9 38  1  0  0  0
  9 39  1  0  0  0
 10 40  1  0  0  0
 11 12  1  0  0  0
 11 14  2  0  0  0
 11 15  1  0  0  0
 12 17  1  0  0  0
 12 28  2  0  0  0
 13 28  1  0  0  0
 13 29  2  0  0  0
 13 56  1  0  0  0
 14 29  1  0  0  0
 14 31  1  0  0  0
 15 30  2  0  0  0
 15 41  1  0  0  0
 16 17  2  0  0  0
 16 18  1  0  0  0
 16 30  1  0  0  0
 17 26  1  0  0  0
 18 23  2  0  0  0
 19 20  1  0  0  0
 19 31  1  0  0  0
 19 42  1  0  0  0
 19 43  1  0  0  0
 20 22  1  0  0  0
 20 32  1  0  0  0
 20 44  1  0  0  0
 21 32  1  0  0  0
 21 45  1  0  0  0
 22 46  1  0  0  0
 22 47  1  0  0  0
 23 48  1  0  0  0
 24 25  3  0  0  0
 25 49  1  0  0  0
 32 50  1  0  0  0
 33 51  1  0  0  0
 52 55  1  0  0  0
 52 56  1  0  0  0
 52 59  1  0  0  0
 52 60  1  0  0  0
 53 55  1  0  0  0
 53 58  1  0  0  0
 54 55  1  0  0  0
 54 57  1  0  0  0
 54 61  1  0  0  0
 55 62  1  0  0  0
 56 63  1  0  0  0
 56 64  1  0  0  0
 57 58  2  0  0  0
 57 65  1  0  0  0
 58 66  1  0  0  0
M  CHG  1  52   1
M  END
> <s_m_entry_id>
196

> <s_m_entry_name>
000000196.1

> <s_m_Source_Path>
/Users/zaksoul/Documents/2

> <s_m_Source_File>
000000196.mol2

> <i_m_Source_File_Index>
1

$$$$
No_0_207
                    3D
 Schrodinger Suite 2022-4.
 66 72  0  0  1  0            999 V2000
   -5.4200    3.2120  -21.8960 C   0  0  0  0  0  0
   -5.6900    3.4360  -23.2250 C   0  0  0  0  0  0
   -4.1730    3.0050  -21.5570 C   0  0  0  0  0  0
   -3.2800    3.2500  -23.7120 C   0  0  0  0  0  0
   -3.1140    2.9620  -22.3000 C   0  0  0  0  0  0
   -4.6360    3.4680  -24.2310 C   0  0  0  0  0  0
   -3.8740    3.6040  -26.4230 C   0  0  0  0  0  0
    5.8580    3.1320  -21.1330 C   0  0  0  0  0  0
    5.7230    3.3600  -23.6760 C   0  0  0  0  0  0
   -4.8880    3.6320  -25.5620 C   0  0  0  0  0  0
    1.9170    3.7320  -23.6950 C   0  0  0  0  0  0
    1.0440    4.7900  -23.3610 C   0  0  0  0  0  0
    2.7820    6.0420  -22.6280 C   0  0  0  0  0  0
    3.3050    3.9760  -23.3670 C   0  0  0  0  0  0
    1.4250    2.6150  -24.3990 C   0  0  0  0  0  0
   -0.7380    3.3250  -24.2710 C   0  0  0  0  0  0
   -0.2710    4.5460  -23.6260 C   0  0  0  0  0  0
   -2.1880    3.2760  -24.6330 C   0  0  0  0  0  0
    4.0250    1.5000  -23.1620 C   0  0  0  0  0  0
    4.9700    1.1470  -22.0230 C   0  0  2  0  0  0
    6.4920    2.7780  -22.4950 C   0  0  2  0  0  0
    4.9010    2.1040  -20.8210 C   0  0  0  0  0  0
   -2.5150    3.4720  -26.0560 C   0  0  0  0  0  0
   -1.7540    2.5900  -21.7100 C   0  0  0  0  0  0
   -0.7100    2.2730  -21.2110 C   0  0  0  0  0  0
   -1.1620    5.5380  -23.2490 F   0  0  0  0  0  0
   -3.9570    2.7220  -20.1840 F   0  0  0  0  0  0
    1.4640    5.9500  -22.7850 N   0  0  0  0  0  0
    3.7230    5.1310  -22.8780 N   0  0  0  0  0  0
    0.1260    2.4770  -24.7140 N   0  0  0  0  0  0
    4.2720    2.9790  -23.5770 N   0  0  0  0  0  0
    6.3740    1.2970  -22.4950 N   0  0  1  0  0  0
   -4.0420    3.6610  -27.8120 O   0  0  0  0  0  0
   -6.2270    3.2120  -21.1723 H   0  0  0  0  0  0
   -6.7110    3.5956  -23.5523 H   0  0  0  0  0  0
    5.3424    4.1006  -21.2097 H   0  0  0  0  0  0
    6.6392    3.1512  -20.3588 H   0  0  0  0  0  0
    6.1409    2.9674  -24.6147 H   0  0  0  0  0  0
    5.8148    4.4561  -23.6689 H   0  0  0  0  0  0
   -5.9045    3.7825  -25.9072 H   0  0  0  0  0  0
    2.1038    1.8277  -24.7063 H   0  0  0  0  0  0
    2.9848    1.3830  -22.8240 H   0  0  0  0  0  0
    4.2229    0.8408  -24.0201 H   0  0  0  0  0  0
    4.7914    0.1129  -21.6931 H   0  0  0  0  0  0
    7.5476    3.0858  -22.5273 H   0  0  0  0  0  0
    3.8953    2.5462  -20.7655 H   0  0  0  0  0  0
    5.2210    1.5710  -19.9135 H   0  0  0  0  0  0
   -1.7421    3.5152  -26.8148 H   0  0  0  0  0  0
    0.2088    1.9931  -20.7721 H   0  0  0  0  0  0
    7.0411    0.8041  -21.8033 H   0  0  0  0  0  0
   -3.1924    3.6273  -28.2358 H   0  0  0  0  0  0
    4.6320    7.7060  -22.6900 N   0  3  0  0  0  0
    4.5220    9.9290  -21.4460 N   0  0  0  0  0  0
    5.1210    9.9180  -23.6100 N   0  0  0  0  0  0
    5.2170    9.0720  -22.4150 C   0  0  0  0  0  0
    3.2760    7.3880  -22.1090 C   0  0  0  0  0  0
    4.5040   11.0980  -23.3140 C   0  0  0  0  0  0
    4.1250   11.0940  -22.0390 C   0  0  0  0  0  0
    5.2892    6.9998  -22.3979 H   0  0  0  0  0  0
    4.6090    7.5501  -23.6856 H   0  0  0  0  0  0
    5.4428    9.7311  -24.5704 H   0  0  0  0  0  0
    6.2724    8.9671  -22.1232 H   0  0  0  0  0  0
    2.5632    8.1758  -22.3939 H   0  0  0  0  0  0
    3.3470    7.3550  -21.0118 H   0  0  0  0  0  0
    4.3920   11.8620  -24.0820 H   0  0  0  0  0  0
    3.5838   11.9453  -21.6288 H   0  0  0  0  0  0
  1  2  2  0  0  0
  1  3  1  0  0  0
  1 34  1  0  0  0
  2  6  1  0  0  0
  2 35  1  0  0  0
  3  5  2  0  0  0
  3 27  1  0  0  0
  4  5  1  0  0  0
  4  6  2  0  0  0
  4 18  1  0  0  0
  5 24  1  0  0  0
  6 10  1  0  0  0
  7 10  2  0  0  0
  7 23  1  0  0  0
  7 33  1  0  0  0
  8 21  1  0  0  0
  8 22  1  0  0  0
  8 36  1  0  0  0
  8 37  1  0  0  0
  9 21  1  0  0  0
  9 31  1  0  0  0
  9 38  1  0  0  0
  9 39  1  0  0  0
 10 40  1  0  0  0
 11 12  1  0  0  0
 11 14  2  0  0  0
 11 15  1  0  0  0
 12 17  1  0  0  0
 12 28  2  0  0  0
 13 28  1  0  0  0
 13 29  2  0  0  0
 13 56  1  0  0  0
 14 29  1  0  0  0
 14 31  1  0  0  0
 15 30  2  0  0  0
 15 41  1  0  0  0
 16 17  2  0  0  0
 16 18  1  0  0  0
 16 30  1  0  0  0
 17 26  1  0  0  0
 18 23  2  0  0  0
 19 20  1  0  0  0
 19 31  1  0  0  0
 19 42  1  0  0  0
 19 43  1  0  0  0
 20 22  1  0  0  0
 20 32  1  0  0  0
 20 44  1  0  0  0
 21 32  1  0  0  0
 21 45  1  0  0  0
 22 46  1  0  0  0
 22 47  1  0  0  0
 23 48  1  0  0  0
 24 25  3  0  0  0
 25 49  1  0  0  0
 32 50  1  0  0  0
 33 51  1  0  0  0
 52 55  1  0  0  0
 52 56  1  0  0  0
 52 59  1  0  0  0
 52 60  1  0  0  0
 53 55  1  0  0  0
 53 58  1  0  0  0
 54 55  1  0  0  0
 54 57  1  0  0  0
 54 61  1  0  0  0
 55 62  1  0  0  0
 56 63  1  0  0  0
 56 64  1  0  0  0
 57 58  2  0  0  0
 57 65  1  0  0  0
 58 66  1  0  0  0
M  CHG  1  52   1
M  END
> <s_m_entry_id>
197

> <s_m_entry_name>
000000197.1

> <s_m_Source_Path>
/Users/zaksoul/Documents/2

> <s_m_Source_File>
000000197.mol2

> <i_m_Source_File_Index>
1

$$$$
No_0_208
                    3D
 Schrodinger Suite 2022-4.
 64 70  0  0  1  0            999 V2000
   -5.3070    3.5000  -21.9860 C   0  0  0  0  0  0
   -5.5680    3.6570  -23.3270 C   0  0  0  0  0  0
   -4.0690    3.2630  -21.6340 C   0  0  0  0  0  0
   -3.1680    3.3470  -23.7980 C   0  0  0  0  0  0
   -3.0130    3.1360  -22.3710 C   0  0  0  0  0  0
   -4.5150    3.5890  -24.3310 C   0  0  0  0  0  0
   -3.7490    3.5670  -26.5260 C   0  0  0  0  0  0
    5.9590    3.0160  -21.1990 C   0  0  0  0  0  0
    5.8320    3.1000  -23.7510 C   0  0  0  0  0  0
   -4.7600    3.6850  -25.6700 C   0  0  0  0  0  0
    2.0440    3.6220  -23.7990 C   0  0  0  0  0  0
    1.2140    4.7320  -23.5290 C   0  0  0  0  0  0
    3.0010    5.9540  -22.8670 C   0  0  0  0  0  0
    3.4410    3.8290  -23.4840 C   0  0  0  0  0  0
    1.5080    2.4870  -24.4380 C   0  0  0  0  0  0
   -0.6250    3.2880  -24.3550 C   0  0  0  0  0  0
   -0.1090    4.5250  -23.7810 C   0  0  0  0  0  0
   -2.0760    3.2760  -24.7170 C   0  0  0  0  0  0
    4.0620    1.3430  -23.1330 C   0  0  0  0  0  0
    4.9920    1.0190  -21.9740 C   0  0  2  0  0  0
    6.5780    2.5580  -22.5380 C   0  0  2  0  0  0
    4.9620    2.0460  -20.8300 C   0  0  0  0  0  0
   -2.3960    3.4020  -26.1490 C   0  0  0  0  0  0
   -1.6690    2.7450  -21.7570 C   0  0  0  0  0  0
   -0.6380    2.4150  -21.2390 C   0  0  0  0  0  0
   -0.9600    5.5720  -23.4640 F   0  0  0  0  0  0
   -3.8640    3.0530  -20.2460 F   0  0  0  0  0  0
    1.6810    5.9050  -23.0210 N   0  0  0  0  0  0
    3.9050    4.9930  -23.0620 N   0  0  0  0  0  0
    0.2040    2.3820  -24.7470 N   0  0  0  0  0  0
    4.3670    2.7840  -23.6330 N   0  0  0  0  0  0
    6.4010    1.0850  -22.4510 N   0  0  1  0  0  0
   -3.9150    3.5490  -27.9160 O   0  0  0  0  0  0
   -6.1132    3.5743  -21.2652 H   0  0  0  0  0  0
   -6.5823    3.8376  -23.6641 H   0  0  0  0  0  0
    5.4817    3.9979  -21.3332 H   0  0  0  0  0  0
    6.7410    3.0493  -20.4261 H   0  0  0  0  0  0
    6.2335    2.6380  -24.6650 H   0  0  0  0  0  0
    5.9683    4.1900  -23.8085 H   0  0  0  0  0  0
   -5.7698    3.8556  -26.0253 H   0  0  0  0  0  0
    2.1541    1.6563  -24.6978 H   0  0  0  0  0  0
    3.0180    1.2875  -22.7910 H   0  0  0  0  0  0
    4.2326    0.6273  -23.9507 H   0  0  0  0  0  0
    4.7730    0.0139  -21.5845 H   0  0  0  0  0  0
    7.6449    2.8215  -22.5854 H   0  0  0  0  0  0
    3.9752    2.5313  -20.8018 H   0  0  0  0  0  0
    5.2618    1.5554  -19.8922 H   0  0  0  0  0  0
   -1.6223    3.3699  -26.9076 H   0  0  0  0  0  0
    0.2694    2.1259  -20.7828 H   0  0  0  0  0  0
    7.0484    0.6067  -21.7309 H   0  0  0  0  0  0
   -3.0677    3.4569  -28.3357 H   0  0  0  0  0  0
    3.8750    7.3050  -20.9560 N   0  0  1  0  0  0
    5.9530    8.6010  -21.2410 N   0  0  0  0  0  0
    4.1020    9.7740  -20.9490 N   0  0  0  0  0  0
    4.6770    8.4850  -20.4860 C   0  0  0  0  0  0
    3.5490    7.3070  -22.4260 C   0  0  0  0  0  0
    4.8470   10.4270  -21.7610 C   0  0  0  0  0  0
    6.0550    9.6610  -21.9510 C   0  0  0  0  0  0
    4.4229    6.3952  -20.7600 H   0  0  0  0  0  0
    4.8390    8.4700  -19.3981 H   0  0  0  0  0  0
    4.4568    7.5399  -23.0019 H   0  0  0  0  0  0
    2.8051    8.0899  -22.6350 H   0  0  0  0  0  0
    4.5079   11.3802  -22.1641 H   0  0  0  0  0  0
    6.9497    9.8331  -22.5475 H   0  0  0  0  0  0
  1  2  2  0  0  0
  1  3  1  0  0  0
  1 34  1  0  0  0
  2  6  1  0  0  0
  2 35  1  0  0  0
  3  5  2  0  0  0
  3 27  1  0  0  0
  4  5  1  0  0  0
  4  6  2  0  0  0
  4 18  1  0  0  0
  5 24  1  0  0  0
  6 10  1  0  0  0
  7 10  2  0  0  0
  7 23  1  0  0  0
  7 33  1  0  0  0
  8 21  1  0  0  0
  8 22  1  0  0  0
  8 36  1  0  0  0
  8 37  1  0  0  0
  9 21  1  0  0  0
  9 31  1  0  0  0
  9 38  1  0  0  0
  9 39  1  0  0  0
 10 40  1  0  0  0
 11 12  1  0  0  0
 11 14  2  0  0  0
 11 15  1  0  0  0
 12 17  1  0  0  0
 12 28  2  0  0  0
 13 28  1  0  0  0
 13 29  2  0  0  0
 13 56  1  0  0  0
 14 29  1  0  0  0
 14 31  1  0  0  0
 15 30  2  0  0  0
 15 41  1  0  0  0
 16 17  2  0  0  0
 16 18  1  0  0  0
 16 30  1  0  0  0
 17 26  1  0  0  0
 18 23  2  0  0  0
 19 20  1  0  0  0
 19 31  1  0  0  0
 19 42  1  0  0  0
 19 43  1  0  0  0
 20 22  1  0  0  0
 20 32  1  0  0  0
 20 44  1  0  0  0
 21 32  1  0  0  0
 21 45  1  0  0  0
 22 46  1  0  0  0
 22 47  1  0  0  0
 23 48  1  0  0  0
 24 25  3  0  0  0
 25 49  1  0  0  0
 32 50  1  0  0  0
 33 51  1  0  0  0
 52 55  1  0  0  0
 52 56  1  0  0  0
 52 59  1  0  0  0
 53 55  1  0  0  0
 53 58  2  0  0  0
 54 55  1  0  0  0
 54 57  2  0  0  0
 55 60  1  0  0  0
 56 61  1  0  0  0
 56 62  1  0  0  0
 57 58  1  0  0  0
 57 63  1  0  0  0
 58 64  1  0  0  0
M  END
> <s_m_entry_id>
198

> <s_m_entry_name>
000000198.1

> <s_m_Source_Path>
/Users/zaksoul/Documents/2

> <s_m_Source_File>
000000198.mol2

> <i_m_Source_File_Index>
1

$$$$
No_0_209
                    3D
 Schrodinger Suite 2022-4.
 64 70  0  0  1  0            999 V2000
   -5.3210    3.7100  -22.1510 C   0  0  0  0  0  0
   -5.5500    3.8680  -23.4980 C   0  0  0  0  0  0
   -4.0940    3.4540  -21.7720 C   0  0  0  0  0  0
   -3.1450    3.5200  -23.9160 C   0  0  0  0  0  0
   -3.0240    3.3090  -22.4860 C   0  0  0  0  0  0
   -4.4760    3.7810  -24.4780 C   0  0  0  0  0  0
   -3.6640    3.7420  -26.6560 C   0  0  0  0  0  0
    5.9170    3.0540  -21.1190 C   0  0  0  0  0  0
    5.8460    3.1350  -23.6740 C   0  0  0  0  0  0
   -4.6910    3.8780  -25.8230 C   0  0  0  0  0  0
    2.0690    3.7150  -23.8040 C   0  0  0  0  0  0
    1.2500    4.8380  -23.5540 C   0  0  0  0  0  0
    3.0410    6.0340  -22.8560 C   0  0  0  0  0  0
    3.4620    3.9020  -23.4590 C   0  0  0  0  0  0
    1.5300    2.5870  -24.4520 C   0  0  0  0  0  0
   -0.5920    3.4210  -24.4180 C   0  0  0  0  0  0
   -0.0700    4.6510  -23.8350 C   0  0  0  0  0  0
   -2.0350    3.4300  -24.8110 C   0  0  0  0  0  0
    4.0370    1.4070  -23.0910 C   0  0  0  0  0  0
    4.9370    1.0710  -21.9120 C   0  0  2  0  0  0
    6.5570    2.5840  -22.4430 C   0  0  2  0  0  0
    4.8980    2.1010  -20.7700 C   0  0  0  0  0  0
   -2.3220    3.5580  -26.2500 C   0  0  0  0  0  0
   -1.7000    2.8990  -21.8420 C   0  0  0  0  0  0
   -0.6860    2.5550  -21.3010 C   0  0  0  0  0  0
   -0.9110    5.7110  -23.5380 F   0  0  0  0  0  0
   -3.9220    3.2440  -20.3790 F   0  0  0  0  0  0
    1.7240    6.0050  -23.0380 N   0  0  0  0  0  0
    3.9340    5.0590  -23.0290 N   0  0  0  0  0  0
    0.2310    2.5010  -24.7900 N   0  0  0  0  0  0
    4.3750    2.8420  -23.5860 N   0  0  0  0  0  0
    6.3560    1.1140  -22.3580 N   0  0  1  0  0  0
   -3.8000    3.7240  -28.0490 O   0  0  0  0  0  0
   -6.1410    3.7973  -21.4474 H   0  0  0  0  0  0
   -6.5538    4.0637  -23.8574 H   0  0  0  0  0  0
    5.4591    4.0434  -21.2652 H   0  0  0  0  0  0
    6.6830    3.0772  -20.3298 H   0  0  0  0  0  0
    6.2606    2.6649  -24.5779 H   0  0  0  0  0  0
    6.0004    4.2227  -23.7295 H   0  0  0  0  0  0
   -5.6906    4.0627  -26.1994 H   0  0  0  0  0  0
    2.1684    1.7459  -24.6969 H   0  0  0  0  0  0
    2.9852    1.3677  -22.7713 H   0  0  0  0  0  0
    4.2146    0.6867  -23.9031 H   0  0  0  0  0  0
    4.6939    0.0705  -21.5247 H   0  0  0  0  0  0
    7.6286    2.8312  -22.4682 H   0  0  0  0  0  0
    3.9180    2.6006  -20.7639 H   0  0  0  0  0  0
    5.1686    1.6073  -19.8250 H   0  0  0  0  0  0
   -1.5329    3.5128  -26.9919 H   0  0  0  0  0  0
    0.2067    2.2521  -20.8251 H   0  0  0  0  0  0
    6.9808    0.6283  -21.6230 H   0  0  0  0  0  0
   -2.9454    3.6192  -28.4506 H   0  0  0  0  0  0
    4.5900    7.2050  -21.2830 N   0  0  1  0  0  0
    6.1410    8.9090  -22.1590 N   0  0  0  0  0  0
    4.5530    9.6380  -20.8040 N   0  0  0  0  0  0
    5.4010    8.4280  -20.9630 C   0  0  0  0  0  0
    3.6000    7.3800  -22.4060 C   0  0  0  0  0  0
    4.7510   10.5440  -21.6860 C   0  0  0  0  0  0
    5.7880   10.0690  -22.5700 C   0  0  0  0  0  0
    5.2492    6.3998  -21.5721 H   0  0  0  0  0  0
    6.0648    8.2700  -20.1002 H   0  0  0  0  0  0
    4.0939    7.8739  -23.2558 H   0  0  0  0  0  0
    2.7748    8.0251  -22.0699 H   0  0  0  0  0  0
    4.1713   11.4655  -21.6600 H   0  0  0  0  0  0
    6.2660   10.5050  -23.4460 H   0  0  0  0  0  0
  1  2  2  0  0  0
  1  3  1  0  0  0
  1 34  1  0  0  0
  2  6  1  0  0  0
  2 35  1  0  0  0
  3  5  2  0  0  0
  3 27  1  0  0  0
  4  5  1  0  0  0
  4  6  2  0  0  0
  4 18  1  0  0  0
  5 24  1  0  0  0
  6 10  1  0  0  0
  7 10  2  0  0  0
  7 23  1  0  0  0
  7 33  1  0  0  0
  8 21  1  0  0  0
  8 22  1  0  0  0
  8 36  1  0  0  0
  8 37  1  0  0  0
  9 21  1  0  0  0
  9 31  1  0  0  0
  9 38  1  0  0  0
  9 39  1  0  0  0
 10 40  1  0  0  0
 11 12  1  0  0  0
 11 14  2  0  0  0
 11 15  1  0  0  0
 12 17  1  0  0  0
 12 28  2  0  0  0
 13 28  1  0  0  0
 13 29  2  0  0  0
 13 56  1  0  0  0
 14 29  1  0  0  0
 14 31  1  0  0  0
 15 30  2  0  0  0
 15 41  1  0  0  0
 16 17  2  0  0  0
 16 18  1  0  0  0
 16 30  1  0  0  0
 17 26  1  0  0  0
 18 23  2  0  0  0
 19 20  1  0  0  0
 19 31  1  0  0  0
 19 42  1  0  0  0
 19 43  1  0  0  0
 20 22  1  0  0  0
 20 32  1  0  0  0
 20 44  1  0  0  0
 21 32  1  0  0  0
 21 45  1  0  0  0
 22 46  1  0  0  0
 22 47  1  0  0  0
 23 48  1  0  0  0
 24 25  3  0  0  0
 25 49  1  0  0  0
 32 50  1  0  0  0
 33 51  1  0  0  0
 52 55  1  0  0  0
 52 56  1  0  0  0
 52 59  1  0  0  0
 53 55  1  0  0  0
 53 58  2  0  0  0
 54 55  1  0  0  0
 54 57  2  0  0  0
 55 60  1  0  0  0
 56 61  1  0  0  0
 56 62  1  0  0  0
 57 58  1  0  0  0
 57 63  1  0  0  0
 58 64  1  0  0  0
M  END
> <s_m_entry_id>
199

> <s_m_entry_name>
000000199.1

> <s_m_Source_Path>
/Users/zaksoul/Documents/2

> <s_m_Source_File>
000000199.mol2

> <i_m_Source_File_Index>
1

$$$$
No_0_210
                    3D
 Schrodinger Suite 2022-4.
 64 70  0  0  1  0            999 V2000
   -5.3460    3.4380  -22.1520 C   0  0  0  0  0  0
   -5.5500    3.6660  -23.4920 C   0  0  0  0  0  0
   -4.1260    3.1690  -21.7620 C   0  0  0  0  0  0
   -3.1350    3.3540  -23.8800 C   0  0  0  0  0  0
   -3.0410    3.0680  -22.4620 C   0  0  0  0  0  0
   -4.4570    3.6380  -24.4550 C   0  0  0  0  0  0
   -3.6010    3.7200  -26.6140 C   0  0  0  0  0  0
    5.8730    2.7900  -20.9320 C   0  0  0  0  0  0
    5.8520    3.0070  -23.4800 C   0  0  0  0  0  0
   -4.6460    3.8050  -25.7960 C   0  0  0  0  0  0
    2.0740    3.5720  -23.6550 C   0  0  0  0  0  0
    1.2440    4.6750  -23.3610 C   0  0  0  0  0  0
    3.0120    5.8430  -22.5650 C   0  0  0  0  0  0
    3.4590    3.7470  -23.2720 C   0  0  0  0  0  0
    1.5550    2.4770  -24.3730 C   0  0  0  0  0  0
   -0.5720    3.2960  -24.3360 C   0  0  0  0  0  0
   -0.0700    4.4960  -23.6780 C   0  0  0  0  0  0
   -2.0080    3.3190  -24.7560 C   0  0  0  0  0  0
    4.0430    1.2400  -23.0260 C   0  0  0  0  0  0
    4.9220    0.8460  -21.8490 C   0  0  2  0  0  0
    6.5430    2.3950  -22.2670 C   0  0  2  0  0  0
    4.8530    1.8130  -20.6550 C   0  0  0  0  0  0
   -2.2660    3.5220  -26.1920 C   0  0  0  0  0  0
   -1.7270    2.6320  -21.8150 C   0  0  0  0  0  0
   -0.7220    2.2650  -21.2720 C   0  0  0  0  0  0
   -0.9230    5.5350  -23.3420 F   0  0  0  0  0  0
   -3.9800    2.8860  -20.3800 F   0  0  0  0  0  0
    1.6990    5.8160  -22.7750 N   0  0  0  0  0  0
    3.9150    4.8830  -22.7720 N   0  0  0  0  0  0
    0.2640    2.4020  -24.7400 N   0  0  0  0  0  0
    4.3810    2.7010  -23.4380 N   0  0  0  0  0  0
    6.3490    0.9210  -22.2640 N   0  0  1  0  0  0
   -3.7100    3.7760  -28.0100 O   0  0  0  0  0  0
   -6.1802    3.4832  -21.4613 H   0  0  0  0  0  0
   -6.5475    3.8747  -23.8613 H   0  0  0  0  0  0
    5.4108    3.7830  -21.0339 H   0  0  0  0  0  0
    6.6230    2.7749  -20.1275 H   0  0  0  0  0  0
    6.2870    2.5882  -24.3994 H   0  0  0  0  0  0
    6.0004    4.0969  -23.4750 H   0  0  0  0  0  0
   -5.6389    4.0048  -26.1825 H   0  0  0  0  0  0
    2.2043    1.6540  -24.6490 H   0  0  0  0  0  0
    2.9853    1.1774  -22.7303 H   0  0  0  0  0  0
    4.2408    0.5660  -23.8725 H   0  0  0  0  0  0
    4.6778   -0.1752  -21.5211 H   0  0  0  0  0  0
    7.6134    2.6485  -22.2569 H   0  0  0  0  0  0
    3.8704    2.3073  -20.6419 H   0  0  0  0  0  0
    5.1094    1.2719  -19.7323 H   0  0  0  0  0  0
   -1.4628    3.5210  -26.9199 H   0  0  0  0  0  0
    0.1630    1.9420  -20.7950 H   0  0  0  0  0  0
    6.9625    0.4005  -21.5436 H   0  0  0  0  0  0
   -2.8465    3.6968  -28.3982 H   0  0  0  0  0  0
    5.0330    7.0720  -21.7600 N   0  0  1  0  0  0
    5.5090    9.3250  -22.6420 N   0  0  0  0  0  0
    4.9850    9.2060  -20.4970 N   0  0  0  0  0  0
    5.7100    8.3890  -21.5050 C   0  0  0  0  0  0
    3.5540    7.1650  -22.0330 C   0  0  0  0  0  0
    4.4930   10.2970  -20.9530 C   0  0  0  0  0  0
    4.8350   10.3750  -22.3520 C   0  0  0  0  0  0
    5.4793    6.5977  -22.6215 H   0  0  0  0  0  0
    6.7734    8.2660  -21.2519 H   0  0  0  0  0  0
    3.3669    7.9604  -22.7694 H   0  0  0  0  0  0
    3.0260    7.4300  -21.1051 H   0  0  0  0  0  0
    3.9362   10.9608  -20.2932 H   0  0  0  0  0  0
    4.6269   11.1172  -23.1212 H   0  0  0  0  0  0
  1  2  2  0  0  0
  1  3  1  0  0  0
  1 34  1  0  0  0
  2  6  1  0  0  0
  2 35  1  0  0  0
  3  5  2  0  0  0
  3 27  1  0  0  0
  4  5  1  0  0  0
  4  6  2  0  0  0
  4 18  1  0  0  0
  5 24  1  0  0  0
  6 10  1  0  0  0
  7 10  2  0  0  0
  7 23  1  0  0  0
  7 33  1  0  0  0
  8 21  1  0  0  0
  8 22  1  0  0  0
  8 36  1  0  0  0
  8 37  1  0  0  0
  9 21  1  0  0  0
  9 31  1  0  0  0
  9 38  1  0  0  0
  9 39  1  0  0  0
 10 40  1  0  0  0
 11 12  1  0  0  0
 11 14  2  0  0  0
 11 15  1  0  0  0
 12 17  1  0  0  0
 12 28  2  0  0  0
 13 28  1  0  0  0
 13 29  2  0  0  0
 13 56  1  0  0  0
 14 29  1  0  0  0
 14 31  1  0  0  0
 15 30  2  0  0  0
 15 41  1  0  0  0
 16 17  2  0  0  0
 16 18  1  0  0  0
 16 30  1  0  0  0
 17 26  1  0  0  0
 18 23  2  0  0  0
 19 20  1  0  0  0
 19 31  1  0  0  0
 19 42  1  0  0  0
 19 43  1  0  0  0
 20 22  1  0  0  0
 20 32  1  0  0  0
 20 44  1  0  0  0
 21 32  1  0  0  0
 21 45  1  0  0  0
 22 46  1  0  0  0
 22 47  1  0  0  0
 23 48  1  0  0  0
 24 25  3  0  0  0
 25 49  1  0  0  0
 32 50  1  0  0  0
 33 51  1  0  0  0
 52 55  1  0  0  0
 52 56  1  0  0  0
 52 59  1  0  0  0
 53 55  1  0  0  0
 53 58  2  0  0  0
 54 55  1  0  0  0
 54 57  2  0  0  0
 55 60  1  0  0  0
 56 61  1  0  0  0
 56 62  1  0  0  0
 57 58  1  0  0  0
 57 63  1  0  0  0
 58 64  1  0  0  0
M  END
> <s_m_entry_id>
200

> <s_m_entry_name>
000000200.1

> <s_m_Source_Path>
/Users/zaksoul/Documents/2

> <s_m_Source_File>
000000200.mol2

> <i_m_Source_File_Index>
1

$$$$
No_0_211
                    3D
 Schrodinger Suite 2022-4.
 64 70  0  0  1  0            999 V2000
   -5.4460    3.1940  -22.0180 C   0  0  0  0  0  0
   -5.6660    3.3900  -23.3610 C   0  0  0  0  0  0
   -4.2170    2.9620  -21.6320 C   0  0  0  0  0  0
   -3.2480    3.1260  -23.7620 C   0  0  0  0  0  0
   -3.1350    2.8720  -22.3380 C   0  0  0  0  0  0
   -4.5800    3.3670  -24.3310 C   0  0  0  0  0  0
   -3.7430    3.4240  -26.4990 C   0  0  0  0  0  0
    5.7940    2.8330  -20.8760 C   0  0  0  0  0  0
    5.7490    2.9960  -23.4280 C   0  0  0  0  0  0
   -4.7830    3.5020  -25.6740 C   0  0  0  0  0  0
    1.9570    3.4700  -23.5830 C   0  0  0  0  0  0
    1.1030    4.5590  -23.3060 C   0  0  0  0  0  0
    2.8500    5.7830  -22.5480 C   0  0  0  0  0  0
    3.3410    3.6850  -23.2160 C   0  0  0  0  0  0
    1.4590    2.3480  -24.2740 C   0  0  0  0  0  0
   -0.6870    3.1180  -24.2370 C   0  0  0  0  0  0
   -0.2080    4.3430  -23.6080 C   0  0  0  0  0  0
   -2.1260    3.0990  -24.6460 C   0  0  0  0  0  0
    3.9850    1.1970  -22.9230 C   0  0  0  0  0  0
    4.8820    0.8490  -21.7450 C   0  0  2  0  0  0
    6.4620    2.4260  -22.2070 C   0  0  2  0  0  0
    4.8000    1.8390  -20.5700 C   0  0  0  0  0  0
   -2.4000    3.2650  -26.0840 C   0  0  0  0  0  0
   -1.8070    2.4790  -21.6930 C   0  0  0  0  0  0
   -0.7890    2.1470  -21.1520 C   0  0  0  0  0  0
   -1.0830    5.3680  -23.2870 F   0  0  0  0  0  0
   -4.0540    2.7110  -20.2450 F   0  0  0  0  0  0
    1.5370    5.7220  -22.7470 N   0  0  0  0  0  0
    3.7730    4.8410  -22.7430 N   0  0  0  0  0  0
    0.1670    2.2360  -24.6290 N   0  0  0  0  0  0
    4.2860    2.6570  -23.3670 N   0  0  0  0  0  0
    6.3040    0.9480  -22.1730 N   0  0  1  0  0  0
   -3.8640    3.4480  -27.8940 O   0  0  0  0  0  0
   -6.2758    3.2341  -21.3217 H   0  0  0  0  0  0
   -6.6713    3.5678  -23.7255 H   0  0  0  0  0  0
    5.3078    3.8125  -20.9950 H   0  0  0  0  0  0
    6.5507    2.8522  -20.0779 H   0  0  0  0  0  0
    6.1863    2.5678  -24.3420 H   0  0  0  0  0  0
    5.8711    4.0890  -23.4462 H   0  0  0  0  0  0
   -5.7833    3.6697  -26.0566 H   0  0  0  0  0  0
    2.1248    1.5346  -24.5391 H   0  0  0  0  0  0
    2.9314    1.1173  -22.6172 H   0  0  0  0  0  0
    4.1920    0.5104  -23.7571 H   0  0  0  0  0  0
    4.6640   -0.1704  -21.3938 H   0  0  0  0  0  0
    7.5262    2.7044  -22.2110 H   0  0  0  0  0  0
    3.8057    2.3094  -20.5599 H   0  0  0  0  0  0
    5.0754    1.3224  -19.6387 H   0  0  0  0  0  0
   -1.6021    3.2680  -26.8177 H   0  0  0  0  0  0
    0.1068    1.8551  -20.6751 H   0  0  0  0  0  0
    6.9343    0.4568  -21.4464 H   0  0  0  0  0  0
   -3.0021    3.3807  -28.2878 H   0  0  0  0  0  0
    4.5590    7.5820  -22.8470 N   0  0  1  0  0  0
    3.8360    9.9380  -22.9100 N   0  0  0  0  0  0
    5.0730    9.3420  -21.1770 N   0  0  0  0  0  0
    4.9620    9.0110  -22.6220 C   0  0  0  0  0  0
    3.3650    7.1290  -22.0480 C   0  0  0  0  0  0
    4.2240   10.2070  -20.7640 C   0  0  0  0  0  0
    3.4170   10.5960  -21.8950 C   0  0  0  0  0  0
    4.3100    7.4370  -23.8879 H   0  0  0  0  0  0
    5.8714    9.2781  -23.1802 H   0  0  0  0  0  0
    2.5651    7.8799  -22.1270 H   0  0  0  0  0  0
    3.6448    7.0431  -20.9877 H   0  0  0  0  0  0
    4.2190   10.5079  -19.7174 H   0  0  0  0  0  0
    2.5890   11.2950  -22.0030 H   0  0  0  0  0  0
  1  2  2  0  0  0
  1  3  1  0  0  0
  1 34  1  0  0  0
  2  6  1  0  0  0
  2 35  1  0  0  0
  3  5  2  0  0  0
  3 27  1  0  0  0
  4  5  1  0  0  0
  4  6  2  0  0  0
  4 18  1  0  0  0
  5 24  1  0  0  0
  6 10  1  0  0  0
  7 10  2  0  0  0
  7 23  1  0  0  0
  7 33  1  0  0  0
  8 21  1  0  0  0
  8 22  1  0  0  0
  8 36  1  0  0  0
  8 37  1  0  0  0
  9 21  1  0  0  0
  9 31  1  0  0  0
  9 38  1  0  0  0
  9 39  1  0  0  0
 10 40  1  0  0  0
 11 12  1  0  0  0
 11 14  2  0  0  0
 11 15  1  0  0  0
 12 17  1  0  0  0
 12 28  2  0  0  0
 13 28  1  0  0  0
 13 29  2  0  0  0
 13 56  1  0  0  0
 14 29  1  0  0  0
 14 31  1  0  0  0
 15 30  2  0  0  0
 15 41  1  0  0  0
 16 17  2  0  0  0
 16 18  1  0  0  0
 16 30  1  0  0  0
 17 26  1  0  0  0
 18 23  2  0  0  0
 19 20  1  0  0  0
 19 31  1  0  0  0
 19 42  1  0  0  0
 19 43  1  0  0  0
 20 22  1  0  0  0
 20 32  1  0  0  0
 20 44  1  0  0  0
 21 32  1  0  0  0
 21 45  1  0  0  0
 22 46  1  0  0  0
 22 47  1  0  0  0
 23 48  1  0  0  0
 24 25  3  0  0  0
 25 49  1  0  0  0
 32 50  1  0  0  0
 33 51  1  0  0  0
 52 55  1  0  0  0
 52 56  1  0  0  0
 52 59  1  0  0  0
 53 55  1  0  0  0
 53 58  2  0  0  0
 54 55  1  0  0  0
 54 57  2  0  0  0
 55 60  1  0  0  0
 56 61  1  0  0  0
 56 62  1  0  0  0
 57 58  1  0  0  0
 57 63  1  0  0  0
 58 64  1  0  0  0
M  END
> <s_m_entry_id>
201

> <s_m_entry_name>
000000201.1

> <s_m_Source_Path>
/Users/zaksoul/Documents/2

> <s_m_Source_File>
000000201.mol2

> <i_m_Source_File_Index>
1

$$$$
No_0_212
                    3D
 Schrodinger Suite 2022-4.
 74 80  0  0  1  0            999 V2000
   -5.0910    3.3210  -22.0750 C   0  0  0  0  0  0
   -5.3570    3.4860  -23.4130 C   0  0  0  0  0  0
   -3.8490    3.1020  -21.7270 C   0  0  0  0  0  0
   -2.9530    3.2230  -23.8910 C   0  0  0  0  0  0
   -2.7910    3.0010  -22.4670 C   0  0  0  0  0  0
   -4.3040    3.4470  -24.4190 C   0  0  0  0  0  0
   -3.5420    3.4590  -26.6150 C   0  0  0  0  0  0
    6.1830    3.0280  -21.3090 C   0  0  0  0  0  0
    6.0500    3.1360  -23.8600 C   0  0  0  0  0  0
   -4.5540    3.5510  -25.7570 C   0  0  0  0  0  0
    2.2530    3.5910  -23.8970 C   0  0  0  0  0  0
    1.4040    4.6830  -23.6140 C   0  0  0  0  0  0
    3.1710    5.9300  -22.9440 C   0  0  0  0  0  0
    3.6470    3.8200  -23.5820 C   0  0  0  0  0  0
    1.7370    2.4520  -24.5460 C   0  0  0  0  0  0
   -0.4100    3.2150  -24.4530 C   0  0  0  0  0  0
    0.0850    4.4550  -23.8670 C   0  0  0  0  0  0
   -1.8620    3.1810  -24.8120 C   0  0  0  0  0  0
    4.3130    1.3410  -23.2570 C   0  0  0  0  0  0
    5.2510    1.0220  -22.1020 C   0  0  2  0  0  0
    6.8070    2.5950  -22.6530 C   0  0  2  0  0  0
    5.2040    2.0370  -20.9480 C   0  0  0  0  0  0
   -2.1860    3.3150  -26.2430 C   0  0  0  0  0  0
   -1.4390    2.6280  -21.8590 C   0  0  0  0  0  0
   -0.4020    2.3120  -21.3450 C   0  0  0  0  0  0
   -0.7840    5.4830  -23.5390 F   0  0  0  0  0  0
   -3.6370    2.8820  -20.3410 F   0  0  0  0  0  0
    1.8510    5.8590  -23.0960 N   0  0  0  0  0  0
    4.0910    4.9870  -23.1490 N   0  0  0  0  0  0
    0.4340    2.3270  -24.8540 N   0  0  0  0  0  0
    4.5910    2.7920  -23.7430 N   0  0  0  0  0  0
    6.6570    1.1180  -22.5810 N   0  0  1  0  0  0
   -3.7100    3.4530  -28.0060 O   0  0  0  0  0  0
   -5.8966    3.3732  -21.3516 H   0  0  0  0  0  0
   -6.3747    3.6526  -23.7472 H   0  0  0  0  0  0
    5.6885    4.0028  -21.4321 H   0  0  0  0  0  0
    6.9658    3.0673  -20.5372 H   0  0  0  0  0  0
    6.4584    2.6893  -24.7785 H   0  0  0  0  0  0
    6.1672    4.2288  -23.9065 H   0  0  0  0  0  0
   -5.5672    3.7075  -26.1091 H   0  0  0  0  0  0
    2.3968    1.6355  -24.8162 H   0  0  0  0  0  0
    3.2708    1.2633  -22.9140 H   0  0  0  0  0  0
    4.4947    0.6363  -24.0818 H   0  0  0  0  0  0
    5.0501    0.0093  -21.7224 H   0  0  0  0  0  0
    7.8691    2.8774  -22.6994 H   0  0  0  0  0  0
    4.2088    2.5043  -20.9137 H   0  0  0  0  0  0
    5.5138    1.5425  -20.0155 H   0  0  0  0  0  0
   -1.4130    3.3050  -27.0029 H   0  0  0  0  0  0
    0.5108    2.0331  -20.8931 H   0  0  0  0  0  0
    7.3138    0.6442  -21.8665 H   0  0  0  0  0  0
   -2.8618    3.3798  -28.4276 H   0  0  0  0  0  0
    4.7180    7.1360  -21.3910 N   0  3  0  0  0  0
    5.5970    8.3260  -21.0740 C   0  0  0  0  0  0
    4.6870   10.3760  -22.0850 C   0  0  0  0  0  0
    5.9170    9.9650  -22.9140 C   0  0  0  0  0  0
    3.6950    7.2880  -22.4900 C   0  0  0  0  0  0
    6.5050    8.6950  -22.2680 C   0  0  0  0  0  0
    4.7840    9.5990  -20.7620 C   0  0  0  0  0  0
    6.4690    7.9580  -19.8540 C   0  0  0  0  0  0
    4.2542    6.8342  -20.5485 H   0  0  0  0  0  0
    5.3009    6.3381  -21.5900 H   0  0  0  0  0  0
    3.7718   10.0789  -22.6181 H   0  0  0  0  0  0
    4.7290   11.4557  -21.8791 H   0  0  0  0  0  0
    6.6640   10.7719  -22.8840 H   0  0  0  0  0  0
    5.6051    9.7401  -23.9446 H   0  0  0  0  0  0
    4.1519    7.8079  -23.3449 H   0  0  0  0  0  0
    2.8577    7.9032  -22.1289 H   0  0  0  0  0  0
    6.4990    7.8744  -23.0005 H   0  0  0  0  0  0
    7.5206    8.9079  -21.9031 H   0  0  0  0  0  0
    5.3252   10.2053  -20.0207 H   0  0  0  0  0  0
    3.7746    9.3149  -20.4299 H   0  0  0  0  0  0
    7.1213    8.8064  -19.5999 H   0  0  0  0  0  0
    5.8201    7.7240  -18.9971 H   0  0  0  0  0  0
    7.0871    7.0809  -20.0960 H   0  0  0  0  0  0
  1  2  2  0  0  0
  1  3  1  0  0  0
  1 34  1  0  0  0
  2  6  1  0  0  0
  2 35  1  0  0  0
  3  5  2  0  0  0
  3 27  1  0  0  0
  4  5  1  0  0  0
  4  6  2  0  0  0
  4 18  1  0  0  0
  5 24  1  0  0  0
  6 10  1  0  0  0
  7 10  2  0  0  0
  7 23  1  0  0  0
  7 33  1  0  0  0
  8 21  1  0  0  0
  8 22  1  0  0  0
  8 36  1  0  0  0
  8 37  1  0  0  0
  9 21  1  0  0  0
  9 31  1  0  0  0
  9 38  1  0  0  0
  9 39  1  0  0  0
 10 40  1  0  0  0
 11 12  1  0  0  0
 11 14  2  0  0  0
 11 15  1  0  0  0
 12 17  1  0  0  0
 12 28  2  0  0  0
 13 28  1  0  0  0
 13 29  2  0  0  0
 13 56  1  0  0  0
 14 29  1  0  0  0
 14 31  1  0  0  0
 15 30  2  0  0  0
 15 41  1  0  0  0
 16 17  2  0  0  0
 16 18  1  0  0  0
 16 30  1  0  0  0
 17 26  1  0  0  0
 18 23  2  0  0  0
 19 20  1  0  0  0
 19 31  1  0  0  0
 19 42  1  0  0  0
 19 43  1  0  0  0
 20 22  1  0  0  0
 20 32  1  0  0  0
 20 44  1  0  0  0
 21 32  1  0  0  0
 21 45  1  0  0  0
 22 46  1  0  0  0
 22 47  1  0  0  0
 23 48  1  0  0  0
 24 25  3  0  0  0
 25 49  1  0  0  0
 32 50  1  0  0  0
 33 51  1  0  0  0
 52 53  1  0  0  0
 52 56  1  0  0  0
 52 60  1  0  0  0
 52 61  1  0  0  0
 53 57  1  0  0  0
 53 58  1  0  0  0
 53 59  1  0  0  0
 54 55  1  0  0  0
 54 58  1  0  0  0
 54 62  1  0  0  0
 54 63  1  0  0  0
 55 57  1  0  0  0
 55 64  1  0  0  0
 55 65  1  0  0  0
 56 66  1  0  0  0
 56 67  1  0  0  0
 57 68  1  0  0  0
 57 69  1  0  0  0
 58 70  1  0  0  0
 58 71  1  0  0  0
 59 72  1  0  0  0
 59 73  1  0  0  0
 59 74  1  0  0  0
M  CHG  1  52   1
M  END
> <s_m_entry_id>
202

> <s_m_entry_name>
000000202.1

> <s_m_Source_Path>
/Users/zaksoul/Documents/2

> <s_m_Source_File>
000000202.mol2

> <i_m_Source_File_Index>
1

$$$$
No_0_213
                    3D
 Schrodinger Suite 2022-4.
 74 80  0  0  1  0            999 V2000
   -5.3740    3.1780  -21.9130 C   0  0  0  0  0  0
   -5.6650    3.3570  -23.2450 C   0  0  0  0  0  0
   -4.1270    2.9450  -21.5910 C   0  0  0  0  0  0
   -3.2740    3.0730  -23.7720 C   0  0  0  0  0  0
   -3.0860    2.8380  -22.3530 C   0  0  0  0  0  0
   -4.6330    3.3140  -24.2720 C   0  0  0  0  0  0
   -3.9150    3.3350  -26.4820 C   0  0  0  0  0  0
    5.9090    2.7640  -21.3750 C   0  0  0  0  0  0
    5.7270    2.8920  -23.9230 C   0  0  0  0  0  0
   -4.9080    3.4310  -25.6030 C   0  0  0  0  0  0
    1.9350    3.3870  -23.8800 C   0  0  0  0  0  0
    1.1030    4.4850  -23.5730 C   0  0  0  0  0  0
    2.8950    5.7090  -22.9280 C   0  0  0  0  0  0
    3.3370    3.5990  -23.5910 C   0  0  0  0  0  0
    1.3940    2.2590  -24.5270 C   0  0  0  0  0  0
   -0.7430    3.0420  -24.3850 C   0  0  0  0  0  0
   -0.2240    4.2730  -23.8000 C   0  0  0  0  0  0
   -2.2020    3.0260  -24.7150 C   0  0  0  0  0  0
    3.9830    1.1110  -23.2970 C   0  0  0  0  0  0
    4.9400    0.7740  -22.1650 C   0  0  2  0  0  0
    6.5020    2.3350  -22.7350 C   0  0  2  0  0  0
    4.9280    1.7810  -21.0020 C   0  0  0  0  0  0
   -2.5530    3.1740  -26.1380 C   0  0  0  0  0  0
   -1.7260    2.4460  -21.7750 C   0  0  0  0  0  0
   -0.6830    2.1160  -21.2850 C   0  0  0  0  0  0
   -1.0750    5.3080  -23.4470 F   0  0  0  0  0  0
   -3.8900    2.7120  -20.2120 F   0  0  0  0  0  0
    1.5720    5.6530  -23.0540 N   0  0  0  0  0  0
    3.8010    4.7580  -23.1590 N   0  0  0  0  0  0
    0.0840    2.1490  -24.8100 N   0  0  0  0  0  0
    4.2670    2.5630  -23.7780 N   0  0  0  0  0  0
    6.3380    0.8590  -22.6710 N   0  0  1  0  0  0
   -4.1110    3.3400  -27.8690 O   0  0  0  0  0  0
   -6.1646    3.2342  -21.1735 H   0  0  0  0  0  0
   -6.6876    3.5356  -23.5571 H   0  0  0  0  0  0
    5.4226    3.7448  -21.4820 H   0  0  0  0  0  0
    6.7080    2.7902  -20.6194 H   0  0  0  0  0  0
    6.1118    2.4486  -24.8532 H   0  0  0  0  0  0
    5.8532    3.9840  -23.9634 H   0  0  0  0  0  0
   -5.9263    3.5996  -25.9341 H   0  0  0  0  0  0
    2.0393    1.4370  -24.8150 H   0  0  0  0  0  0
    2.9467    1.0414  -22.9347 H   0  0  0  0  0  0
    4.1414    0.4119  -24.1313 H   0  0  0  0  0  0
    4.7372   -0.2391  -21.7876 H   0  0  0  0  0  0
    7.5659    2.6065  -22.8006 H   0  0  0  0  0  0
    3.9385    2.2581  -20.9445 H   0  0  0  0  0  0
    5.2501    1.2762  -20.0792 H   0  0  0  0  0  0
   -1.7956    3.1610  -26.9134 H   0  0  0  0  0  0
    0.2357    1.8251  -20.8531 H   0  0  0  0  0  0
    7.0040    0.3737  -21.9729 H   0  0  0  0  0  0
   -3.2722    3.2619  -28.3082 H   0  0  0  0  0  0
    4.1500   10.2200  -20.8740 O   0  0  0  0  0  0
    4.7160    6.8810  -21.6850 N   0  0  1  0  0  0
    3.6130    8.4750  -19.5430 N   0  0  0  0  0  0
    5.3570    8.1380  -21.1380 C   0  0  0  0  0  0
    7.7000    7.4250  -20.9290 C   0  0  0  0  0  0
    7.5660    8.1990  -22.2540 C   0  0  0  0  0  0
    3.4430    7.0580  -22.4760 C   0  0  0  0  0  0
    6.1790    8.8680  -22.2220 C   0  0  0  0  0  0
    6.4520    7.7900  -20.1100 C   0  0  0  0  0  0
    4.3220    9.0630  -20.5180 C   0  0  0  0  0  0
    5.4069    6.3841  -22.3499 H   0  0  0  0  0  0
    3.7989    7.5245  -19.2941 H   0  0  0  0  0  0
    2.8992    8.9869  -19.0651 H   0  0  0  0  0  0
    8.5995    7.7662  -20.3957 H   0  0  0  0  0  0
    7.6980    6.3446  -21.1359 H   0  0  0  0  0  0
    7.6120    7.4929  -23.0962 H   0  0  0  0  0  0
    8.3450    8.9740  -22.3040 H   0  0  0  0  0  0
    3.6441    7.6862  -23.3563 H   0  0  0  0  0  0
    2.6932    7.5678  -21.8532 H   0  0  0  0  0  0
    6.2900    9.9270  -21.9460 H   0  0  0  0  0  0
    5.6891    8.7420  -23.1988 H   0  0  0  0  0  0
    6.1352    6.9177  -19.5195 H   0  0  0  0  0  0
    6.6671    8.6733  -19.4908 H   0  0  0  0  0  0
  1  2  2  0  0  0
  1  3  1  0  0  0
  1 34  1  0  0  0
  2  6  1  0  0  0
  2 35  1  0  0  0
  3  5  2  0  0  0
  3 27  1  0  0  0
  4  5  1  0  0  0
  4  6  2  0  0  0
  4 18  1  0  0  0
  5 24  1  0  0  0
  6 10  1  0  0  0
  7 10  2  0  0  0
  7 23  1  0  0  0
  7 33  1  0  0  0
  8 21  1  0  0  0
  8 22  1  0  0  0
  8 36  1  0  0  0
  8 37  1  0  0  0
  9 21  1  0  0  0
  9 31  1  0  0  0
  9 38  1  0  0  0
  9 39  1  0  0  0
 10 40  1  0  0  0
 11 12  1  0  0  0
 11 14  2  0  0  0
 11 15  1  0  0  0
 12 17  1  0  0  0
 12 28  2  0  0  0
 13 28  1  0  0  0
 13 29  2  0  0  0
 13 58  1  0  0  0
 14 29  1  0  0  0
 14 31  1  0  0  0
 15 30  2  0  0  0
 15 41  1  0  0  0
 16 17  2  0  0  0
 16 18  1  0  0  0
 16 30  1  0  0  0
 17 26  1  0  0  0
 18 23  2  0  0  0
 19 20  1  0  0  0
 19 31  1  0  0  0
 19 42  1  0  0  0
 19 43  1  0  0  0
 20 22  1  0  0  0
 20 32  1  0  0  0
 20 44  1  0  0  0
 21 32  1  0  0  0
 21 45  1  0  0  0
 22 46  1  0  0  0
 22 47  1  0  0  0
 23 48  1  0  0  0
 24 25  3  0  0  0
 25 49  1  0  0  0
 32 50  1  0  0  0
 33 51  1  0  0  0
 52 61  2  0  0  0
 53 55  1  0  0  0
 53 58  1  0  0  0
 53 62  1  0  0  0
 54 61  1  0  0  0
 54 63  1  0  0  0
 54 64  1  0  0  0
 55 59  1  0  0  0
 55 60  1  0  0  0
 55 61  1  0  0  0
 56 57  1  0  0  0
 56 60  1  0  0  0
 56 65  1  0  0  0
 56 66  1  0  0  0
 57 59  1  0  0  0
 57 67  1  0  0  0
 57 68  1  0  0  0
 58 69  1  0  0  0
 58 70  1  0  0  0
 59 71  1  0  0  0
 59 72  1  0  0  0
 60 73  1  0  0  0
 60 74  1  0  0  0
M  END
> <s_m_entry_id>
203

> <s_m_entry_name>
000000203.1

> <s_m_Source_Path>
/Users/zaksoul/Documents/2

> <s_m_Source_File>
000000203.mol2

> <i_m_Source_File_Index>
1

$$$$
No_0_214
                    3D
 Schrodinger Suite 2022-4.
 74 80  0  0  1  0            999 V2000
   -5.5130    3.3390  -22.2220 C   0  0  0  0  0  0
   -5.7150    3.5380  -23.5670 C   0  0  0  0  0  0
   -4.2910    3.0930  -21.8230 C   0  0  0  0  0  0
   -3.2950    3.2460  -23.9410 C   0  0  0  0  0  0
   -3.2030    2.9900  -22.5160 C   0  0  0  0  0  0
   -4.6180    3.5020  -24.5250 C   0  0  0  0  0  0
   -3.7560    3.5490  -26.6830 C   0  0  0  0  0  0
    5.7090    2.8460  -20.9520 C   0  0  0  0  0  0
    5.6940    3.0100  -23.5040 C   0  0  0  0  0  0
   -4.8040    3.6390  -25.8700 C   0  0  0  0  0  0
    1.9110    3.5280  -23.7030 C   0  0  0  0  0  0
    1.0670    4.6270  -23.4350 C   0  0  0  0  0  0
    2.8190    5.8310  -22.6570 C   0  0  0  0  0  0
    3.2920    3.7270  -23.3190 C   0  0  0  0  0  0
    1.4070    2.4120  -24.4000 C   0  0  0  0  0  0
   -0.7300    3.2080  -24.3870 C   0  0  0  0  0  0
   -0.2440    4.4270  -23.7520 C   0  0  0  0  0  0
   -2.1640    3.2050  -24.8120 C   0  0  0  0  0  0
    3.9040    1.2310  -23.0190 C   0  0  0  0  0  0
    4.7830    0.8730  -21.8310 C   0  0  2  0  0  0
    6.3870    2.4310  -22.2760 C   0  0  2  0  0  0
    4.6990    1.8630  -20.6580 C   0  0  0  0  0  0
   -2.4200    3.3750  -26.2530 C   0  0  0  0  0  0
   -1.8860    2.5820  -21.8560 C   0  0  0  0  0  0
   -0.8780    2.2380  -21.3030 C   0  0  0  0  0  0
   -1.1100    5.4620  -23.4410 F   0  0  0  0  0  0
   -4.1470    2.8400  -20.4340 F   0  0  0  0  0  0
    1.5070    5.7850  -22.8710 N   0  0  0  0  0  0
    3.7330    4.8770  -22.8410 N   0  0  0  0  0  0
    0.1180    2.3150  -24.7700 N   0  0  0  0  0  0
    4.2270    2.6880  -23.4600 N   0  0  0  0  0  0
    6.2110    0.9550  -22.2430 N   0  0  1  0  0  0
   -3.8600    3.5750  -28.0800 O   0  0  0  0  0  0
   -6.3503    3.3892  -21.5353 H   0  0  0  0  0  0
   -6.7137    3.7277  -23.9434 H   0  0  0  0  0  0
    5.2356    3.8311  -21.0762 H   0  0  0  0  0  0
    6.4559    2.8551  -20.1445 H   0  0  0  0  0  0
    6.1373    2.5768  -24.4128 H   0  0  0  0  0  0
    5.8293    4.1015  -23.5202 H   0  0  0  0  0  0
   -5.7974    3.8196  -26.2644 H   0  0  0  0  0  0
    2.0658    1.5905  -24.6571 H   0  0  0  0  0  0
    2.8458    1.1634  -22.7264 H   0  0  0  0  0  0
    4.1129    0.5418  -23.8505 H   0  0  0  0  0  0
    4.5490   -0.1439  -21.4830 H   0  0  0  0  0  0
    7.4542    2.6973  -22.2679 H   0  0  0  0  0  0
    3.7109    2.3464  -20.6590 H   0  0  0  0  0  0
    4.9584    1.3442  -19.7234 H   0  0  0  0  0  0
   -1.6139    3.3680  -26.9778 H   0  0  0  0  0  0
    0.0085    1.9348  -20.8157 H   0  0  0  0  0  0
    6.8275    0.4562  -21.5098 H   0  0  0  0  0  0
   -2.9946    3.4978  -28.4642 H   0  0  0  0  0  0
    4.0950   10.2060  -20.3410 O   0  0  0  0  0  0
    4.7400    7.0230  -21.5990 N   0  0  1  0  0  0
    3.9090    8.2990  -19.1430 N   0  0  0  0  0  0
    5.3780    8.2700  -21.0240 C   0  0  0  0  0  0
    7.7650    7.7400  -21.2740 C   0  0  0  0  0  0
    7.3590    8.6270  -22.4650 C   0  0  0  0  0  0
    3.3440    7.1700  -22.1510 C   0  0  0  0  0  0
    5.9550    9.1710  -22.1380 C   0  0  0  0  0  0
    6.6510    7.9150  -20.2300 C   0  0  0  0  0  0
    4.4020    9.0390  -20.1470 C   0  0  0  0  0  0
    5.3412    6.6549  -22.4172 H   0  0  0  0  0  0
    4.1971    7.3475  -19.0349 H   0  0  0  0  0  0
    3.2524    8.6988  -18.5034 H   0  0  0  0  0  0
    8.7165    8.1018  -20.8572 H   0  0  0  0  0  0
    7.8010    6.6891  -21.5970 H   0  0  0  0  0  0
    7.3100    8.0144  -23.3773 H   0  0  0  0  0  0
    8.0645    9.4664  -22.5529 H   0  0  0  0  0  0
    3.3510    7.8967  -22.9767 H   0  0  0  0  0  0
    2.6773    7.5508  -21.3633 H   0  0  0  0  0  0
    6.0400   10.2030  -21.7670 H   0  0  0  0  0  0
    5.3180    9.1000  -23.0320 H   0  0  0  0  0  0
    6.4970    6.9651  -19.6971 H   0  0  0  0  0  0
    6.9070    8.7481  -19.5589 H   0  0  0  0  0  0
  1  2  2  0  0  0
  1  3  1  0  0  0
  1 34  1  0  0  0
  2  6  1  0  0  0
  2 35  1  0  0  0
  3  5  2  0  0  0
  3 27  1  0  0  0
  4  5  1  0  0  0
  4  6  2  0  0  0
  4 18  1  0  0  0
  5 24  1  0  0  0
  6 10  1  0  0  0
  7 10  2  0  0  0
  7 23  1  0  0  0
  7 33  1  0  0  0
  8 21  1  0  0  0
  8 22  1  0  0  0
  8 36  1  0  0  0
  8 37  1  0  0  0
  9 21  1  0  0  0
  9 31  1  0  0  0
  9 38  1  0  0  0
  9 39  1  0  0  0
 10 40  1  0  0  0
 11 12  1  0  0  0
 11 14  2  0  0  0
 11 15  1  0  0  0
 12 17  1  0  0  0
 12 28  2  0  0  0
 13 28  1  0  0  0
 13 29  2  0  0  0
 13 58  1  0  0  0
 14 29  1  0  0  0
 14 31  1  0  0  0
 15 30  2  0  0  0
 15 41  1  0  0  0
 16 17  2  0  0  0
 16 18  1  0  0  0
 16 30  1  0  0  0
 17 26  1  0  0  0
 18 23  2  0  0  0
 19 20  1  0  0  0
 19 31  1  0  0  0
 19 42  1  0  0  0
 19 43  1  0  0  0
 20 22  1  0  0  0
 20 32  1  0  0  0
 20 44  1  0  0  0
 21 32  1  0  0  0
 21 45  1  0  0  0
 22 46  1  0  0  0
 22 47  1  0  0  0
 23 48  1  0  0  0
 24 25  3  0  0  0
 25 49  1  0  0  0
 32 50  1  0  0  0
 33 51  1  0  0  0
 52 61  2  0  0  0
 53 55  1  0  0  0
 53 58  1  0  0  0
 53 62  1  0  0  0
 54 61  1  0  0  0
 54 63  1  0  0  0
 54 64  1  0  0  0
 55 59  1  0  0  0
 55 60  1  0  0  0
 55 61  1  0  0  0
 56 57  1  0  0  0
 56 60  1  0  0  0
 56 65  1  0  0  0
 56 66  1  0  0  0
 57 59  1  0  0  0
 57 67  1  0  0  0
 57 68  1  0  0  0
 58 69  1  0  0  0
 58 70  1  0  0  0
 59 71  1  0  0  0
 59 72  1  0  0  0
 60 73  1  0  0  0
 60 74  1  0  0  0
M  END
> <s_m_entry_id>
204

> <s_m_entry_name>
000000204.1

> <s_m_Source_Path>
/Users/zaksoul/Documents/2

> <s_m_Source_File>
000000204.mol2

> <i_m_Source_File_Index>
1

$$$$
No_0_215
                    3D
 Schrodinger Suite 2022-4.
 74 80  0  0  1  0            999 V2000
   -5.4850    3.2600  -21.7890 C   0  0  0  0  0  0
   -5.7470    3.4550  -23.1250 C   0  0  0  0  0  0
   -4.2440    3.0280  -21.4440 C   0  0  0  0  0  0
   -3.3430    3.1890  -23.6040 C   0  0  0  0  0  0
   -3.1860    2.9360  -22.1840 C   0  0  0  0  0  0
   -4.6930    3.4300  -24.1300 C   0  0  0  0  0  0
   -3.9270    3.4850  -26.3240 C   0  0  0  0  0  0
    5.7870    2.8900  -21.0120 C   0  0  0  0  0  0
    5.6590    3.0510  -23.5600 C   0  0  0  0  0  0
   -4.9400    3.5640  -25.4650 C   0  0  0  0  0  0
    1.8650    3.5280  -23.5940 C   0  0  0  0  0  0
    1.0210    4.6180  -23.2900 C   0  0  0  0  0  0
    2.7930    5.8420  -22.5910 C   0  0  0  0  0  0
    3.2590    3.7420  -23.2710 C   0  0  0  0  0  0
    1.3430    2.4060  -24.2670 C   0  0  0  0  0  0
   -0.8000    3.1780  -24.1610 C   0  0  0  0  0  0
   -0.3000    4.4030  -23.5500 C   0  0  0  0  0  0
   -2.2510    3.1600  -24.5240 C   0  0  0  0  0  0
    3.9110    1.2540  -22.9970 C   0  0  0  0  0  0
    4.8450    0.9060  -21.8480 C   0  0  2  0  0  0
    6.4110    2.4810  -22.3630 C   0  0  2  0  0  0
    4.8020    1.8970  -20.6730 C   0  0  0  0  0  0
   -2.5720    3.3250  -25.9520 C   0  0  0  0  0  0
   -1.8370    2.5430  -21.5820 C   0  0  0  0  0  0
   -0.8030    2.2100  -21.0730 C   0  0  0  0  0  0
   -1.1630    5.4290  -23.2010 F   0  0  0  0  0  0
   -4.0360    2.7780  -20.0630 F   0  0  0  0  0  0
    1.4730    5.7810  -22.7460 N   0  0  0  0  0  0
    3.7080    4.8980  -22.8140 N   0  0  0  0  0  0
    0.0400    2.2940  -24.5800 N   0  0  0  0  0  0
    4.1980    2.7130  -23.4520 N   0  0  0  0  0  0
    6.2520    1.0040  -22.3220 N   0  0  1  0  0  0
   -4.0930    3.5080  -27.7140 O   0  0  0  0  0  0
   -6.2915    3.3022  -21.0659 H   0  0  0  0  0  0
   -6.7633    3.6336  -23.4571 H   0  0  0  0  0  0
    5.2977    3.8697  -21.1159 H   0  0  0  0  0  0
    6.5682    2.9092  -20.2378 H   0  0  0  0  0  0
    6.0667    2.6222  -24.4873 H   0  0  0  0  0  0
    5.7811    4.1440  -23.5832 H   0  0  0  0  0  0
   -5.9519    3.7326  -25.8153 H   0  0  0  0  0  0
    1.9995    1.5919  -24.5521 H   0  0  0  0  0  0
    2.8675    1.1753  -22.6579 H   0  0  0  0  0  0
    4.0906    0.5660  -23.8363 H   0  0  0  0  0  0
    4.6381   -0.1132  -21.4897 H   0  0  0  0  0  0
    7.4747    2.7585  -22.4024 H   0  0  0  0  0  0
    3.8094    2.3691  -20.6306 H   0  0  0  0  0  0
    5.1068    1.3812  -19.7505 H   0  0  0  0  0  0
   -1.7980    3.3260  -26.7109 H   0  0  0  0  0  0
    0.1081    1.9180  -20.6260 H   0  0  0  0  0  0
    6.9052    0.5122  -21.6164 H   0  0  0  0  0  0
   -3.2444    3.4388  -28.1353 H   0  0  0  0  0  0
    4.2920   10.1410  -20.2640 O   0  0  0  0  0  0
    4.8260    7.1490  -21.9650 N   0  0  1  0  0  0
    4.5980    8.1390  -19.2610 N   0  0  0  0  0  0
    5.4920    8.4090  -21.4570 C   0  0  0  0  0  0
    7.7550    8.1570  -22.3850 C   0  0  0  0  0  0
    6.9660    9.0830  -23.3290 C   0  0  0  0  0  0
    3.3240    7.1870  -22.1080 C   0  0  0  0  0  0
    5.6660    9.4480  -22.5870 C   0  0  0  0  0  0
    6.9590    8.1330  -21.0700 C   0  0  0  0  0  0
    4.7350    9.0010  -20.2790 C   0  0  0  0  0  0
    5.2078    6.9091  -22.9464 H   0  0  0  0  0  0
    4.9823    7.2184  -19.3300 H   0  0  0  0  0  0
    4.1123    8.4178  -18.4325 H   0  0  0  0  0  0
    8.7510    8.5860  -22.2010 H   0  0  0  0  0  0
    7.7870    7.1434  -22.8112 H   0  0  0  0  0  0
    6.7191    8.5392  -24.2527 H   0  0  0  0  0  0
    7.5486    9.9974  -23.5149 H   0  0  0  0  0  0
    3.0451    7.9707  -22.8277 H   0  0  0  0  0  0
    2.8700    7.4340  -21.1370 H   0  0  0  0  0  0
    5.7640   10.4522  -22.1489 H   0  0  0  0  0  0
    4.8161    9.3780  -23.2819 H   0  0  0  0  0  0
    7.0350    7.1345  -20.6148 H   0  0  0  0  0  0
    7.3199    8.9358  -20.4102 H   0  0  0  0  0  0
  1  2  2  0  0  0
  1  3  1  0  0  0
  1 34  1  0  0  0
  2  6  1  0  0  0
  2 35  1  0  0  0
  3  5  2  0  0  0
  3 27  1  0  0  0
  4  5  1  0  0  0
  4  6  2  0  0  0
  4 18  1  0  0  0
  5 24  1  0  0  0
  6 10  1  0  0  0
  7 10  2  0  0  0
  7 23  1  0  0  0
  7 33  1  0  0  0
  8 21  1  0  0  0
  8 22  1  0  0  0
  8 36  1  0  0  0
  8 37  1  0  0  0
  9 21  1  0  0  0
  9 31  1  0  0  0
  9 38  1  0  0  0
  9 39  1  0  0  0
 10 40  1  0  0  0
 11 12  1  0  0  0
 11 14  2  0  0  0
 11 15  1  0  0  0
 12 17  1  0  0  0
 12 28  2  0  0  0
 13 28  1  0  0  0
 13 29  2  0  0  0
 13 58  1  0  0  0
 14 29  1  0  0  0
 14 31  1  0  0  0
 15 30  2  0  0  0
 15 41  1  0  0  0
 16 17  2  0  0  0
 16 18  1  0  0  0
 16 30  1  0  0  0
 17 26  1  0  0  0
 18 23  2  0  0  0
 19 20  1  0  0  0
 19 31  1  0  0  0
 19 42  1  0  0  0
 19 43  1  0  0  0
 20 22  1  0  0  0
 20 32  1  0  0  0
 20 44  1  0  0  0
 21 32  1  0  0  0
 21 45  1  0  0  0
 22 46  1  0  0  0
 22 47  1  0  0  0
 23 48  1  0  0  0
 24 25  3  0  0  0
 25 49  1  0  0  0
 32 50  1  0  0  0
 33 51  1  0  0  0
 52 61  2  0  0  0
 53 55  1  0  0  0
 53 58  1  0  0  0
 53 62  1  0  0  0
 54 61  1  0  0  0
 54 63  1  0  0  0
 54 64  1  0  0  0
 55 59  1  0  0  0
 55 60  1  0  0  0
 55 61  1  0  0  0
 56 57  1  0  0  0
 56 60  1  0  0  0
 56 65  1  0  0  0
 56 66  1  0  0  0
 57 59  1  0  0  0
 57 67  1  0  0  0
 57 68  1  0  0  0
 58 69  1  0  0  0
 58 70  1  0  0  0
 59 71  1  0  0  0
 59 72  1  0  0  0
 60 73  1  0  0  0
 60 74  1  0  0  0
M  END
> <s_m_entry_id>
205

> <s_m_entry_name>
000000205.1

> <s_m_Source_Path>
/Users/zaksoul/Documents/2

> <s_m_Source_File>
000000205.mol2

> <i_m_Source_File_Index>
1

$$$$
No_0_216
                    3D
 Schrodinger Suite 2022-4.
 69 75  0  0  1  0            999 V2000
   -5.1860    3.2810  -21.9760 C   0  0  0  0  0  0
   -5.4380    3.4750  -23.3140 C   0  0  0  0  0  0
   -3.9440    3.0720  -21.6180 C   0  0  0  0  0  0
   -3.0240    3.2580  -23.7670 C   0  0  0  0  0  0
   -2.8770    3.0040  -22.3470 C   0  0  0  0  0  0
   -4.3730    3.4740  -24.3070 C   0  0  0  0  0  0
   -3.5840    3.5510  -26.4920 C   0  0  0  0  0  0
    6.0810    3.1350  -21.0770 C   0  0  0  0  0  0
    5.9780    3.3020  -23.6270 C   0  0  0  0  0  0
   -4.6080    3.6080  -25.6450 C   0  0  0  0  0  0
    2.1750    3.7020  -23.7000 C   0  0  0  0  0  0
    1.3070    4.7740  -23.4020 C   0  0  0  0  0  0
    3.0460    6.0310  -22.6800 C   0  0  0  0  0  0
    3.5620    3.9440  -23.3620 C   0  0  0  0  0  0
    1.6840    2.5720  -24.3820 C   0  0  0  0  0  0
   -0.4750    3.3010  -24.2980 C   0  0  0  0  0  0
   -0.0060    4.5340  -23.6760 C   0  0  0  0  0  0
   -1.9220    3.2540  -24.6750 C   0  0  0  0  0  0
    4.2600    1.4680  -23.0880 C   0  0  0  0  0  0
    5.1890    1.1350  -21.9300 C   0  0  2  0  0  0
    6.7280    2.7430  -22.4230 C   0  0  2  0  0  0
    5.1130    2.1220  -20.7520 C   0  0  0  0  0  0
   -2.2300    3.4180  -26.1070 C   0  0  0  0  0  0
   -1.5270    2.6360  -21.7310 C   0  0  0  0  0  0
   -0.4920    2.3230  -21.2130 C   0  0  0  0  0  0
   -0.8940    5.5410  -23.3340 F   0  0  0  0  0  0
   -3.7460    2.8220  -20.2350 F   0  0  0  0  0  0
    1.7300    5.9450  -22.8500 N   0  0  0  0  0  0
    3.9830    5.1070  -22.8960 N   0  0  0  0  0  0
    0.3870    2.4360  -24.7100 N   0  0  0  0  0  0
    4.5230    2.9340  -23.5360 N   0  0  0  0  0  0
    6.5990    1.2630  -22.3890 N   0  0  1  0  0  0
   -3.7350    3.5760  -27.8850 O   0  0  0  0  0  0
   -6.0014    3.3041  -21.2621 H   0  0  0  0  0  0
   -6.4542    3.6337  -23.6564 H   0  0  0  0  0  0
    5.5745    4.1056  -21.1839 H   0  0  0  0  0  0
    6.8539    3.1673  -20.2950 H   0  0  0  0  0  0
    6.4041    2.8840  -24.5509 H   0  0  0  0  0  0
    6.0789    4.3972  -23.6452 H   0  0  0  0  0  0
   -5.6193    3.7576  -26.0055 H   0  0  0  0  0  0
    2.3595    1.7721  -24.6630 H   0  0  0  0  0  0
    3.2150    1.3670  -22.7598 H   0  0  0  0  0  0
    4.4628    0.7869  -23.9276 H   0  0  0  0  0  0
    4.9981    0.1110  -21.5765 H   0  0  0  0  0  0
    7.7861    3.0426  -22.4502 H   0  0  0  0  0  0
    4.1104    2.5733  -20.7197 H   0  0  0  0  0  0
    5.4189    1.6091  -19.8282 H   0  0  0  0  0  0
   -1.4482    3.4371  -26.8577 H   0  0  0  0  0  0
    0.4193    2.0472  -20.7563 H   0  0  0  0  0  0
    7.2542    0.7831  -21.6771 H   0  0  0  0  0  0
   -2.8808    3.5255  -28.2977 H   0  0  0  0  0  0
    5.0880    9.5460  -23.6600 O   0  5  0  0  0  0
    5.5940   10.9870  -21.9630 O   0  0  0  0  0  0
    5.0440    7.3660  -22.0320 N   0  0  1  0  0  0
    6.8130    8.6580  -19.9220 N   0  3  0  0  0  0
    7.1940    8.4560  -21.3130 C   0  0  0  0  0  0
    5.3840    8.9130  -20.0410 C   0  0  0  0  0  0
    5.4320    9.8150  -22.4560 C   0  0  0  0  0  0
    5.6750    8.6400  -21.5380 C   0  0  0  0  0  0
    3.5450    7.3850  -22.1870 C   0  0  0  0  0  0
    5.4420    7.1190  -23.0051 H   0  0  0  0  0  0
    7.2691    9.4851  -19.5699 H   0  0  0  0  0  0
    6.9540    7.8000  -19.4120 H   0  0  0  0  0  0
    7.3909    7.3794  -21.4230 H   0  0  0  0  0  0
    7.6678    9.3937  -21.6389 H   0  0  0  0  0  0
    5.2600   10.0020  -19.9480 H   0  0  0  0  0  0
    4.8800    8.0130  -19.6590 H   0  0  0  0  0  0
    3.2621    8.1646  -22.9096 H   0  0  0  0  0  0
    3.0791    7.6180  -21.2182 H   0  0  0  0  0  0
  1  2  2  0  0  0
  1  3  1  0  0  0
  1 34  1  0  0  0
  2  6  1  0  0  0
  2 35  1  0  0  0
  3  5  2  0  0  0
  3 27  1  0  0  0
  4  5  1  0  0  0
  4  6  2  0  0  0
  4 18  1  0  0  0
  5 24  1  0  0  0
  6 10  1  0  0  0
  7 10  2  0  0  0
  7 23  1  0  0  0
  7 33  1  0  0  0
  8 21  1  0  0  0
  8 22  1  0  0  0
  8 36  1  0  0  0
  8 37  1  0  0  0
  9 21  1  0  0  0
  9 31  1  0  0  0
  9 38  1  0  0  0
  9 39  1  0  0  0
 10 40  1  0  0  0
 11 12  1  0  0  0
 11 14  2  0  0  0
 11 15  1  0  0  0
 12 17  1  0  0  0
 12 28  2  0  0  0
 13 28  1  0  0  0
 13 29  2  0  0  0
 13 60  1  0  0  0
 14 29  1  0  0  0
 14 31  1  0  0  0
 15 30  2  0  0  0
 15 41  1  0  0  0
 16 17  2  0  0  0
 16 18  1  0  0  0
 16 30  1  0  0  0
 17 26  1  0  0  0
 18 23  2  0  0  0
 19 20  1  0  0  0
 19 31  1  0  0  0
 19 42  1  0  0  0
 19 43  1  0  0  0
 20 22  1  0  0  0
 20 32  1  0  0  0
 20 44  1  0  0  0
 21 32  1  0  0  0
 21 45  1  0  0  0
 22 46  1  0  0  0
 22 47  1  0  0  0
 23 48  1  0  0  0
 24 25  3  0  0  0
 25 49  1  0  0  0
 32 50  1  0  0  0
 33 51  1  0  0  0
 52 58  1  0  0  0
 53 58  2  0  0  0
 54 59  1  0  0  0
 54 60  1  0  0  0
 54 61  1  0  0  0
 55 56  1  0  0  0
 55 57  1  0  0  0
 55 62  1  0  0  0
 55 63  1  0  0  0
 56 59  1  0  0  0
 56 64  1  0  0  0
 56 65  1  0  0  0
 57 59  1  0  0  0
 57 66  1  0  0  0
 57 67  1  0  0  0
 58 59  1  0  0  0
 60 68  1  0  0  0
 60 69  1  0  0  0
M  CHG  2  52  -1  55   1
M  END
> <s_m_entry_id>
206

> <s_m_entry_name>
000000206.1

> <s_m_Source_Path>
/Users/zaksoul/Documents/2

> <s_m_Source_File>
000000206.mol2

> <i_m_Source_File_Index>
1

$$$$
No_0_217
                    3D
 Schrodinger Suite 2022-4.
 69 75  0  0  1  0            999 V2000
   -5.2380    3.2500  -22.0100 C   0  0  0  0  0  0
   -5.4820    3.4840  -23.3420 C   0  0  0  0  0  0
   -3.9980    3.0350  -21.6500 C   0  0  0  0  0  0
   -3.0650    3.2910  -23.7860 C   0  0  0  0  0  0
   -2.9250    2.9930  -22.3730 C   0  0  0  0  0  0
   -4.4100    3.5180  -24.3280 C   0  0  0  0  0  0
   -3.6080    3.6660  -26.5050 C   0  0  0  0  0  0
    6.0240    3.1200  -21.0400 C   0  0  0  0  0  0
    5.9360    3.3650  -23.5840 C   0  0  0  0  0  0
   -4.6370    3.6920  -25.6630 C   0  0  0  0  0  0
    2.1330    3.7520  -23.6700 C   0  0  0  0  0  0
    1.2580    4.8110  -23.3450 C   0  0  0  0  0  0
    2.9870    6.0520  -22.5720 C   0  0  0  0  0  0
    3.5160    3.9890  -23.3150 C   0  0  0  0  0  0
    1.6500    2.6420  -24.3900 C   0  0  0  0  0  0
   -0.5120    3.3600  -24.2980 C   0  0  0  0  0  0
   -0.0520    4.5740  -23.6360 C   0  0  0  0  0  0
   -1.9560    3.3190  -24.6860 C   0  0  0  0  0  0
    4.2230    1.5090  -23.1130 C   0  0  0  0  0  0
    5.1450    1.1440  -21.9600 C   0  0  2  0  0  0
    6.6810    2.7720  -22.3930 C   0  0  2  0  0  0
    5.0570    2.0930  -20.7530 C   0  0  0  0  0  0
   -2.2560    3.5260  -26.1140 C   0  0  0  0  0  0
   -1.5780    2.6120  -21.7600 C   0  0  0  0  0  0
   -0.5450    2.2870  -21.2440 C   0  0  0  0  0  0
   -0.9460    5.5670  -23.2680 F   0  0  0  0  0  0
   -3.8080    2.7430  -20.2740 F   0  0  0  0  0  0
    1.6720    5.9660  -22.7540 N   0  0  0  0  0  0
    3.9290    5.1390  -22.8110 N   0  0  0  0  0  0
    0.3560    2.5110  -24.7310 N   0  0  0  0  0  0
    4.4820    2.9890  -23.5140 N   0  0  0  0  0  0
    6.5580    1.2910  -22.4050 N   0  0  1  0  0  0
   -3.7500    3.7330  -27.8960 O   0  0  0  0  0  0
   -6.0577    3.2480  -21.3007 H   0  0  0  0  0  0
   -6.4965    3.6496  -23.6862 H   0  0  0  0  0  0
    5.5133    4.0910  -21.1197 H   0  0  0  0  0  0
    6.7911    3.1311  -20.2517 H   0  0  0  0  0  0
    6.3700    2.9775  -24.5175 H   0  0  0  0  0  0
    6.0328    4.4606  -23.5679 H   0  0  0  0  0  0
   -5.6465    3.8487  -26.0256 H   0  0  0  0  0  0
    2.3307    1.8539  -24.6912 H   0  0  0  0  0  0
    3.1763    1.3930  -22.7954 H   0  0  0  0  0  0
    4.4338    0.8543  -23.9715 H   0  0  0  0  0  0
    4.9563    0.1086  -21.6401 H   0  0  0  0  0  0
    7.7382    3.0756  -22.4031 H   0  0  0  0  0  0
    4.0524    2.5393  -20.7126 H   0  0  0  0  0  0
    5.3586    1.5533  -19.8432 H   0  0  0  0  0  0
   -1.4694    3.5712  -26.8585 H   0  0  0  0  0  0
    0.3644    2.0009  -20.7898 H   0  0  0  0  0  0
    7.2106    0.7914  -21.7043 H   0  0  0  0  0  0
   -2.8931    3.6984  -28.3047 H   0  0  0  0  0  0
    4.4710    9.8430  -23.5270 O   0  5  0  0  0  0
    5.2350   11.1440  -21.8140 O   0  0  0  0  0  0
    4.9690    7.5130  -22.2120 N   0  0  1  0  0  0
    7.0650    8.7550  -20.3920 N   0  3  0  0  0  0
    7.1350    8.7400  -21.8460 C   0  0  0  0  0  0
    5.6310    8.8720  -20.1650 C   0  0  0  0  0  0
    5.0580   10.0200  -22.4020 C   0  0  0  0  0  0
    5.5950    8.7880  -21.7120 C   0  0  0  0  0  0
    3.4770    7.3930  -22.0350 C   0  0  0  0  0  0
    5.1540    7.4120  -23.2712 H   0  0  0  0  0  0
    7.5229    9.5837  -20.0461 H   0  0  0  0  0  0
    7.3852    7.8685  -20.0348 H   0  0  0  0  0  0
    7.3850    7.7069  -22.1290 H   0  0  0  0  0  0
    7.4470    9.7510  -22.1470 H   0  0  0  0  0  0
    5.4470    9.9268  -19.9130 H   0  0  0  0  0  0
    5.2991    7.8892  -19.7991 H   0  0  0  0  0  0
    2.9769    8.2091  -22.5771 H   0  0  0  0  0  0
    3.2270    7.4730  -20.9668 H   0  0  0  0  0  0
  1  2  2  0  0  0
  1  3  1  0  0  0
  1 34  1  0  0  0
  2  6  1  0  0  0
  2 35  1  0  0  0
  3  5  2  0  0  0
  3 27  1  0  0  0
  4  5  1  0  0  0
  4  6  2  0  0  0
  4 18  1  0  0  0
  5 24  1  0  0  0
  6 10  1  0  0  0
  7 10  2  0  0  0
  7 23  1  0  0  0
  7 33  1  0  0  0
  8 21  1  0  0  0
  8 22  1  0  0  0
  8 36  1  0  0  0
  8 37  1  0  0  0
  9 21  1  0  0  0
  9 31  1  0  0  0
  9 38  1  0  0  0
  9 39  1  0  0  0
 10 40  1  0  0  0
 11 12  1  0  0  0
 11 14  2  0  0  0
 11 15  1  0  0  0
 12 17  1  0  0  0
 12 28  2  0  0  0
 13 28  1  0  0  0
 13 29  2  0  0  0
 13 60  1  0  0  0
 14 29  1  0  0  0
 14 31  1  0  0  0
 15 30  2  0  0  0
 15 41  1  0  0  0
 16 17  2  0  0  0
 16 18  1  0  0  0
 16 30  1  0  0  0
 17 26  1  0  0  0
 18 23  2  0  0  0
 19 20  1  0  0  0
 19 31  1  0  0  0
 19 42  1  0  0  0
 19 43  1  0  0  0
 20 22  1  0  0  0
 20 32  1  0  0  0
 20 44  1  0  0  0
 21 32  1  0  0  0
 21 45  1  0  0  0
 22 46  1  0  0  0
 22 47  1  0  0  0
 23 48  1  0  0  0
 24 25  3  0  0  0
 25 49  1  0  0  0
 32 50  1  0  0  0
 33 51  1  0  0  0
 52 58  1  0  0  0
 53 58  2  0  0  0
 54 59  1  0  0  0
 54 60  1  0  0  0
 54 61  1  0  0  0
 55 56  1  0  0  0
 55 57  1  0  0  0
 55 62  1  0  0  0
 55 63  1  0  0  0
 56 59  1  0  0  0
 56 64  1  0  0  0
 56 65  1  0  0  0
 57 59  1  0  0  0
 57 66  1  0  0  0
 57 67  1  0  0  0
 58 59  1  0  0  0
 60 68  1  0  0  0
 60 69  1  0  0  0
M  CHG  2  52  -1  55   1
M  END
> <s_m_entry_id>
207

> <s_m_entry_name>
000000207.1

> <s_m_Source_Path>
/Users/zaksoul/Documents/2

> <s_m_Source_File>
000000207.mol2

> <i_m_Source_File_Index>
1

$$$$
No_0_218
                    3D
 Schrodinger Suite 2022-4.
 69 75  0  0  1  0            999 V2000
   -5.3900    3.2730  -21.9430 C   0  0  0  0  0  0
   -5.6160    3.5140  -23.2770 C   0  0  0  0  0  0
   -4.1590    3.0280  -21.5710 C   0  0  0  0  0  0
   -3.1990    3.2640  -23.6980 C   0  0  0  0  0  0
   -3.0810    2.9620  -22.2850 C   0  0  0  0  0  0
   -4.5340    3.5240  -24.2530 C   0  0  0  0  0  0
   -3.7080    3.6550  -26.4220 C   0  0  0  0  0  0
    5.8560    2.8720  -20.8680 C   0  0  0  0  0  0
    5.7980    3.1220  -23.4120 C   0  0  0  0  0  0
   -4.7440    3.7040  -25.5890 C   0  0  0  0  0  0
    2.0060    3.6000  -23.5340 C   0  0  0  0  0  0
    1.1540    4.6800  -23.2150 C   0  0  0  0  0  0
    2.9050    5.8780  -22.4250 C   0  0  0  0  0  0
    3.3910    3.8030  -23.1660 C   0  0  0  0  0  0
    1.5040    2.5030  -24.2600 C   0  0  0  0  0  0
   -0.6420    3.2720  -24.1860 C   0  0  0  0  0  0
   -0.1590    4.4750  -23.5180 C   0  0  0  0  0  0
   -2.0820    3.2670  -24.5890 C   0  0  0  0  0  0
    4.0360    1.3070  -22.9600 C   0  0  0  0  0  0
    4.9390    0.9190  -21.7990 C   0  0  2  0  0  0
    6.5180    2.5100  -22.2160 C   0  0  2  0  0  0
    4.8630    1.8680  -20.5910 C   0  0  0  0  0  0
   -2.3630    3.4820  -26.0190 C   0  0  0  0  0  0
   -1.7490    2.5470  -21.6600 C   0  0  0  0  0  0
   -0.7290    2.1970  -21.1350 C   0  0  0  0  0  0
   -1.0320    5.4880  -23.1580 F   0  0  0  0  0  0
   -3.9890    2.7300  -20.1950 F   0  0  0  0  0  0
    1.5900    5.8230  -22.6190 N   0  0  0  0  0  0
    3.8270    4.9420  -22.6560 N   0  0  0  0  0  0
    0.2100    2.4030  -24.6120 N   0  0  0  0  0  0
    4.3350    2.7810  -23.3560 N   0  0  0  0  0  0
    6.3590    1.0320  -22.2310 N   0  0  1  0  0  0
   -3.8350    3.7260  -27.8140 O   0  0  0  0  0  0
   -6.2161    3.2901  -21.2414 H   0  0  0  0  0  0
   -6.6229    3.7047  -23.6304 H   0  0  0  0  0  0
    5.3695    3.8550  -20.9518 H   0  0  0  0  0  0
    6.6159    2.8639  -20.0727 H   0  0  0  0  0  0
    6.2316    2.7247  -24.3416 H   0  0  0  0  0  0
    5.9211    4.2149  -23.3938 H   0  0  0  0  0  0
   -5.7457    3.8857  -25.9614 H   0  0  0  0  0  0
    2.1685    1.6990  -24.5551 H   0  0  0  0  0  0
    2.9839    1.2161  -22.6520 H   0  0  0  0  0  0
    4.2397    0.6485  -23.8172 H   0  0  0  0  0  0
    4.7221   -0.1119  -21.4823 H   0  0  0  0  0  0
    7.5821    2.7887  -22.2150 H   0  0  0  0  0  0
    3.8691    2.3382  -20.5597 H   0  0  0  0  0  0
    5.1428    1.3205  -19.6789 H   0  0  0  0  0  0
   -1.5687    3.5091  -26.7561 H   0  0  0  0  0  0
    0.1694    1.8892  -20.6733 H   0  0  0  0  0  0
    6.9929    0.5168  -21.5245 H   0  0  0  0  0  0
   -2.9753    3.6716  -28.2146 H   0  0  0  0  0  0
    3.3580    9.9760  -23.1220 O   0  5  0  0  0  0
    4.6450   11.1640  -21.6580 O   0  0  0  0  0  0
    4.6560    7.6340  -22.6350 N   0  0  1  0  0  0
    7.1800    9.0090  -21.6400 N   0  3  0  0  0  0
    6.5990    9.1980  -22.9620 C   0  0  0  0  0  0
    5.9920    8.8150  -20.8200 C   0  0  0  0  0  0
    4.3570   10.1140  -22.3330 C   0  0  0  0  0  0
    5.2840    8.9290  -22.1940 C   0  0  0  0  0  0
    3.4220    7.2060  -21.8820 C   0  0  0  0  0  0
    4.3619    7.7100  -23.6714 H   0  0  0  0  0  0
    7.6432    9.8583  -21.3569 H   0  0  0  0  0  0
    7.7257    8.1615  -21.6370 H   0  0  0  0  0  0
    6.8170    8.2791  -23.5260 H   0  0  0  0  0  0
    6.6240   10.2807  -23.1549 H   0  0  0  0  0  0
    5.8170    9.7717  -20.3061 H   0  0  0  0  0  0
    5.9750    7.7473  -20.5561 H   0  0  0  0  0  0
    2.6419    7.9741  -21.9890 H   0  0  0  0  0  0
    3.6638    7.0951  -20.8147 H   0  0  0  0  0  0
  1  2  2  0  0  0
  1  3  1  0  0  0
  1 34  1  0  0  0
  2  6  1  0  0  0
  2 35  1  0  0  0
  3  5  2  0  0  0
  3 27  1  0  0  0
  4  5  1  0  0  0
  4  6  2  0  0  0
  4 18  1  0  0  0
  5 24  1  0  0  0
  6 10  1  0  0  0
  7 10  2  0  0  0
  7 23  1  0  0  0
  7 33  1  0  0  0
  8 21  1  0  0  0
  8 22  1  0  0  0
  8 36  1  0  0  0
  8 37  1  0  0  0
  9 21  1  0  0  0
  9 31  1  0  0  0
  9 38  1  0  0  0
  9 39  1  0  0  0
 10 40  1  0  0  0
 11 12  1  0  0  0
 11 14  2  0  0  0
 11 15  1  0  0  0
 12 17  1  0  0  0
 12 28  2  0  0  0
 13 28  1  0  0  0
 13 29  2  0  0  0
 13 60  1  0  0  0
 14 29  1  0  0  0
 14 31  1  0  0  0
 15 30  2  0  0  0
 15 41  1  0  0  0
 16 17  2  0  0  0
 16 18  1  0  0  0
 16 30  1  0  0  0
 17 26  1  0  0  0
 18 23  2  0  0  0
 19 20  1  0  0  0
 19 31  1  0  0  0
 19 42  1  0  0  0
 19 43  1  0  0  0
 20 22  1  0  0  0
 20 32  1  0  0  0
 20 44  1  0  0  0
 21 32  1  0  0  0
 21 45  1  0  0  0
 22 46  1  0  0  0
 22 47  1  0  0  0
 23 48  1  0  0  0
 24 25  3  0  0  0
 25 49  1  0  0  0
 32 50  1  0  0  0
 33 51  1  0  0  0
 52 58  1  0  0  0
 53 58  2  0  0  0
 54 59  1  0  0  0
 54 60  1  0  0  0
 54 61  1  0  0  0
 55 56  1  0  0  0
 55 57  1  0  0  0
 55 62  1  0  0  0
 55 63  1  0  0  0
 56 59  1  0  0  0
 56 64  1  0  0  0
 56 65  1  0  0  0
 57 59  1  0  0  0
 57 66  1  0  0  0
 57 67  1  0  0  0
 58 59  1  0  0  0
 60 68  1  0  0  0
 60 69  1  0  0  0
M  CHG  2  52  -1  55   1
M  END
> <s_m_entry_id>
208

> <s_m_entry_name>
000000208.1

> <s_m_Source_Path>
/Users/zaksoul/Documents/2

> <s_m_Source_File>
000000208.mol2

> <i_m_Source_File_Index>
1

$$$$
No_0_219
                    3D
 Schrodinger Suite 2022-4.
 69 75  0  0  1  0            999 V2000
   -5.2820    3.3920  -22.3110 C   0  0  0  0  0  0
   -5.5340    3.5130  -23.6570 C   0  0  0  0  0  0
   -4.0430    3.1810  -21.9430 C   0  0  0  0  0  0
   -3.1260    3.2260  -24.1010 C   0  0  0  0  0  0
   -2.9790    3.0510  -22.6690 C   0  0  0  0  0  0
   -4.4720    3.4350  -24.6510 C   0  0  0  0  0  0
   -3.6890    3.3710  -26.8380 C   0  0  0  0  0  0
    5.9830    3.0890  -21.4250 C   0  0  0  0  0  0
    5.8750    3.1100  -23.9800 C   0  0  0  0  0  0
   -4.7080    3.4950  -25.9930 C   0  0  0  0  0  0
    2.0810    3.5760  -24.0690 C   0  0  0  0  0  0
    1.2330    4.6800  -23.8320 C   0  0  0  0  0  0
    2.9970    5.9440  -23.1870 C   0  0  0  0  0  0
    3.4730    3.8110  -23.7480 C   0  0  0  0  0  0
    1.5670    2.4180  -24.6840 C   0  0  0  0  0  0
   -0.5780    3.1900  -24.6380 C   0  0  0  0  0  0
   -0.0850    4.4480  -24.0900 C   0  0  0  0  0  0
   -2.0260    3.1490  -25.0100 C   0  0  0  0  0  0
    4.1260    1.3430  -23.3330 C   0  0  0  0  0  0
    5.0520    1.0610  -22.1600 C   0  0  2  0  0  0
    6.6190    2.6080  -22.7480 C   0  0  2  0  0  0
    4.9970    2.1140  -21.0410 C   0  0  0  0  0  0
   -2.3360    3.2350  -26.4480 C   0  0  0  0  0  0
   -1.6350    2.6950  -22.0360 C   0  0  0  0  0  0
   -0.6040    2.3930  -21.5020 C   0  0  0  0  0  0
   -0.9530    5.4900  -23.8050 F   0  0  0  0  0  0
   -3.8460    3.0070  -20.5490 F   0  0  0  0  0  0
    1.6790    5.8720  -23.3490 N   0  0  0  0  0  0
    3.9160    4.9910  -23.3510 N   0  0  0  0  0  0
    0.2660    2.2870  -25.0010 N   0  0  0  0  0  0
    4.4150    2.7760  -23.8650 N   0  0  0  0  0  0
    6.4630    1.1350  -22.6270 N   0  0  1  0  0  0
   -3.8430    3.3180  -28.2290 O   0  0  0  0  0  0
   -6.0945    3.4712  -21.5978 H   0  0  0  0  0  0
   -6.5480    3.6706  -24.0064 H   0  0  0  0  0  0
    5.4936    4.0608  -21.5865 H   0  0  0  0  0  0
    6.7591    3.1516  -20.6479 H   0  0  0  0  0  0
    6.2907    2.6317  -24.8791 H   0  0  0  0  0  0
    5.9960    4.2003  -24.0617 H   0  0  0  0  0  0
   -5.7172    3.6425  -26.3602 H   0  0  0  0  0  0
    2.2266    1.5908  -24.9199 H   0  0  0  0  0  0
    3.0802    1.2804  -22.9979 H   0  0  0  0  0  0
    4.3136    0.6106  -24.1320 H   0  0  0  0  0  0
    4.8433    0.0628  -21.7476 H   0  0  0  0  0  0
    7.6825    2.8855  -22.7934 H   0  0  0  0  0  0
    4.0033    2.5856  -21.0319 H   0  0  0  0  0  0
    5.2958    1.6507  -20.0891 H   0  0  0  0  0  0
   -1.5560    3.1969  -27.1998 H   0  0  0  0  0  0
    0.3032    2.1272  -21.0314 H   0  0  0  0  0  0
    7.1113    0.6846  -21.8899 H   0  0  0  0  0  0
   -2.9910    3.2289  -28.6397 H   0  0  0  0  0  0
    5.7420    9.7110  -21.4510 O   0  0  0  0  0  0
    3.4840    7.4580  -21.2710 N   0  3  0  0  0  0
    4.2280    8.6070  -20.6280 C   0  0  0  0  0  0
    3.5220    7.3150  -22.7750 C   0  0  0  0  0  0
    4.3320    9.9380  -21.4140 C   0  0  0  0  0  0
    5.7670    8.4850  -20.7180 C   0  0  0  0  0  0
    3.7770    8.8340  -19.1740 C   0  0  0  0  0  0
    2.5231    7.4760  -20.9670 H   0  0  0  0  0  0
    3.7868    6.5935  -20.8503 H   0  0  0  0  0  0
    4.5576    7.4320  -23.1269 H   0  0  0  0  0  0
    2.9006    8.0985  -23.2333 H   0  0  0  0  0  0
    3.9468    9.7469  -22.4265 H   0  0  0  0  0  0
    4.1541   10.7525  -20.6964 H   0  0  0  0  0  0
    6.1687    8.7138  -19.7198 H   0  0  0  0  0  0
    5.9879    7.6822  -21.4368 H   0  0  0  0  0  0
    4.3391    9.6751  -18.7420 H   0  0  0  0  0  0
    2.7015    9.0641  -19.1540 H   0  0  0  0  0  0
    3.9679    7.9253  -18.5842 H   0  0  0  0  0  0
  1  2  2  0  0  0
  1  3  1  0  0  0
  1 34  1  0  0  0
  2  6  1  0  0  0
  2 35  1  0  0  0
  3  5  2  0  0  0
  3 27  1  0  0  0
  4  5  1  0  0  0
  4  6  2  0  0  0
  4 18  1  0  0  0
  5 24  1  0  0  0
  6 10  1  0  0  0
  7 10  2  0  0  0
  7 23  1  0  0  0
  7 33  1  0  0  0
  8 21  1  0  0  0
  8 22  1  0  0  0
  8 36  1  0  0  0
  8 37  1  0  0  0
  9 21  1  0  0  0
  9 31  1  0  0  0
  9 38  1  0  0  0
  9 39  1  0  0  0
 10 40  1  0  0  0
 11 12  1  0  0  0
 11 14  2  0  0  0
 11 15  1  0  0  0
 12 17  1  0  0  0
 12 28  2  0  0  0
 13 28  1  0  0  0
 13 29  2  0  0  0
 13 55  1  0  0  0
 14 29  1  0  0  0
 14 31  1  0  0  0
 15 30  2  0  0  0
 15 41  1  0  0  0
 16 17  2  0  0  0
 16 18  1  0  0  0
 16 30  1  0  0  0
 17 26  1  0  0  0
 18 23  2  0  0  0
 19 20  1  0  0  0
 19 31  1  0  0  0
 19 42  1  0  0  0
 19 43  1  0  0  0
 20 22  1  0  0  0
 20 32  1  0  0  0
 20 44  1  0  0  0
 21 32  1  0  0  0
 21 45  1  0  0  0
 22 46  1  0  0  0
 22 47  1  0  0  0
 23 48  1  0  0  0
 24 25  3  0  0  0
 25 49  1  0  0  0
 32 50  1  0  0  0
 33 51  1  0  0  0
 52 56  1  0  0  0
 52 57  1  0  0  0
 53 54  1  0  0  0
 53 55  1  0  0  0
 53 59  1  0  0  0
 53 60  1  0  0  0
 54 56  1  0  0  0
 54 57  1  0  0  0
 54 58  1  0  0  0
 55 61  1  0  0  0
 55 62  1  0  0  0
 56 63  1  0  0  0
 56 64  1  0  0  0
 57 65  1  0  0  0
 57 66  1  0  0  0
 58 67  1  0  0  0
 58 68  1  0  0  0
 58 69  1  0  0  0
M  CHG  1  53   1
M  END
> <s_m_entry_id>
209

> <s_m_entry_name>
000000209.1

> <s_m_Source_Path>
/Users/zaksoul/Documents/2

> <s_m_Source_File>
000000209.mol2

> <i_m_Source_File_Index>
1

$$$$
No_0_220
                    3D
 Schrodinger Suite 2022-4.
 69 75  0  0  1  0            999 V2000
   -5.4870    3.4120  -21.9720 C   0  0  0  0  0  0
   -5.7410    3.5720  -23.3140 C   0  0  0  0  0  0
   -4.2530    3.1590  -21.6150 C   0  0  0  0  0  0
   -3.3430    3.2320  -23.7760 C   0  0  0  0  0  0
   -3.1950    3.0180  -22.3490 C   0  0  0  0  0  0
   -4.6840    3.4910  -24.3140 C   0  0  0  0  0  0
   -3.9110    3.4600  -26.5050 C   0  0  0  0  0  0
    5.7690    2.7870  -21.1420 C   0  0  0  0  0  0
    5.6530    2.8730  -23.6950 C   0  0  0  0  0  0
   -4.9240    3.5900  -25.6540 C   0  0  0  0  0  0
    1.8720    3.4420  -23.7570 C   0  0  0  0  0  0
    1.0550    4.5620  -23.4890 C   0  0  0  0  0  0
    2.8540    5.7620  -22.8210 C   0  0  0  0  0  0
    3.2710    3.6320  -23.4360 C   0  0  0  0  0  0
    1.3250    2.3140  -24.3980 C   0  0  0  0  0  0
   -0.7990    3.1420  -24.3240 C   0  0  0  0  0  0
   -0.2700    4.3720  -23.7470 C   0  0  0  0  0  0
   -2.2490    3.1480  -24.6900 C   0  0  0  0  0  0
    3.8590    1.1380  -23.0840 C   0  0  0  0  0  0
    4.7810    0.8020  -21.9220 C   0  0  2  0  0  0
    6.3870    2.3220  -22.4790 C   0  0  2  0  0  0
    4.7590    1.8290  -20.7770 C   0  0  0  0  0  0
   -2.5610    3.2780  -26.1240 C   0  0  0  0  0  0
   -1.8590    2.6110  -21.7300 C   0  0  0  0  0  0
   -0.8340    2.2680  -21.2080 C   0  0  0  0  0  0
   -1.1080    5.4290  -23.4330 F   0  0  0  0  0  0
   -4.0560    2.9460  -20.2270 F   0  0  0  0  0  0
    1.5340    5.7300  -22.9790 N   0  0  0  0  0  0
    3.7470    4.7900  -23.0120 N   0  0  0  0  0  0
    0.0200    2.2250  -24.7120 N   0  0  0  0  0  0
    4.1840    2.5750  -23.5820 N   0  0  0  0  0  0
    6.1920    0.8510  -22.3940 N   0  0  1  0  0  0
   -4.0720    3.4450  -27.8970 O   0  0  0  0  0  0
   -6.2946    3.4954  -21.2538 H   0  0  0  0  0  0
   -6.7514    3.7658  -23.6555 H   0  0  0  0  0  0
    5.3056    3.7754  -21.2773 H   0  0  0  0  0  0
    6.5492    2.8092  -20.3669 H   0  0  0  0  0  0
    6.0527    2.4066  -24.6075 H   0  0  0  0  0  0
    5.8023    3.9614  -23.7515 H   0  0  0  0  0  0
   -5.9303    3.7738  -26.0125 H   0  0  0  0  0  0
    1.9617    1.4755  -24.6561 H   0  0  0  0  0  0
    2.8132    1.0946  -22.7458 H   0  0  0  0  0  0
    4.0245    0.4206  -23.9013 H   0  0  0  0  0  0
    4.5478   -0.2003  -21.5334 H   0  0  0  0  0  0
    7.4575    2.5712  -22.5224 H   0  0  0  0  0  0
    3.7782    2.3265  -20.7528 H   0  0  0  0  0  0
    5.0487    1.3344  -19.8382 H   0  0  0  0  0  0
   -1.7851    3.2368  -26.8798 H   0  0  0  0  0  0
    0.0675    1.9668  -20.7478 H   0  0  0  0  0  0
    6.8303    0.3645  -21.6713 H   0  0  0  0  0  0
   -3.2240    3.3421  -28.3126 H   0  0  0  0  0  0
    5.6000    9.8740  -22.2750 O   0  0  0  0  0  0
    4.6670    6.9050  -21.5520 N   0  3  0  0  0  0
    5.5520    8.0960  -21.2610 C   0  0  0  0  0  0
    3.4180    7.1080  -22.3770 C   0  0  0  0  0  0
    4.8780    9.4830  -21.1060 C   0  0  0  0  0  0
    6.2920    8.6450  -22.5040 C   0  0  0  0  0  0
    6.5380    7.8070  -20.1160 C   0  0  0  0  0  0
    4.4180    6.4590  -20.6830 H   0  0  0  0  0  0
    5.2234    6.1767  -21.9716 H   0  0  0  0  0  0
    3.6590    7.7139  -23.2629 H   0  0  0  0  0  0
    2.6653    7.6408  -21.7773 H   0  0  0  0  0  0
    3.8245    9.3659  -21.4001 H   0  0  0  0  0  0
    5.3558    9.9808  -20.2493 H   0  0  0  0  0  0
    7.3405    8.8049  -22.2122 H   0  0  0  0  0  0
    5.8349    8.1749  -23.3872 H   0  0  0  0  0  0
    7.1616    8.6949  -19.9348 H   0  0  0  0  0  0
    5.9771    7.5611  -19.2022 H   0  0  0  0  0  0
    7.1807    6.9574  -20.3899 H   0  0  0  0  0  0
  1  2  2  0  0  0
  1  3  1  0  0  0
  1 34  1  0  0  0
  2  6  1  0  0  0
  2 35  1  0  0  0
  3  5  2  0  0  0
  3 27  1  0  0  0
  4  5  1  0  0  0
  4  6  2  0  0  0
  4 18  1  0  0  0
  5 24  1  0  0  0
  6 10  1  0  0  0
  7 10  2  0  0  0
  7 23  1  0  0  0
  7 33  1  0  0  0
  8 21  1  0  0  0
  8 22  1  0  0  0
  8 36  1  0  0  0
  8 37  1  0  0  0
  9 21  1  0  0  0
  9 31  1  0  0  0
  9 38  1  0  0  0
  9 39  1  0  0  0
 10 40  1  0  0  0
 11 12  1  0  0  0
 11 14  2  0  0  0
 11 15  1  0  0  0
 12 17  1  0  0  0
 12 28  2  0  0  0
 13 28  1  0  0  0
 13 29  2  0  0  0
 13 55  1  0  0  0
 14 29  1  0  0  0
 14 31  1  0  0  0
 15 30  2  0  0  0
 15 41  1  0  0  0
 16 17  2  0  0  0
 16 18  1  0  0  0
 16 30  1  0  0  0
 17 26  1  0  0  0
 18 23  2  0  0  0
 19 20  1  0  0  0
 19 31  1  0  0  0
 19 42  1  0  0  0
 19 43  1  0  0  0
 20 22  1  0  0  0
 20 32  1  0  0  0
 20 44  1  0  0  0
 21 32  1  0  0  0
 21 45  1  0  0  0
 22 46  1  0  0  0
 22 47  1  0  0  0
 23 48  1  0  0  0
 24 25  3  0  0  0
 25 49  1  0  0  0
 32 50  1  0  0  0
 33 51  1  0  0  0
 52 56  1  0  0  0
 52 57  1  0  0  0
 53 54  1  0  0  0
 53 55  1  0  0  0
 53 59  1  0  0  0
 53 60  1  0  0  0
 54 56  1  0  0  0
 54 57  1  0  0  0
 54 58  1  0  0  0
 55 61  1  0  0  0
 55 62  1  0  0  0
 56 63  1  0  0  0
 56 64  1  0  0  0
 57 65  1  0  0  0
 57 66  1  0  0  0
 58 67  1  0  0  0
 58 68  1  0  0  0
 58 69  1  0  0  0
M  CHG  1  53   1
M  END
> <s_m_entry_id>
210

> <s_m_entry_name>
000000210.1

> <s_m_Source_Path>
/Users/zaksoul/Documents/2

> <s_m_Source_File>
000000210.mol2

> <i_m_Source_File_Index>
1

$$$$
No_0_221
                    3D
 Schrodinger Suite 2022-4.
 69 75  0  0  1  0            999 V2000
   -5.5710    3.4780  -22.0870 C   0  0  0  0  0  0
   -5.7750    3.6790  -23.4320 C   0  0  0  0  0  0
   -4.3490    3.2250  -21.6910 C   0  0  0  0  0  0
   -3.3580    3.3760  -23.8120 C   0  0  0  0  0  0
   -3.2630    3.1180  -22.3880 C   0  0  0  0  0  0
   -4.6810    3.6400  -24.3930 C   0  0  0  0  0  0
   -3.8240    3.6860  -26.5530 C   0  0  0  0  0  0
    5.6510    2.9280  -20.8460 C   0  0  0  0  0  0
    5.6310    3.0960  -23.3980 C   0  0  0  0  0  0
   -4.8700    3.7800  -25.7370 C   0  0  0  0  0  0
    1.8490    3.6320  -23.5860 C   0  0  0  0  0  0
    1.0110    4.7350  -23.3150 C   0  0  0  0  0  0
    2.7720    5.9300  -22.5400 C   0  0  0  0  0  0
    3.2330    3.8240  -23.2060 C   0  0  0  0  0  0
    1.3380    2.5200  -24.2830 C   0  0  0  0  0  0
   -0.7950    3.3260  -24.2640 C   0  0  0  0  0  0
   -0.3010    4.5420  -23.6290 C   0  0  0  0  0  0
   -2.2290    3.3310  -24.6860 C   0  0  0  0  0  0
    3.8330    1.3250  -22.9110 C   0  0  0  0  0  0
    4.7130    0.9610  -21.7260 C   0  0  2  0  0  0
    6.3240    2.5120  -22.1720 C   0  0  2  0  0  0
    4.6370    1.9500  -20.5510 C   0  0  0  0  0  0
   -2.4880    3.5040  -26.1260 C   0  0  0  0  0  0
   -1.9470    2.7030  -21.7310 C   0  0  0  0  0  0
   -0.9400    2.3530  -21.1810 C   0  0  0  0  0  0
   -1.1610    5.5810  -23.3140 F   0  0  0  0  0  0
   -4.2030    2.9690  -20.3040 F   0  0  0  0  0  0
    1.4590    5.8900  -22.7500 N   0  0  0  0  0  0
    3.6810    4.9720  -22.7280 N   0  0  0  0  0  0
    0.0480    2.4300  -24.6500 N   0  0  0  0  0  0
    4.1620    2.7810  -23.3510 N   0  0  0  0  0  0
    6.1410    1.0370  -22.1410 N   0  0  1  0  0  0
   -3.9320    3.7140  -27.9490 O   0  0  0  0  0  0
   -6.4064    3.5312  -21.3982 H   0  0  0  0  0  0
   -6.7738    3.8746  -23.8051 H   0  0  0  0  0  0
    5.1828    3.9159  -20.9681 H   0  0  0  0  0  0
    6.4006    2.9330  -20.0409 H   0  0  0  0  0  0
    6.0701    2.6620  -24.3084 H   0  0  0  0  0  0
    5.7713    4.1869  -23.4131 H   0  0  0  0  0  0
   -5.8637    3.9657  -26.1284 H   0  0  0  0  0  0
    1.9923    1.6961  -24.5439 H   0  0  0  0  0  0
    2.7753    1.2624  -22.6153 H   0  0  0  0  0  0
    4.0368    0.6368  -23.7445 H   0  0  0  0  0  0
    4.4758   -0.0554  -21.3788 H   0  0  0  0  0  0
    7.3927    2.7724  -22.1670 H   0  0  0  0  0  0
    3.6509    2.4375  -20.5490 H   0  0  0  0  0  0
    4.8963    1.4284  -19.6179 H   0  0  0  0  0  0
   -1.6838    3.4950  -26.8528 H   0  0  0  0  0  0
   -0.0533    2.0451  -20.6972 H   0  0  0  0  0  0
    6.7572    0.5342  -21.4103 H   0  0  0  0  0  0
   -3.0678    3.6328  -28.3351 H   0  0  0  0  0  0
    5.0320   10.3370  -22.0850 O   0  0  0  0  0  0
    4.7870    7.1680  -21.7620 N   0  3  0  0  0  0
    5.5750    8.4400  -21.5400 C   0  0  0  0  0  0
    3.3040    7.2660  -22.0330 C   0  0  0  0  0  0
    4.8570    9.6300  -20.8550 C   0  0  0  0  0  0
    5.7210    9.3150  -22.8070 C   0  0  0  0  0  0
    6.9470    8.1560  -20.9050 C   0  0  0  0  0  0
    4.9389    6.5462  -20.9833 H   0  0  0  0  0  0
    5.2218    6.6362  -22.4997 H   0  0  0  0  0  0
    3.1199    8.0443  -22.7883 H   0  0  0  0  0  0
    2.7799    7.5411  -21.1058 H   0  0  0  0  0  0
    3.7913    9.3671  -20.7830 H   0  0  0  0  0  0
    5.5641   10.0610  -20.1309 H   0  0  0  0  0  0
    6.7762    9.6191  -22.8710 H   0  0  0  0  0  0
    5.0200    8.9200  -23.5570 H   0  0  0  0  0  0
    7.4879    9.1028  -20.7600 H   0  0  0  0  0  0
    6.8069    7.6617  -19.9324 H   0  0  0  0  0  0
    7.5297    7.5003  -21.5687 H   0  0  0  0  0  0
  1  2  2  0  0  0
  1  3  1  0  0  0
  1 34  1  0  0  0
  2  6  1  0  0  0
  2 35  1  0  0  0
  3  5  2  0  0  0
  3 27  1  0  0  0
  4  5  1  0  0  0
  4  6  2  0  0  0
  4 18  1  0  0  0
  5 24  1  0  0  0
  6 10  1  0  0  0
  7 10  2  0  0  0
  7 23  1  0  0  0
  7 33  1  0  0  0
  8 21  1  0  0  0
  8 22  1  0  0  0
  8 36  1  0  0  0
  8 37  1  0  0  0
  9 21  1  0  0  0
  9 31  1  0  0  0
  9 38  1  0  0  0
  9 39  1  0  0  0
 10 40  1  0  0  0
 11 12  1  0  0  0
 11 14  2  0  0  0
 11 15  1  0  0  0
 12 17  1  0  0  0
 12 28  2  0  0  0
 13 28  1  0  0  0
 13 29  2  0  0  0
 13 55  1  0  0  0
 14 29  1  0  0  0
 14 31  1  0  0  0
 15 30  2  0  0  0
 15 41  1  0  0  0
 16 17  2  0  0  0
 16 18  1  0  0  0
 16 30  1  0  0  0
 17 26  1  0  0  0
 18 23  2  0  0  0
 19 20  1  0  0  0
 19 31  1  0  0  0
 19 42  1  0  0  0
 19 43  1  0  0  0
 20 22  1  0  0  0
 20 32  1  0  0  0
 20 44  1  0  0  0
 21 32  1  0  0  0
 21 45  1  0  0  0
 22 46  1  0  0  0
 22 47  1  0  0  0
 23 48  1  0  0  0
 24 25  3  0  0  0
 25 49  1  0  0  0
 32 50  1  0  0  0
 33 51  1  0  0  0
 52 56  1  0  0  0
 52 57  1  0  0  0
 53 54  1  0  0  0
 53 55  1  0  0  0
 53 59  1  0  0  0
 53 60  1  0  0  0
 54 56  1  0  0  0
 54 57  1  0  0  0
 54 58  1  0  0  0
 55 61  1  0  0  0
 55 62  1  0  0  0
 56 63  1  0  0  0
 56 64  1  0  0  0
 57 65  1  0  0  0
 57 66  1  0  0  0
 58 67  1  0  0  0
 58 68  1  0  0  0
 58 69  1  0  0  0
M  CHG  1  53   1
M  END
> <s_m_entry_id>
211

> <s_m_entry_name>
000000211.1

> <s_m_Source_Path>
/Users/zaksoul/Documents/2

> <s_m_Source_File>
000000211.mol2

> <i_m_Source_File_Index>
1

$$$$
No_0_222
                    3D
 Schrodinger Suite 2022-4.
 69 75  0  0  1  0            999 V2000
   -5.3300    3.4420  -22.1120 C   0  0  0  0  0  0
   -5.5410    3.6630  -23.4530 C   0  0  0  0  0  0
   -4.1040    3.1990  -21.7240 C   0  0  0  0  0  0
   -3.1220    3.3970  -23.8440 C   0  0  0  0  0  0
   -3.0190    3.1170  -22.4250 C   0  0  0  0  0  0
   -4.4490    3.6530  -24.4170 C   0  0  0  0  0  0
   -3.6000    3.7450  -26.5790 C   0  0  0  0  0  0
    5.9020    3.0160  -20.9120 C   0  0  0  0  0  0
    5.8720    3.2250  -23.4600 C   0  0  0  0  0  0
   -4.6440    3.8120  -25.7580 C   0  0  0  0  0  0
    2.0830    3.7160  -23.6300 C   0  0  0  0  0  0
    1.2320    4.8030  -23.3380 C   0  0  0  0  0  0
    2.9790    6.0070  -22.5490 C   0  0  0  0  0  0
    3.4650    3.9190  -23.2500 C   0  0  0  0  0  0
    1.5840    2.6090  -24.3430 C   0  0  0  0  0  0
   -0.5590    3.3870  -24.3050 C   0  0  0  0  0  0
   -0.0780    4.5980  -23.6520 C   0  0  0  0  0  0
   -1.9950    3.3800  -24.7220 C   0  0  0  0  0  0
    4.0980    1.4240  -22.9980 C   0  0  0  0  0  0
    4.9860    1.0510  -21.8210 C   0  0  2  0  0  0
    6.5760    2.6300  -22.2460 C   0  0  2  0  0  0
    4.9010    2.0210  -20.6300 C   0  0  0  0  0  0
   -2.2610    3.5730  -26.1590 C   0  0  0  0  0  0
   -1.6960    2.7080  -21.7790 C   0  0  0  0  0  0
   -0.6820    2.3620  -21.2380 C   0  0  0  0  0  0
   -0.9510    5.6210  -23.3170 F   0  0  0  0  0  0
   -3.9500    2.9220  -20.3410 F   0  0  0  0  0  0
    1.6670    5.9550  -22.7560 N   0  0  0  0  0  0
    3.9000    5.0650  -22.7540 N   0  0  0  0  0  0
    0.2940    2.5080  -24.7080 N   0  0  0  0  0  0
    4.4070    2.8900  -23.4140 N   0  0  0  0  0  0
    6.4110    1.1520  -22.2390 N   0  0  1  0  0  0
   -3.7120    3.7940  -27.9740 O   0  0  0  0  0  0
   -6.1641    3.4741  -21.4204 H   0  0  0  0  0  0
   -6.5436    3.8517  -23.8193 H   0  0  0  0  0  0
    5.4204    3.9995  -21.0160 H   0  0  0  0  0  0
    6.6531    3.0170  -20.1084 H   0  0  0  0  0  0
    6.3128    2.8114  -24.3790 H   0  0  0  0  0  0
    5.9982    4.3177  -23.4580 H   0  0  0  0  0  0
   -5.6412    3.9916  -26.1432 H   0  0  0  0  0  0
    2.2481    1.7975  -24.6179 H   0  0  0  0  0  0
    3.0425    1.3423  -22.6993 H   0  0  0  0  0  0
    4.3080    0.7506  -23.8420 H   0  0  0  0  0  0
    4.7629    0.0263  -21.4889 H   0  0  0  0  0  0
    7.6412    2.9044  -22.2389 H   0  0  0  0  0  0
    3.9087    2.4955  -20.6169 H   0  0  0  0  0  0
    5.1693    1.4875  -19.7062 H   0  0  0  0  0  0
   -1.4583    3.5860  -26.8874 H   0  0  0  0  0  0
    0.2098    2.0581  -20.7611 H   0  0  0  0  0  0
    7.0355    0.6451  -21.5183 H   0  0  0  0  0  0
   -2.8480    3.7307  -28.3639 H   0  0  0  0  0  0
    4.9490   10.5520  -22.0920 O   0  0  0  0  0  0
    5.0070    7.3580  -22.0340 N   0  3  0  0  0  0
    5.7240    8.6750  -21.8380 C   0  0  0  0  0  0
    3.4960    7.3420  -22.0210 C   0  0  0  0  0  0
    5.0620    9.7370  -20.9250 C   0  0  0  0  0  0
    5.5630    9.6590  -23.0220 C   0  0  0  0  0  0
    7.2100    8.4680  -21.4930 C   0  0  0  0  0  0
    5.3490    6.6930  -21.3580 H   0  0  0  0  0  0
    5.3330    6.9290  -22.8859 H   0  0  0  0  0  0
    3.1151    8.1579  -22.6529 H   0  0  0  0  0  0
    3.1368    7.4931  -20.9923 H   0  0  0  0  0  0
    4.0524    9.3721  -20.6851 H   0  0  0  0  0  0
    5.8584   10.1712  -20.3027 H   0  0  0  0  0  0
    6.5621   10.0610  -23.2460 H   0  0  0  0  0  0
    4.7647    9.2619  -23.6662 H   0  0  0  0  0  0
    7.6950    9.4460  -21.3580 H   0  0  0  0  0  0
    7.2920    7.8873  -20.5624 H   0  0  0  0  0  0
    7.7043    7.9227  -22.3105 H   0  0  0  0  0  0
  1  2  2  0  0  0
  1  3  1  0  0  0
  1 34  1  0  0  0
  2  6  1  0  0  0
  2 35  1  0  0  0
  3  5  2  0  0  0
  3 27  1  0  0  0
  4  5  1  0  0  0
  4  6  2  0  0  0
  4 18  1  0  0  0
  5 24  1  0  0  0
  6 10  1  0  0  0
  7 10  2  0  0  0
  7 23  1  0  0  0
  7 33  1  0  0  0
  8 21  1  0  0  0
  8 22  1  0  0  0
  8 36  1  0  0  0
  8 37  1  0  0  0
  9 21  1  0  0  0
  9 31  1  0  0  0
  9 38  1  0  0  0
  9 39  1  0  0  0
 10 40  1  0  0  0
 11 12  1  0  0  0
 11 14  2  0  0  0
 11 15  1  0  0  0
 12 17  1  0  0  0
 12 28  2  0  0  0
 13 28  1  0  0  0
 13 29  2  0  0  0
 13 55  1  0  0  0
 14 29  1  0  0  0
 14 31  1  0  0  0
 15 30  2  0  0  0
 15 41  1  0  0  0
 16 17  2  0  0  0
 16 18  1  0  0  0
 16 30  1  0  0  0
 17 26  1  0  0  0
 18 23  2  0  0  0
 19 20  1  0  0  0
 19 31  1  0  0  0
 19 42  1  0  0  0
 19 43  1  0  0  0
 20 22  1  0  0  0
 20 32  1  0  0  0
 20 44  1  0  0  0
 21 32  1  0  0  0
 21 45  1  0  0  0
 22 46  1  0  0  0
 22 47  1  0  0  0
 23 48  1  0  0  0
 24 25  3  0  0  0
 25 49  1  0  0  0
 32 50  1  0  0  0
 33 51  1  0  0  0
 52 56  1  0  0  0
 52 57  1  0  0  0
 53 54  1  0  0  0
 53 55  1  0  0  0
 53 59  1  0  0  0
 53 60  1  0  0  0
 54 56  1  0  0  0
 54 57  1  0  0  0
 54 58  1  0  0  0
 55 61  1  0  0  0
 55 62  1  0  0  0
 56 63  1  0  0  0
 56 64  1  0  0  0
 57 65  1  0  0  0
 57 66  1  0  0  0
 58 67  1  0  0  0
 58 68  1  0  0  0
 58 69  1  0  0  0
M  CHG  1  53   1
M  END
> <s_m_entry_id>
212

> <s_m_entry_name>
000000212.1

> <s_m_Source_Path>
/Users/zaksoul/Documents/2

> <s_m_Source_File>
000000212.mol2

> <i_m_Source_File_Index>
1

$$$$
No_0_223
                    3D
 Schrodinger Suite 2022-4.
 67 73  0  0  1  0            999 V2000
   -5.0720    3.4040  -22.2930 C   0  0  0  0  0  0
   -5.3220    3.5780  -23.6340 C   0  0  0  0  0  0
   -3.8320    3.1980  -21.9300 C   0  0  0  0  0  0
   -2.9080    3.3500  -24.0800 C   0  0  0  0  0  0
   -2.7630    3.1170  -22.6560 C   0  0  0  0  0  0
   -4.2550    3.5610  -24.6250 C   0  0  0  0  0  0
   -3.4620    3.6030  -26.8100 C   0  0  0  0  0  0
    6.1930    3.2500  -21.3730 C   0  0  0  0  0  0
    6.0940    3.3790  -23.9250 C   0  0  0  0  0  0
   -4.4870    3.6740  -25.9650 C   0  0  0  0  0  0
    2.2930    3.7850  -24.0110 C   0  0  0  0  0  0
    1.4260    4.8630  -23.7300 C   0  0  0  0  0  0
    3.1660    6.1270  -23.0240 C   0  0  0  0  0  0
    3.6790    4.0290  -23.6740 C   0  0  0  0  0  0
    1.8000    2.6460  -24.6770 C   0  0  0  0  0  0
   -0.3580    3.3800  -24.6070 C   0  0  0  0  0  0
    0.1130    4.6210  -24.0030 C   0  0  0  0  0  0
   -1.8030    3.3300  -24.9860 C   0  0  0  0  0  0
    4.3720    1.5560  -23.3620 C   0  0  0  0  0  0
    5.2980    1.2390  -22.1970 C   0  0  2  0  0  0
    6.8420    2.8370  -22.7120 C   0  0  2  0  0  0
    5.2230    2.2430  -21.0350 C   0  0  0  0  0  0
   -2.1090    3.4730  -26.4200 C   0  0  0  0  0  0
   -1.4150    2.7560  -22.0320 C   0  0  0  0  0  0
   -0.3810    2.4480  -21.5070 C   0  0  0  0  0  0
   -0.7730    5.6350  -23.6780 F   0  0  0  0  0  0
   -3.6360    2.9680  -20.5430 F   0  0  0  0  0  0
    1.8500    6.0410  -23.1950 N   0  0  0  0  0  0
    4.1010    5.1980  -23.2250 N   0  0  0  0  0  0
    0.5040    2.5070  -25.0040 N   0  0  0  0  0  0
    4.6390    3.0150  -23.8310 N   0  0  0  0  0  0
    6.7100    1.3570  -22.6560 N   0  0  1  0  0  0
   -3.6110    3.6070  -28.2030 O   0  0  0  0  0  0
   -5.8880    3.4391  -21.5803 H   0  0  0  0  0  0
   -6.3373    3.7337  -23.9805 H   0  0  0  0  0  0
    5.6880    4.2196  -21.4952 H   0  0  0  0  0  0
    6.9652    3.2924  -20.5907 H   0  0  0  0  0  0
    6.5207    2.9463  -24.8419 H   0  0  0  0  0  0
    6.1970    4.4736  -23.9603 H   0  0  0  0  0  0
   -5.4974    3.8205  -26.3292 H   0  0  0  0  0  0
    2.4743    1.8403  -24.9439 H   0  0  0  0  0  0
    3.3263    1.4621  -23.0339 H   0  0  0  0  0  0
    4.5749    0.8616  -24.1906 H   0  0  0  0  0  0
    5.1052    0.2203  -21.8295 H   0  0  0  0  0  0
    7.9008    3.1337  -22.7413 H   0  0  0  0  0  0
    4.2213    2.6969  -21.0108 H   0  0  0  0  0  0
    5.5257    1.7436  -20.1028 H   0  0  0  0  0  0
   -1.3261    3.4790  -27.1698 H   0  0  0  0  0  0
    0.5293    2.1779  -21.0449 H   0  0  0  0  0  0
    7.3634    0.8864  -21.9363 H   0  0  0  0  0  0
   -2.7561    3.5486  -28.6131 H   0  0  0  0  0  0
    4.3410    9.6650  -20.0170 O   0  0  0  0  0  0
    7.5910    7.9330  -19.8620 O   0  5  0  0  0  0
    7.7530    8.8070  -21.9630 O   0  0  0  0  0  0
    5.0860    7.3750  -22.0440 N   0  0  1  0  0  0
    5.0420    9.8540  -21.2470 C   0  0  0  0  0  0
    4.8380    8.3630  -19.7060 C   0  0  0  0  0  0
    7.0900    8.3830  -20.9520 C   0  0  0  0  0  0
    3.6670    7.4880  -22.5510 C   0  0  0  0  0  0
    5.5810    8.4130  -21.0650 C   0  0  0  0  0  0
    5.2130    6.4310  -21.5350 H   0  0  0  0  0  0
    5.8763   10.5412  -21.0429 H   0  0  0  0  0  0
    4.2951    9.8210  -22.0539 H   0  0  0  0  0  0
    3.9999    7.6599  -19.8210 H   0  0  0  0  0  0
    5.5954    8.4851  -18.9176 H   0  0  0  0  0  0
    3.6320    8.2015  -23.3875 H   0  0  0  0  0  0
    3.0176    7.8572  -21.7435 H   0  0  0  0  0  0
  1  2  2  0  0  0
  1  3  1  0  0  0
  1 34  1  0  0  0
  2  6  1  0  0  0
  2 35  1  0  0  0
  3  5  2  0  0  0
  3 27  1  0  0  0
  4  5  1  0  0  0
  4  6  2  0  0  0
  4 18  1  0  0  0
  5 24  1  0  0  0
  6 10  1  0  0  0
  7 10  2  0  0  0
  7 23  1  0  0  0
  7 33  1  0  0  0
  8 21  1  0  0  0
  8 22  1  0  0  0
  8 36  1  0  0  0
  8 37  1  0  0  0
  9 21  1  0  0  0
  9 31  1  0  0  0
  9 38  1  0  0  0
  9 39  1  0  0  0
 10 40  1  0  0  0
 11 12  1  0  0  0
 11 14  2  0  0  0
 11 15  1  0  0  0
 12 17  1  0  0  0
 12 28  2  0  0  0
 13 28  1  0  0  0
 13 29  2  0  0  0
 13 59  1  0  0  0
 14 29  1  0  0  0
 14 31  1  0  0  0
 15 30  2  0  0  0
 15 41  1  0  0  0
 16 17  2  0  0  0
 16 18  1  0  0  0
 16 30  1  0  0  0
 17 26  1  0  0  0
 18 23  2  0  0  0
 19 20  1  0  0  0
 19 31  1  0  0  0
 19 42  1  0  0  0
 19 43  1  0  0  0
 20 22  1  0  0  0
 20 32  1  0  0  0
 20 44  1  0  0  0
 21 32  1  0  0  0
 21 45  1  0  0  0
 22 46  1  0  0  0
 22 47  1  0  0  0
 23 48  1  0  0  0
 24 25  3  0  0  0
 25 49  1  0  0  0
 32 50  1  0  0  0
 33 51  1  0  0  0
 52 56  1  0  0  0
 52 57  1  0  0  0
 53 58  1  0  0  0
 54 58  2  0  0  0
 55 59  1  0  0  0
 55 60  1  0  0  0
 55 61  1  0  0  0
 56 60  1  0  0  0
 56 62  1  0  0  0
 56 63  1  0  0  0
 57 60  1  0  0  0
 57 64  1  0  0  0
 57 65  1  0  0  0
 58 60  1  0  0  0
 59 66  1  0  0  0
 59 67  1  0  0  0
M  CHG  1  53  -1
M  END
> <s_m_entry_id>
213

> <s_m_entry_name>
000000213.1

> <s_m_Source_Path>
/Users/zaksoul/Documents/2

> <s_m_Source_File>
000000213.mol2

> <i_m_Source_File_Index>
1

$$$$
No_0_224
                    3D
 Schrodinger Suite 2022-4.
 67 73  0  0  1  0            999 V2000
   -5.4400    3.3330  -22.1510 C   0  0  0  0  0  0
   -5.6890    3.5040  -23.4920 C   0  0  0  0  0  0
   -4.2020    3.1130  -21.7890 C   0  0  0  0  0  0
   -3.2790    3.2450  -23.9410 C   0  0  0  0  0  0
   -3.1350    3.0160  -22.5160 C   0  0  0  0  0  0
   -4.6240    3.4690  -24.4850 C   0  0  0  0  0  0
   -3.8340    3.4920  -26.6710 C   0  0  0  0  0  0
    5.8240    3.0440  -21.2440 C   0  0  0  0  0  0
    5.7230    3.1620  -23.7970 C   0  0  0  0  0  0
   -4.8560    3.5800  -25.8260 C   0  0  0  0  0  0
    1.9270    3.6150  -23.8790 C   0  0  0  0  0  0
    1.0740    4.7050  -23.6030 C   0  0  0  0  0  0
    2.8300    5.9510  -22.9040 C   0  0  0  0  0  0
    3.3170    3.8440  -23.5450 C   0  0  0  0  0  0
    1.4190    2.4800  -24.5400 C   0  0  0  0  0  0
   -0.7290    3.2400  -24.4700 C   0  0  0  0  0  0
   -0.2430    4.4780  -23.8730 C   0  0  0  0  0  0
   -2.1760    3.2070  -24.8480 C   0  0  0  0  0  0
    3.9790    1.3640  -23.2230 C   0  0  0  0  0  0
    4.9030    1.0410  -22.0580 C   0  0  2  0  0  0
    6.4650    2.6170  -22.5820 C   0  0  2  0  0  0
    4.8410    2.0510  -20.9000 C   0  0  0  0  0  0
   -2.4820    3.3470  -26.2820 C   0  0  0  0  0  0
   -1.7910    2.6410  -21.8920 C   0  0  0  0  0  0
   -0.7600    2.3230  -21.3670 C   0  0  0  0  0  0
   -1.1160    5.5050  -23.5510 F   0  0  0  0  0  0
   -4.0080    2.8870  -20.4010 F   0  0  0  0  0  0
    1.5130    5.8800  -23.0730 N   0  0  0  0  0  0
    3.7540    5.0090  -23.1020 N   0  0  0  0  0  0
    0.1210    2.3550  -24.8650 N   0  0  0  0  0  0
    4.2630    2.8180  -23.6990 N   0  0  0  0  0  0
    6.3150    1.1390  -22.5190 N   0  0  1  0  0  0
   -3.9840    3.4920  -28.0640 O   0  0  0  0  0  0
   -6.2552    3.3812  -21.4382 H   0  0  0  0  0  0
   -6.7026    3.6706  -23.8382 H   0  0  0  0  0  0
    5.3305    4.0189  -21.3702 H   0  0  0  0  0  0
    6.5973    3.0803  -20.4626 H   0  0  0  0  0  0
    6.1431    2.7207  -24.7129 H   0  0  0  0  0  0
    5.8390    4.2552  -23.8363 H   0  0  0  0  0  0
   -5.8653    3.7365  -26.1892 H   0  0  0  0  0  0
    2.0832    1.6653  -24.8049 H   0  0  0  0  0  0
    2.9324    1.2843  -22.8940 H   0  0  0  0  0  0
    4.1728    0.6635  -24.0487 H   0  0  0  0  0  0
    4.6981    0.0265  -21.6855 H   0  0  0  0  0  0
    7.5274    2.9005  -22.6143 H   0  0  0  0  0  0
    3.8450    2.5172  -20.8768 H   0  0  0  0  0  0
    5.1389    1.5522  -19.9660 H   0  0  0  0  0  0
   -1.7001    3.3400  -27.0328 H   0  0  0  0  0  0
    0.1473    2.0429  -20.9049 H   0  0  0  0  0  0
    6.9632    0.6630  -21.7981 H   0  0  0  0  0  0
   -3.1304    3.4217  -28.4750 H   0  0  0  0  0  0
    4.4710    9.3360  -19.9400 O   0  0  0  0  0  0
    7.7610    7.8540  -20.6900 O   0  5  0  0  0  0
    7.3750    8.8910  -22.6850 O   0  0  0  0  0  0
    4.8500    7.2680  -22.2820 N   0  0  1  0  0  0
    4.8520    9.6690  -21.2760 C   0  0  0  0  0  0
    5.1020    8.0570  -19.8700 C   0  0  0  0  0  0
    6.9930    8.3430  -21.5920 C   0  0  0  0  0  0
    3.3480    7.3080  -22.4380 C   0  0  0  0  0  0
    5.5010    8.2650  -21.3530 C   0  0  0  0  0  0
    5.1479    6.3015  -21.9032 H   0  0  0  0  0  0
    5.6701   10.4011  -21.2070 H   0  0  0  0  0  0
    3.9399    9.6390  -21.8901 H   0  0  0  0  0  0
    4.3021    7.3021  -19.8530 H   0  0  0  0  0  0
    6.0145    8.1781  -19.2677 H   0  0  0  0  0  0
    3.0771    8.0767  -23.1767 H   0  0  0  0  0  0
    2.8858    7.5651  -21.4735 H   0  0  0  0  0  0
  1  2  2  0  0  0
  1  3  1  0  0  0
  1 34  1  0  0  0
  2  6  1  0  0  0
  2 35  1  0  0  0
  3  5  2  0  0  0
  3 27  1  0  0  0
  4  5  1  0  0  0
  4  6  2  0  0  0
  4 18  1  0  0  0
  5 24  1  0  0  0
  6 10  1  0  0  0
  7 10  2  0  0  0
  7 23  1  0  0  0
  7 33  1  0  0  0
  8 21  1  0  0  0
  8 22  1  0  0  0
  8 36  1  0  0  0
  8 37  1  0  0  0
  9 21  1  0  0  0
  9 31  1  0  0  0
  9 38  1  0  0  0
  9 39  1  0  0  0
 10 40  1  0  0  0
 11 12  1  0  0  0
 11 14  2  0  0  0
 11 15  1  0  0  0
 12 17  1  0  0  0
 12 28  2  0  0  0
 13 28  1  0  0  0
 13 29  2  0  0  0
 13 59  1  0  0  0
 14 29  1  0  0  0
 14 31  1  0  0  0
 15 30  2  0  0  0
 15 41  1  0  0  0
 16 17  2  0  0  0
 16 18  1  0  0  0
 16 30  1  0  0  0
 17 26  1  0  0  0
 18 23  2  0  0  0
 19 20  1  0  0  0
 19 31  1  0  0  0
 19 42  1  0  0  0
 19 43  1  0  0  0
 20 22  1  0  0  0
 20 32  1  0  0  0
 20 44  1  0  0  0
 21 32  1  0  0  0
 21 45  1  0  0  0
 22 46  1  0  0  0
 22 47  1  0  0  0
 23 48  1  0  0  0
 24 25  3  0  0  0
 25 49  1  0  0  0
 32 50  1  0  0  0
 33 51  1  0  0  0
 52 56  1  0  0  0
 52 57  1  0  0  0
 53 58  1  0  0  0
 54 58  2  0  0  0
 55 59  1  0  0  0
 55 60  1  0  0  0
 55 61  1  0  0  0
 56 60  1  0  0  0
 56 62  1  0  0  0
 56 63  1  0  0  0
 57 60  1  0  0  0
 57 64  1  0  0  0
 57 65  1  0  0  0
 58 60  1  0  0  0
 59 66  1  0  0  0
 59 67  1  0  0  0
M  CHG  1  53  -1
M  END
> <s_m_entry_id>
214

> <s_m_entry_name>
000000214.1

> <s_m_Source_Path>
/Users/zaksoul/Documents/2

> <s_m_Source_File>
000000214.mol2

> <i_m_Source_File_Index>
1

$$$$
No_0_225
                    3D
 Schrodinger Suite 2022-4.
 67 73  0  0  1  0            999 V2000
   -5.2160    3.5690  -22.0750 C   0  0  0  0  0  0
   -5.4440    3.7420  -23.4200 C   0  0  0  0  0  0
   -3.9860    3.3280  -21.6960 C   0  0  0  0  0  0
   -3.0330    3.4390  -23.8360 C   0  0  0  0  0  0
   -2.9120    3.2100  -22.4090 C   0  0  0  0  0  0
   -4.3670    3.6870  -24.3990 C   0  0  0  0  0  0
   -3.5480    3.6920  -26.5740 C   0  0  0  0  0  0
    6.0290    3.0820  -21.0220 C   0  0  0  0  0  0
    5.9630    3.1980  -23.5760 C   0  0  0  0  0  0
   -4.5800    3.7990  -25.7420 C   0  0  0  0  0  0
    2.1770    3.7180  -23.7090 C   0  0  0  0  0  0
    1.3400    4.8230  -23.4450 C   0  0  0  0  0  0
    3.1090    6.0390  -22.7250 C   0  0  0  0  0  0
    3.5660    3.9220  -23.3570 C   0  0  0  0  0  0
    1.6580    2.5900  -24.3740 C   0  0  0  0  0  0
   -0.4780    3.3890  -24.3330 C   0  0  0  0  0  0
    0.0230    4.6190  -23.7320 C   0  0  0  0  0  0
   -1.9200    3.3810  -24.7300 C   0  0  0  0  0  0
    4.1810    1.4310  -23.0220 C   0  0  0  0  0  0
    5.0830    1.0940  -21.8460 C   0  0  2  0  0  0
    6.6800    2.6410  -22.3510 C   0  0  2  0  0  0
    5.0240    2.1070  -20.6900 C   0  0  0  0  0  0
   -2.2050    3.5240  -26.1680 C   0  0  0  0  0  0
   -1.5830    2.8130  -21.7680 C   0  0  0  0  0  0
   -0.5650    2.4780  -21.2290 C   0  0  0  0  0  0
   -0.8360    5.6610  -23.4220 F   0  0  0  0  0  0
   -3.8140    3.1010  -20.3060 F   0  0  0  0  0  0
    1.7930    5.9910  -22.9110 N   0  0  0  0  0  0
    4.0180    5.0800  -22.9090 N   0  0  0  0  0  0
    0.3610    2.4880  -24.7160 N   0  0  0  0  0  0
    4.4960    2.8790  -23.4970 N   0  0  0  0  0  0
    6.5030    1.1670  -22.2880 N   0  0  1  0  0  0
   -3.6810    3.6920  -27.9690 O   0  0  0  0  0  0
   -6.0395    3.6333  -21.3730 H   0  0  0  0  0  0
   -6.4499    3.9267  -23.7794 H   0  0  0  0  0  0
    5.5545    4.0653  -21.1563 H   0  0  0  0  0  0
    6.7924    3.1052  -20.2303 H   0  0  0  0  0  0
    6.3869    2.7469  -24.4853 H   0  0  0  0  0  0
    6.0992    4.2888  -23.6164 H   0  0  0  0  0  0
   -5.5812    3.9736  -26.1192 H   0  0  0  0  0  0
    2.3105    1.7628  -24.6290 H   0  0  0  0  0  0
    3.1290    1.3705  -22.7063 H   0  0  0  0  0  0
    4.3718    0.7263  -23.8448 H   0  0  0  0  0  0
    4.8550    0.0843  -21.4738 H   0  0  0  0  0  0
    7.7476    2.9054  -22.3702 H   0  0  0  0  0  0
    4.0360    2.5904  -20.6799 H   0  0  0  0  0  0
    5.3015    1.6045  -19.7516 H   0  0  0  0  0  0
   -1.4130    3.5019  -26.9078 H   0  0  0  0  0  0
    0.3312    2.1829  -20.7549 H   0  0  0  0  0  0
    7.1327    0.6805  -21.5578 H   0  0  0  0  0  0
   -2.8236    3.6059  -28.3690 H   0  0  0  0  0  0
    5.4870    9.2210  -20.0500 O   0  0  0  0  0  0
    8.3190    8.3770  -22.2520 O   0  5  0  0  0  0
    7.0720    9.5930  -23.7250 O   0  0  0  0  0  0
    5.0810    7.5600  -22.6920 N   0  0  1  0  0  0
    5.2670    9.7800  -21.3460 C   0  0  0  0  0  0
    6.2060    8.0570  -20.4580 C   0  0  0  0  0  0
    7.2130    8.8550  -22.6880 C   0  0  0  0  0  0
    3.6450    7.3860  -22.2540 C   0  0  0  0  0  0
    5.9560    8.5160  -21.9170 C   0  0  0  0  0  0
    5.5919    6.6101  -22.6370 H   0  0  0  0  0  0
    5.9738   10.6147  -21.4630 H   0  0  0  0  0  0
    4.1921    9.6890  -21.5610 H   0  0  0  0  0  0
    5.5523    7.1914  -20.2751 H   0  0  0  0  0  0
    7.2686    8.2381  -20.2389 H   0  0  0  0  0  0
    3.0322    8.1937  -22.6808 H   0  0  0  0  0  0
    3.5870    7.4410  -21.1569 H   0  0  0  0  0  0
  1  2  2  0  0  0
  1  3  1  0  0  0
  1 34  1  0  0  0
  2  6  1  0  0  0
  2 35  1  0  0  0
  3  5  2  0  0  0
  3 27  1  0  0  0
  4  5  1  0  0  0
  4  6  2  0  0  0
  4 18  1  0  0  0
  5 24  1  0  0  0
  6 10  1  0  0  0
  7 10  2  0  0  0
  7 23  1  0  0  0
  7 33  1  0  0  0
  8 21  1  0  0  0
  8 22  1  0  0  0
  8 36  1  0  0  0
  8 37  1  0  0  0
  9 21  1  0  0  0
  9 31  1  0  0  0
  9 38  1  0  0  0
  9 39  1  0  0  0
 10 40  1  0  0  0
 11 12  1  0  0  0
 11 14  2  0  0  0
 11 15  1  0  0  0
 12 17  1  0  0  0
 12 28  2  0  0  0
 13 28  1  0  0  0
 13 29  2  0  0  0
 13 59  1  0  0  0
 14 29  1  0  0  0
 14 31  1  0  0  0
 15 30  2  0  0  0
 15 41  1  0  0  0
 16 17  2  0  0  0
 16 18  1  0  0  0
 16 30  1  0  0  0
 17 26  1  0  0  0
 18 23  2  0  0  0
 19 20  1  0  0  0
 19 31  1  0  0  0
 19 42  1  0  0  0
 19 43  1  0  0  0
 20 22  1  0  0  0
 20 32  1  0  0  0
 20 44  1  0  0  0
 21 32  1  0  0  0
 21 45  1  0  0  0
 22 46  1  0  0  0
 22 47  1  0  0  0
 23 48  1  0  0  0
 24 25  3  0  0  0
 25 49  1  0  0  0
 32 50  1  0  0  0
 33 51  1  0  0  0
 52 56  1  0  0  0
 52 57  1  0  0  0
 53 58  1  0  0  0
 54 58  2  0  0  0
 55 59  1  0  0  0
 55 60  1  0  0  0
 55 61  1  0  0  0
 56 60  1  0  0  0
 56 62  1  0  0  0
 56 63  1  0  0  0
 57 60  1  0  0  0
 57 64  1  0  0  0
 57 65  1  0  0  0
 58 60  1  0  0  0
 59 66  1  0  0  0
 59 67  1  0  0  0
M  CHG  1  53  -1
M  END
> <s_m_entry_id>
215

> <s_m_entry_name>
000000215.1

> <s_m_Source_Path>
/Users/zaksoul/Documents/2

> <s_m_Source_File>
000000215.mol2

> <i_m_Source_File_Index>
1

$$$$
No_0_226
                    3D
 Schrodinger Suite 2022-4.
 67 73  0  0  1  0            999 V2000
   -5.2680    3.4550  -22.1660 C   0  0  0  0  0  0
   -5.4880    3.6660  -23.5070 C   0  0  0  0  0  0
   -4.0380    3.2230  -21.7830 C   0  0  0  0  0  0
   -3.0690    3.4150  -23.9100 C   0  0  0  0  0  0
   -2.9560    3.1440  -22.4900 C   0  0  0  0  0  0
   -4.4010    3.6580  -24.4770 C   0  0  0  0  0  0
   -3.5640    3.7430  -26.6440 C   0  0  0  0  0  0
    5.9730    3.1140  -21.0250 C   0  0  0  0  0  0
    5.9280    3.3070  -23.5740 C   0  0  0  0  0  0
   -4.6040    3.8080  -25.8180 C   0  0  0  0  0  0
    2.1350    3.7710  -23.7260 C   0  0  0  0  0  0
    1.2780    4.8550  -23.4360 C   0  0  0  0  0  0
    3.0210    6.0750  -22.6640 C   0  0  0  0  0  0
    3.5180    3.9860  -23.3550 C   0  0  0  0  0  0
    1.6400    2.6560  -24.4300 C   0  0  0  0  0  0
   -0.5080    3.4200  -24.3850 C   0  0  0  0  0  0
   -0.0330    4.6380  -23.7410 C   0  0  0  0  0  0
   -1.9460    3.4010  -24.7940 C   0  0  0  0  0  0
    4.1690    1.4970  -23.0910 C   0  0  0  0  0  0
    5.0670    1.1380  -21.9170 C   0  0  2  0  0  0
    6.6430    2.7250  -22.3610 C   0  0  2  0  0  0
    4.9810    2.1140  -20.7310 C   0  0  0  0  0  0
   -2.2210    3.5830  -26.2300 C   0  0  0  0  0  0
   -1.6260    2.7480  -21.8490 C   0  0  0  0  0  0
   -0.6080    2.4130  -21.3110 C   0  0  0  0  0  0
   -0.9110    5.6570  -23.4080 F   0  0  0  0  0  0
   -3.8750    2.9560  -20.3990 F   0  0  0  0  0  0
    1.7080    6.0120  -22.8630 N   0  0  0  0  0  0
    3.9470    5.1380  -22.8690 N   0  0  0  0  0  0
    0.3480    2.5440  -24.7870 N   0  0  0  0  0  0
    4.4660    2.9630  -23.5180 N   0  0  0  0  0  0
    6.4890    1.2470  -22.3430 N   0  0  1  0  0  0
   -3.6840    3.7830  -28.0390 O   0  0  0  0  0  0
   -6.0980    3.4851  -21.4694 H   0  0  0  0  0  0
   -6.4937    3.8457  -23.8693 H   0  0  0  0  0  0
    5.4847    4.0937  -21.1330 H   0  0  0  0  0  0
    6.7288    3.1261  -20.2258 H   0  0  0  0  0  0
    6.3668    2.8914  -24.4931 H   0  0  0  0  0  0
    6.0470    4.4005  -23.5801 H   0  0  0  0  0  0
   -5.6044    3.9776  -26.1993 H   0  0  0  0  0  0
    2.3085    1.8479  -24.7040 H   0  0  0  0  0  0
    3.1153    1.4102  -22.7872 H   0  0  0  0  0  0
    4.3789    0.8207  -23.9328 H   0  0  0  0  0  0
    4.8521    0.1139  -21.5780 H   0  0  0  0  0  0
    7.7063    3.0067  -22.3610 H   0  0  0  0  0  0
    3.9854    2.5815  -20.7159 H   0  0  0  0  0  0
    5.2584    1.5874  -19.8059 H   0  0  0  0  0  0
   -1.4231    3.5971  -26.9636 H   0  0  0  0  0  0
    0.2885    2.1182  -20.8372 H   0  0  0  0  0  0
    7.1205    0.7482  -21.6227 H   0  0  0  0  0  0
   -2.8217    3.7226  -28.4330 H   0  0  0  0  0  0
    5.6570    9.1990  -20.1670 O   0  0  0  0  0  0
    7.9820    8.9210  -23.0130 O   0  5  0  0  0  0
    6.3360   10.1410  -24.0160 O   0  0  0  0  0  0
    4.8110    7.7960  -22.8550 N   0  0  1  0  0  0
    5.1040    9.8660  -21.3030 C   0  0  0  0  0  0
    6.3630    8.1740  -20.8670 C   0  0  0  0  0  0
    6.7700    9.3160  -23.1370 C   0  0  0  0  0  0
    3.5310    7.4170  -22.1470 C   0  0  0  0  0  0
    5.7530    8.7560  -22.1660 C   0  0  0  0  0  0
    5.4014    6.9094  -23.0331 H   0  0  0  0  0  0
    5.6918   10.7828  -21.4580 H   0  0  0  0  0  0
    4.0202    9.6780  -21.2930 H   0  0  0  0  0  0
    5.8452    7.2254  -20.6621 H   0  0  0  0  0  0
    7.4280    8.4490  -20.8570 H   0  0  0  0  0  0
    2.7705    8.1915  -22.3251 H   0  0  0  0  0  0
    3.7179    7.3460  -21.0653 H   0  0  0  0  0  0
  1  2  2  0  0  0
  1  3  1  0  0  0
  1 34  1  0  0  0
  2  6  1  0  0  0
  2 35  1  0  0  0
  3  5  2  0  0  0
  3 27  1  0  0  0
  4  5  1  0  0  0
  4  6  2  0  0  0
  4 18  1  0  0  0
  5 24  1  0  0  0
  6 10  1  0  0  0
  7 10  2  0  0  0
  7 23  1  0  0  0
  7 33  1  0  0  0
  8 21  1  0  0  0
  8 22  1  0  0  0
  8 36  1  0  0  0
  8 37  1  0  0  0
  9 21  1  0  0  0
  9 31  1  0  0  0
  9 38  1  0  0  0
  9 39  1  0  0  0
 10 40  1  0  0  0
 11 12  1  0  0  0
 11 14  2  0  0  0
 11 15  1  0  0  0
 12 17  1  0  0  0
 12 28  2  0  0  0
 13 28  1  0  0  0
 13 29  2  0  0  0
 13 59  1  0  0  0
 14 29  1  0  0  0
 14 31  1  0  0  0
 15 30  2  0  0  0
 15 41  1  0  0  0
 16 17  2  0  0  0
 16 18  1  0  0  0
 16 30  1  0  0  0
 17 26  1  0  0  0
 18 23  2  0  0  0
 19 20  1  0  0  0
 19 31  1  0  0  0
 19 42  1  0  0  0
 19 43  1  0  0  0
 20 22  1  0  0  0
 20 32  1  0  0  0
 20 44  1  0  0  0
 21 32  1  0  0  0
 21 45  1  0  0  0
 22 46  1  0  0  0
 22 47  1  0  0  0
 23 48  1  0  0  0
 24 25  3  0  0  0
 25 49  1  0  0  0
 32 50  1  0  0  0
 33 51  1  0  0  0
 52 56  1  0  0  0
 52 57  1  0  0  0
 53 58  1  0  0  0
 54 58  2  0  0  0
 55 59  1  0  0  0
 55 60  1  0  0  0
 55 61  1  0  0  0
 56 60  1  0  0  0
 56 62  1  0  0  0
 56 63  1  0  0  0
 57 60  1  0  0  0
 57 64  1  0  0  0
 57 65  1  0  0  0
 58 60  1  0  0  0
 59 66  1  0  0  0
 59 67  1  0  0  0
M  CHG  1  53  -1
M  END
> <s_m_entry_id>
216

> <s_m_entry_name>
000000216.1

> <s_m_Source_Path>
/Users/zaksoul/Documents/2

> <s_m_Source_File>
000000216.mol2

> <i_m_Source_File_Index>
1

$$$$
No_0_227
                    3D
 Schrodinger Suite 2022-4.
 72 78  0  0  1  0            999 V2000
   -5.3110    3.3720  -22.2210 C   0  0  0  0  0  0
   -5.5840    3.5140  -23.5610 C   0  0  0  0  0  0
   -4.0670    3.1530  -21.8770 C   0  0  0  0  0  0
   -3.1850    3.2280  -24.0480 C   0  0  0  0  0  0
   -3.0150    3.0310  -22.6210 C   0  0  0  0  0  0
   -4.5380    3.4490  -24.5720 C   0  0  0  0  0  0
   -3.7900    3.4160  -26.7730 C   0  0  0  0  0  0
    5.9660    3.0280  -21.5220 C   0  0  0  0  0  0
    5.8180    3.0870  -24.0740 C   0  0  0  0  0  0
   -4.7960    3.5300  -25.9100 C   0  0  0  0  0  0
    2.0230    3.5640  -24.0950 C   0  0  0  0  0  0
    1.1830    4.6660  -23.8280 C   0  0  0  0  0  0
    2.9600    5.9160  -23.1920 C   0  0  0  0  0  0
    3.4210    3.7910  -23.7930 C   0  0  0  0  0  0
    1.4960    2.4170  -24.7190 C   0  0  0  0  0  0
   -0.6460    3.1940  -24.6260 C   0  0  0  0  0  0
   -0.1400    4.4420  -24.0670 C   0  0  0  0  0  0
   -2.1000    3.1620  -24.9750 C   0  0  0  0  0  0
    4.0740    1.3150  -23.4250 C   0  0  0  0  0  0
    5.0170    1.0130  -22.2710 C   0  0  2  0  0  0
    6.5800    2.5650  -22.8610 C   0  0  2  0  0  0
    4.9840    2.0490  -21.1360 C   0  0  0  0  0  0
   -2.4320    3.2700  -26.4060 C   0  0  0  0  0  0
   -1.6620    2.6620  -22.0150 C   0  0  0  0  0  0
   -0.6230    2.3490  -21.5020 C   0  0  0  0  0  0
   -1.0000    5.4810  -23.7530 F   0  0  0  0  0  0
   -3.8480    2.9580  -20.4880 F   0  0  0  0  0  0
    1.6400    5.8500  -23.3340 N   0  0  0  0  0  0
    3.8740    4.9640  -23.3850 N   0  0  0  0  0  0
    0.1910    2.2940  -25.0160 N   0  0  0  0  0  0
    4.3580    2.7550  -23.9400 N   0  0  0  0  0  0
    6.4210    1.0910  -22.7600 N   0  0  1  0  0  0
   -3.9680    3.3840  -28.1620 O   0  0  0  0  0  0
   -6.1116    3.4432  -21.4936 H   0  0  0  0  0  0
   -6.6032    3.6795  -23.8910 H   0  0  0  0  0  0
    5.4764    4.0033  -21.6603 H   0  0  0  0  0  0
    6.7541    3.0764  -20.7561 H   0  0  0  0  0  0
    6.2179    2.6215  -24.9869 H   0  0  0  0  0  0
    5.9400    4.1781  -24.1416 H   0  0  0  0  0  0
   -5.8108    3.6846  -26.2583 H   0  0  0  0  0  0
    2.1497    1.5916  -24.9770 H   0  0  0  0  0  0
    3.0336    1.2504  -23.0738 H   0  0  0  0  0  0
    4.2465    0.5946  -24.2382 H   0  0  0  0  0  0
    4.8132    0.0090  -21.8704 H   0  0  0  0  0  0
    7.6433    2.8407  -22.9196 H   0  0  0  0  0  0
    3.9920    2.5233  -21.1037 H   0  0  0  0  0  0
    5.2969    1.5705  -20.1962 H   0  0  0  0  0  0
   -1.6648    3.2409  -27.1712 H   0  0  0  0  0  0
    0.2913    2.0739  -21.0509 H   0  0  0  0  0  0
    7.0799    0.6268  -22.0412 H   0  0  0  0  0  0
   -3.1230    3.2979  -28.5875 H   0  0  0  0  0  0
    4.1030    7.2180  -21.3910 N   0  3  0  0  0  0
    6.1340    8.6470  -21.1130 C   0  0  0  0  0  0
    8.2910    8.8990  -22.2210 C   0  0  0  0  0  0
    4.6470    8.5240  -20.8780 C   0  0  0  0  0  0
    3.4960    7.2790  -22.7680 C   0  0  0  0  0  0
    8.4920    8.9090  -20.6930 C   0  0  0  0  0  0
    6.7840    8.6650  -22.4750 C   0  0  0  0  0  0
    7.0770    8.7770  -20.2080 C   0  0  0  0  0  0
    3.4195    6.8633  -20.7405 H   0  0  0  0  0  0
    4.8340    6.5240  -21.3790 H   0  0  0  0  0  0
    8.8686    8.0725  -22.6607 H   0  0  0  0  0  0
    8.5852    9.8746  -22.6353 H   0  0  0  0  0  0
    4.4379    8.6110  -19.8016 H   0  0  0  0  0  0
    4.1283    9.3566  -21.3757 H   0  0  0  0  0  0
    4.2566    7.6142  -23.4885 H   0  0  0  0  0  0
    2.6764    8.0126  -22.7740 H   0  0  0  0  0  0
    8.8892    9.8884  -20.3879 H   0  0  0  0  0  0
    9.0600    8.0140  -20.3990 H   0  0  0  0  0  0
    6.3780    9.5020  -23.0620 H   0  0  0  0  0  0
    6.6420    7.6880  -22.9600 H   0  0  0  0  0  0
    6.8190    8.7850  -19.1500 H   0  0  0  0  0  0
  1  2  2  0  0  0
  1  3  1  0  0  0
  1 34  1  0  0  0
  2  6  1  0  0  0
  2 35  1  0  0  0
  3  5  2  0  0  0
  3 27  1  0  0  0
  4  5  1  0  0  0
  4  6  2  0  0  0
  4 18  1  0  0  0
  5 24  1  0  0  0
  6 10  1  0  0  0
  7 10  2  0  0  0
  7 23  1  0  0  0
  7 33  1  0  0  0
  8 21  1  0  0  0
  8 22  1  0  0  0
  8 36  1  0  0  0
  8 37  1  0  0  0
  9 21  1  0  0  0
  9 31  1  0  0  0
  9 38  1  0  0  0
  9 39  1  0  0  0
 10 40  1  0  0  0
 11 12  1  0  0  0
 11 14  2  0  0  0
 11 15  1  0  0  0
 12 17  1  0  0  0
 12 28  2  0  0  0
 13 28  1  0  0  0
 13 29  2  0  0  0
 13 56  1  0  0  0
 14 29  1  0  0  0
 14 31  1  0  0  0
 15 30  2  0  0  0
 15 41  1  0  0  0
 16 17  2  0  0  0
 16 18  1  0  0  0
 16 30  1  0  0  0
 17 26  1  0  0  0
 18 23  2  0  0  0
 19 20  1  0  0  0
 19 31  1  0  0  0
 19 42  1  0  0  0
 19 43  1  0  0  0
 20 22  1  0  0  0
 20 32  1  0  0  0
 20 44  1  0  0  0
 21 32  1  0  0  0
 21 45  1  0  0  0
 22 46  1  0  0  0
 22 47  1  0  0  0
 23 48  1  0  0  0
 24 25  3  0  0  0
 25 49  1  0  0  0
 32 50  1  0  0  0
 33 51  1  0  0  0
 52 55  1  0  0  0
 52 56  1  0  0  0
 52 60  1  0  0  0
 52 61  1  0  0  0
 53 55  1  0  0  0
 53 58  1  0  0  0
 53 59  2  0  0  0
 54 57  1  0  0  0
 54 58  1  0  0  0
 54 62  1  0  0  0
 54 63  1  0  0  0
 55 64  1  0  0  0
 55 65  1  0  0  0
 56 66  1  0  0  0
 56 67  1  0  0  0
 57 59  1  0  0  0
 57 68  1  0  0  0
 57 69  1  0  0  0
 58 70  1  0  0  0
 58 71  1  0  0  0
 59 72  1  0  0  0
M  CHG  1  52   1
M  END
> <s_m_entry_id>
217

> <s_m_entry_name>
000000217.1

> <s_m_Source_Path>
/Users/zaksoul/Documents/2

> <s_m_Source_File>
000000217.mol2

> <i_m_Source_File_Index>
1

$$$$
No_0_228
                    3D
 Schrodinger Suite 2022-4.
 72 78  0  0  1  0            999 V2000
   -5.1840    3.6080  -22.2420 C   0  0  0  0  0  0
   -5.4270    3.7780  -23.5850 C   0  0  0  0  0  0
   -3.9480    3.3850  -21.8740 C   0  0  0  0  0  0
   -3.0150    3.5120  -24.0220 C   0  0  0  0  0  0
   -2.8790    3.2840  -22.5960 C   0  0  0  0  0  0
   -4.3570    3.7390  -24.5730 C   0  0  0  0  0  0
   -3.5580    3.7580  -26.7550 C   0  0  0  0  0  0
    6.0750    3.2900  -21.2870 C   0  0  0  0  0  0
    5.9850    3.4050  -23.8400 C   0  0  0  0  0  0
   -4.5840    3.8490  -25.9140 C   0  0  0  0  0  0
    2.1910    3.8680  -23.9390 C   0  0  0  0  0  0
    1.3390    4.9610  -23.6670 C   0  0  0  0  0  0
    3.0960    6.2030  -22.9630 C   0  0  0  0  0  0
    3.5800    4.0930  -23.5990 C   0  0  0  0  0  0
    1.6830    2.7330  -24.6000 C   0  0  0  0  0  0
   -0.4640    3.5000  -24.5410 C   0  0  0  0  0  0
    0.0230    4.7370  -23.9430 C   0  0  0  0  0  0
   -1.9090    3.4700  -24.9250 C   0  0  0  0  0  0
    4.2340    1.6120  -23.2710 C   0  0  0  0  0  0
    5.1520    1.2880  -22.1020 C   0  0  2  0  0  0
    6.7210    2.8590  -22.6210 C   0  0  2  0  0  0
    5.0880    2.2990  -20.9460 C   0  0  0  0  0  0
   -2.2080    3.6090  -26.3610 C   0  0  0  0  0  0
   -1.5380    2.9060  -21.9670 C   0  0  0  0  0  0
   -0.5100    2.5860  -21.4370 C   0  0  0  0  0  0
   -0.8480    5.7660  -23.6260 F   0  0  0  0  0  0
   -3.7610    3.1600  -20.4860 F   0  0  0  0  0  0
    1.7800    6.1350  -23.1370 N   0  0  0  0  0  0
    4.0180    5.2580  -23.1550 N   0  0  0  0  0  0
    0.3850    2.6120  -24.9310 N   0  0  0  0  0  0
    4.5240    3.0650  -23.7480 N   0  0  0  0  0  0
    6.5670    1.3820  -22.5570 N   0  0  1  0  0  0
   -3.7030    3.7560  -28.1480 O   0  0  0  0  0  0
   -6.0019    3.6592  -21.5325 H   0  0  0  0  0  0
   -6.4387    3.9476  -23.9353 H   0  0  0  0  0  0
    5.5844    4.2662  -21.4152 H   0  0  0  0  0  0
    6.8448    3.3243  -20.5020 H   0  0  0  0  0  0
    6.4090    2.9608  -24.7526 H   0  0  0  0  0  0
    6.1051    4.4977  -23.8804 H   0  0  0  0  0  0
   -5.5910    4.0076  -26.2825 H   0  0  0  0  0  0
    2.3456    1.9158  -24.8610 H   0  0  0  0  0  0
    3.1859    1.5363  -22.9459 H   0  0  0  0  0  0
    4.4288    0.9105  -24.0956 H   0  0  0  0  0  0
    4.9431    0.2746  -21.7286 H   0  0  0  0  0  0
    7.7843    3.1394  -22.6492 H   0  0  0  0  0  0
    4.0932    2.7681  -20.9268 H   0  0  0  0  0  0
    5.3806    1.8015  -20.0096 H   0  0  0  0  0  0
   -1.4227    3.6000  -27.1082 H   0  0  0  0  0  0
    0.3944    2.3049  -20.9698 H   0  0  0  0  0  0
    7.2104    0.9053  -21.8323 H   0  0  0  0  0  0
   -2.8481    3.6828  -28.5557 H   0  0  0  0  0  0
    4.3830    7.4290  -21.2070 N   0  3  0  0  0  0
    6.3670    8.9420  -21.0510 C   0  0  0  0  0  0
    8.3640    9.3910  -22.3750 C   0  0  0  0  0  0
    4.9250    8.7220  -20.6580 C   0  0  0  0  0  0
    3.6160    7.5580  -22.4960 C   0  0  0  0  0  0
    8.7440    9.2990  -20.8850 C   0  0  0  0  0  0
    6.8490    9.0950  -22.4730 C   0  0  0  0  0  0
    7.4030    9.0560  -20.2520 C   0  0  0  0  0  0
    3.7980    6.9920  -20.5121 H   0  0  0  0  0  0
    5.1415    6.7774  -21.3339 H   0  0  0  0  0  0
    8.9219    8.6311  -22.9419 H   0  0  0  0  0  0
    8.5629   10.4087  -22.7419 H   0  0  0  0  0  0
    4.8410    8.7180  -19.5612 H   0  0  0  0  0  0
    4.3142    9.5597  -21.0258 H   0  0  0  0  0  0
    4.2700    7.9860  -23.2700 H   0  0  0  0  0  0
    2.7691    8.2449  -22.3510 H   0  0  0  0  0  0
    9.1288   10.2736  -20.5501 H   0  0  0  0  0  0
    9.3821    8.4169  -20.7280 H   0  0  0  0  0  0
    6.3400    9.9500  -22.9420 H   0  0  0  0  0  0
    6.6959    8.1497  -23.0142 H   0  0  0  0  0  0
    7.2719    8.9729  -19.1741 H   0  0  0  0  0  0
  1  2  2  0  0  0
  1  3  1  0  0  0
  1 34  1  0  0  0
  2  6  1  0  0  0
  2 35  1  0  0  0
  3  5  2  0  0  0
  3 27  1  0  0  0
  4  5  1  0  0  0
  4  6  2  0  0  0
  4 18  1  0  0  0
  5 24  1  0  0  0
  6 10  1  0  0  0
  7 10  2  0  0  0
  7 23  1  0  0  0
  7 33  1  0  0  0
  8 21  1  0  0  0
  8 22  1  0  0  0
  8 36  1  0  0  0
  8 37  1  0  0  0
  9 21  1  0  0  0
  9 31  1  0  0  0
  9 38  1  0  0  0
  9 39  1  0  0  0
 10 40  1  0  0  0
 11 12  1  0  0  0
 11 14  2  0  0  0
 11 15  1  0  0  0
 12 17  1  0  0  0
 12 28  2  0  0  0
 13 28  1  0  0  0
 13 29  2  0  0  0
 13 56  1  0  0  0
 14 29  1  0  0  0
 14 31  1  0  0  0
 15 30  2  0  0  0
 15 41  1  0  0  0
 16 17  2  0  0  0
 16 18  1  0  0  0
 16 30  1  0  0  0
 17 26  1  0  0  0
 18 23  2  0  0  0
 19 20  1  0  0  0
 19 31  1  0  0  0
 19 42  1  0  0  0
 19 43  1  0  0  0
 20 22  1  0  0  0
 20 32  1  0  0  0
 20 44  1  0  0  0
 21 32  1  0  0  0
 21 45  1  0  0  0
 22 46  1  0  0  0
 22 47  1  0  0  0
 23 48  1  0  0  0
 24 25  3  0  0  0
 25 49  1  0  0  0
 32 50  1  0  0  0
 33 51  1  0  0  0
 52 55  1  0  0  0
 52 56  1  0  0  0
 52 60  1  0  0  0
 52 61  1  0  0  0
 53 55  1  0  0  0
 53 58  1  0  0  0
 53 59  2  0  0  0
 54 57  1  0  0  0
 54 58  1  0  0  0
 54 62  1  0  0  0
 54 63  1  0  0  0
 55 64  1  0  0  0
 55 65  1  0  0  0
 56 66  1  0  0  0
 56 67  1  0  0  0
 57 59  1  0  0  0
 57 68  1  0  0  0
 57 69  1  0  0  0
 58 70  1  0  0  0
 58 71  1  0  0  0
 59 72  1  0  0  0
M  CHG  1  52   1
M  END
> <s_m_entry_id>
218

> <s_m_entry_name>
000000218.1

> <s_m_Source_Path>
/Users/zaksoul/Documents/2

> <s_m_Source_File>
000000218.mol2

> <i_m_Source_File_Index>
1

$$$$
No_0_229
                    3D
 Schrodinger Suite 2022-4.
 72 78  0  0  1  0            999 V2000
   -5.3760    3.3440  -22.2260 C   0  0  0  0  0  0
   -5.6080    3.5260  -23.5690 C   0  0  0  0  0  0
   -4.1420    3.1230  -21.8500 C   0  0  0  0  0  0
   -3.1920    3.2710  -23.9890 C   0  0  0  0  0  0
   -3.0660    3.0310  -22.5640 C   0  0  0  0  0  0
   -4.5310    3.4990  -24.5490 C   0  0  0  0  0  0
   -3.7140    3.5400  -26.7240 C   0  0  0  0  0  0
    5.8760    3.0560  -21.1820 C   0  0  0  0  0  0
    5.8070    3.1940  -23.7340 C   0  0  0  0  0  0
   -4.7470    3.6200  -25.8910 C   0  0  0  0  0  0
    2.0120    3.6450  -23.8610 C   0  0  0  0  0  0
    1.1540    4.7320  -23.5860 C   0  0  0  0  0  0
    2.9010    5.9740  -22.8560 C   0  0  0  0  0  0
    3.3970    3.8720  -23.5080 C   0  0  0  0  0  0
    1.5130    2.5140  -24.5360 C   0  0  0  0  0  0
   -0.6360    3.2730  -24.4870 C   0  0  0  0  0  0
   -0.1580    4.5060  -23.8740 C   0  0  0  0  0  0
   -2.0780    3.2420  -24.8830 C   0  0  0  0  0  0
    4.0580    1.3900  -23.1960 C   0  0  0  0  0  0
    4.9670    1.0590  -22.0230 C   0  0  2  0  0  0
    6.5350    2.6390  -22.5150 C   0  0  2  0  0  0
    4.8900    2.0590  -20.8580 C   0  0  0  0  0  0
   -2.3670    3.3930  -26.3200 C   0  0  0  0  0  0
   -1.7290    2.6530  -21.9270 C   0  0  0  0  0  0
   -0.7050    2.3310  -21.3920 C   0  0  0  0  0  0
   -1.0360    5.5300  -23.5550 F   0  0  0  0  0  0
   -3.9650    2.8860  -20.4620 F   0  0  0  0  0  0
    1.5860    5.9030  -23.0420 N   0  0  0  0  0  0
    3.8280    5.0340  -23.0500 N   0  0  0  0  0  0
    0.2190    2.3910  -24.8790 N   0  0  0  0  0  0
    4.3470    2.8480  -23.6570 N   0  0  0  0  0  0
    6.3850    1.1620  -22.4650 N   0  0  1  0  0  0
   -3.8470    3.5500  -28.1180 O   0  0  0  0  0  0
   -6.1993    3.3862  -21.5222 H   0  0  0  0  0  0
   -6.6175    3.6946  -23.9262 H   0  0  0  0  0  0
    5.3836    4.0318  -21.3061 H   0  0  0  0  0  0
    6.6398    3.0863  -20.3910 H   0  0  0  0  0  0
    6.2388    2.7602  -24.6480 H   0  0  0  0  0  0
    5.9230    4.2874  -23.7643 H   0  0  0  0  0  0
   -5.7517    3.7796  -26.2654 H   0  0  0  0  0  0
    2.1814    1.7021  -24.7989 H   0  0  0  0  0  0
    3.0073    1.3072  -22.8811 H   0  0  0  0  0  0
    4.2618    0.6968  -24.0254 H   0  0  0  0  0  0
    4.7583    0.0415  -21.6610 H   0  0  0  0  0  0
    7.5974    2.9235  -22.5322 H   0  0  0  0  0  0
    3.8934    2.5245  -20.8429 H   0  0  0  0  0  0
    5.1767    1.5532  -19.9242 H   0  0  0  0  0  0
   -1.5753    3.3930  -27.0605 H   0  0  0  0  0  0
    0.1967    2.0491  -20.9202 H   0  0  0  0  0  0
    7.0245    0.6807  -21.7399 H   0  0  0  0  0  0
   -2.9886    3.4837  -28.5195 H   0  0  0  0  0  0
    4.4050    7.1620  -21.2530 N   0  3  0  0  0  0
    6.2880    8.8040  -21.3160 C   0  0  0  0  0  0
    7.9840    9.4970  -22.9240 C   0  0  0  0  0  0
    4.9560    8.4490  -20.6980 C   0  0  0  0  0  0
    3.4130    7.3270  -22.3730 C   0  0  0  0  0  0
    8.6300    9.3260  -21.5360 C   0  0  0  0  0  0
    6.4980    9.0960  -22.7820 C   0  0  0  0  0  0
    7.4420    8.9370  -20.7030 C   0  0  0  0  0  0
    3.9821    6.6321  -20.5071 H   0  0  0  0  0  0
    5.1668    6.5802  -21.5649 H   0  0  0  0  0  0
    8.4772    8.8257  -23.6424 H   0  0  0  0  0  0
    8.0510   10.5512  -23.2310 H   0  0  0  0  0  0
    5.0710    8.3580  -19.6078 H   0  0  0  0  0  0
    4.2386    9.2625  -20.8811 H   0  0  0  0  0  0
    3.8900    7.8580  -23.2100 H   0  0  0  0  0  0
    2.5654    7.9357  -22.0252 H   0  0  0  0  0  0
    9.0088   10.2995  -21.1912 H   0  0  0  0  0  0
    9.3392    8.4858  -21.5690 H   0  0  0  0  0  0
    5.8615    9.9423  -23.0798 H   0  0  0  0  0  0
    6.3080    8.1840  -23.3670 H   0  0  0  0  0  0
    7.5120    8.7660  -19.6298 H   0  0  0  0  0  0
  1  2  2  0  0  0
  1  3  1  0  0  0
  1 34  1  0  0  0
  2  6  1  0  0  0
  2 35  1  0  0  0
  3  5  2  0  0  0
  3 27  1  0  0  0
  4  5  1  0  0  0
  4  6  2  0  0  0
  4 18  1  0  0  0
  5 24  1  0  0  0
  6 10  1  0  0  0
  7 10  2  0  0  0
  7 23  1  0  0  0
  7 33  1  0  0  0
  8 21  1  0  0  0
  8 22  1  0  0  0
  8 36  1  0  0  0
  8 37  1  0  0  0
  9 21  1  0  0  0
  9 31  1  0  0  0
  9 38  1  0  0  0
  9 39  1  0  0  0
 10 40  1  0  0  0
 11 12  1  0  0  0
 11 14  2  0  0  0
 11 15  1  0  0  0
 12 17  1  0  0  0
 12 28  2  0  0  0
 13 28  1  0  0  0
 13 29  2  0  0  0
 13 56  1  0  0  0
 14 29  1  0  0  0
 14 31  1  0  0  0
 15 30  2  0  0  0
 15 41  1  0  0  0
 16 17  2  0  0  0
 16 18  1  0  0  0
 16 30  1  0  0  0
 17 26  1  0  0  0
 18 23  2  0  0  0
 19 20  1  0  0  0
 19 31  1  0  0  0
 19 42  1  0  0  0
 19 43  1  0  0  0
 20 22  1  0  0  0
 20 32  1  0  0  0
 20 44  1  0  0  0
 21 32  1  0  0  0
 21 45  1  0  0  0
 22 46  1  0  0  0
 22 47  1  0  0  0
 23 48  1  0  0  0
 24 25  3  0  0  0
 25 49  1  0  0  0
 32 50  1  0  0  0
 33 51  1  0  0  0
 52 55  1  0  0  0
 52 56  1  0  0  0
 52 60  1  0  0  0
 52 61  1  0  0  0
 53 55  1  0  0  0
 53 58  1  0  0  0
 53 59  2  0  0  0
 54 57  1  0  0  0
 54 58  1  0  0  0
 54 62  1  0  0  0
 54 63  1  0  0  0
 55 64  1  0  0  0
 55 65  1  0  0  0
 56 66  1  0  0  0
 56 67  1  0  0  0
 57 59  1  0  0  0
 57 68  1  0  0  0
 57 69  1  0  0  0
 58 70  1  0  0  0
 58 71  1  0  0  0
 59 72  1  0  0  0
M  CHG  1  52   1
M  END
> <s_m_entry_id>
219

> <s_m_entry_name>
000000219.1

> <s_m_Source_Path>
/Users/zaksoul/Documents/2

> <s_m_Source_File>
000000219.mol2

> <i_m_Source_File_Index>
1

$$$$
No_0_230
                    3D
 Schrodinger Suite 2022-4.
 72 78  0  0  1  0            999 V2000
   -5.2320    3.5530  -21.9760 C   0  0  0  0  0  0
   -5.4800    3.7690  -23.3100 C   0  0  0  0  0  0
   -3.9970    3.3030  -21.6220 C   0  0  0  0  0  0
   -3.0740    3.4880  -23.7700 C   0  0  0  0  0  0
   -2.9330    3.2130  -22.3530 C   0  0  0  0  0  0
   -4.4160    3.7500  -24.3050 C   0  0  0  0  0  0
   -3.6280    3.8290  -26.4910 C   0  0  0  0  0  0
    6.0270    3.0670  -21.0950 C   0  0  0  0  0  0
    5.9250    3.2660  -23.6420 C   0  0  0  0  0  0
   -4.6490    3.9060  -25.6410 C   0  0  0  0  0  0
    2.1360    3.7780  -23.7050 C   0  0  0  0  0  0
    1.3000    4.8720  -23.3930 C   0  0  0  0  0  0
    3.0760    6.0690  -22.6580 C   0  0  0  0  0  0
    3.5300    3.9750  -23.3660 C   0  0  0  0  0  0
    1.6110    2.6720  -24.4000 C   0  0  0  0  0  0
   -0.5260    3.4620  -24.3030 C   0  0  0  0  0  0
   -0.0200    4.6730  -23.6680 C   0  0  0  0  0  0
   -1.9730    3.4620  -24.6800 C   0  0  0  0  0  0
    4.1560    1.4770  -23.1220 C   0  0  0  0  0  0
    5.0750    1.1040  -21.9700 C   0  0  2  0  0  0
    6.6610    2.6720  -22.4460 C   0  0  2  0  0  0
    5.0300    2.0780  -20.7800 C   0  0  0  0  0  0
   -2.2780    3.6520  -26.1080 C   0  0  0  0  0  0
   -1.5930    2.7980  -21.7440 C   0  0  0  0  0  0
   -0.5670    2.4490  -21.2300 C   0  0  0  0  0  0
   -0.8770    5.7020  -23.3130 F   0  0  0  0  0  0
   -3.8050    3.0310  -20.2420 F   0  0  0  0  0  0
    1.7580    6.0230  -22.8280 N   0  0  0  0  0  0
    3.9850    5.1200  -22.8870 N   0  0  0  0  0  0
    0.3100    2.5770  -24.7270 N   0  0  0  0  0  0
    4.4610    2.9410  -23.5530 N   0  0  0  0  0  0
    6.4880    1.1960  -22.4290 N   0  0  1  0  0  0
   -3.7800    3.8750  -27.8820 O   0  0  0  0  0  0
   -6.0456    3.5911  -21.2607 H   0  0  0  0  0  0
   -6.4912    3.9626  -23.6491 H   0  0  0  0  0  0
    5.5482    4.0529  -21.1889 H   0  0  0  0  0  0
    6.8013    3.0670  -20.3137 H   0  0  0  0  0  0
    6.3378    2.8471  -24.5716 H   0  0  0  0  0  0
    6.0582    4.3579  -23.6481 H   0  0  0  0  0  0
   -5.6559    4.0887  -25.9984 H   0  0  0  0  0  0
    2.2624    1.8559  -24.6911 H   0  0  0  0  0  0
    3.1086    1.4033  -22.7941 H   0  0  0  0  0  0
    4.3376    0.7999  -23.9697 H   0  0  0  0  0  0
    4.8550    0.0819  -21.6280 H   0  0  0  0  0  0
    7.7275    2.9404  -22.4712 H   0  0  0  0  0  0
    4.0412    2.5583  -20.7406 H   0  0  0  0  0  0
    5.3217    1.5460  -19.8624 H   0  0  0  0  0  0
   -1.4971    3.6570  -26.8598 H   0  0  0  0  0  0
    0.3362    2.1409  -20.7779 H   0  0  0  0  0  0
    7.1296    0.6880  -21.7243 H   0  0  0  0  0  0
   -2.9281    3.8048  -28.2966 H   0  0  0  0  0  0
    4.8590    7.2040  -21.3260 N   0  3  0  0  0  0
    6.5760    8.9940  -21.6360 C   0  0  0  0  0  0
    7.7860    9.9870  -23.5050 C   0  0  0  0  0  0
    5.4580    8.4670  -20.7680 C   0  0  0  0  0  0
    3.6150    7.4020  -22.1510 C   0  0  0  0  0  0
    8.7610    9.7270  -22.3410 C   0  0  0  0  0  0
    6.4040    9.4530  -23.0640 C   0  0  0  0  0  0
    7.8360    9.1570  -21.3030 C   0  0  0  0  0  0
    4.6609    6.5667  -20.5706 H   0  0  0  0  0  0
    5.5519    6.7231  -21.8779 H   0  0  0  0  0  0
    8.1242    9.4367  -24.3954 H   0  0  0  0  0  0
    7.7170   11.0691  -23.6900 H   0  0  0  0  0  0
    5.8410    8.2740  -19.7550 H   0  0  0  0  0  0
    4.6745    9.2336  -20.6761 H   0  0  0  0  0  0
    3.8429    8.0547  -23.0066 H   0  0  0  0  0  0
    2.8467    7.8992  -21.5407 H   0  0  0  0  0  0
    9.1579   10.6877  -21.9811 H   0  0  0  0  0  0
    9.4852    8.9558  -22.6421 H   0  0  0  0  0  0
    5.6681   10.2699  -23.0980 H   0  0  0  0  0  0
    6.1261    8.5943  -23.6928 H   0  0  0  0  0  0
    8.1761    8.8819  -20.3057 H   0  0  0  0  0  0
  1  2  2  0  0  0
  1  3  1  0  0  0
  1 34  1  0  0  0
  2  6  1  0  0  0
  2 35  1  0  0  0
  3  5  2  0  0  0
  3 27  1  0  0  0
  4  5  1  0  0  0
  4  6  2  0  0  0
  4 18  1  0  0  0
  5 24  1  0  0  0
  6 10  1  0  0  0
  7 10  2  0  0  0
  7 23  1  0  0  0
  7 33  1  0  0  0
  8 21  1  0  0  0
  8 22  1  0  0  0
  8 36  1  0  0  0
  8 37  1  0  0  0
  9 21  1  0  0  0
  9 31  1  0  0  0
  9 38  1  0  0  0
  9 39  1  0  0  0
 10 40  1  0  0  0
 11 12  1  0  0  0
 11 14  2  0  0  0
 11 15  1  0  0  0
 12 17  1  0  0  0
 12 28  2  0  0  0
 13 28  1  0  0  0
 13 29  2  0  0  0
 13 56  1  0  0  0
 14 29  1  0  0  0
 14 31  1  0  0  0
 15 30  2  0  0  0
 15 41  1  0  0  0
 16 17  2  0  0  0
 16 18  1  0  0  0
 16 30  1  0  0  0
 17 26  1  0  0  0
 18 23  2  0  0  0
 19 20  1  0  0  0
 19 31  1  0  0  0
 19 42  1  0  0  0
 19 43  1  0  0  0
 20 22  1  0  0  0
 20 32  1  0  0  0
 20 44  1  0  0  0
 21 32  1  0  0  0
 21 45  1  0  0  0
 22 46  1  0  0  0
 22 47  1  0  0  0
 23 48  1  0  0  0
 24 25  3  0  0  0
 25 49  1  0  0  0
 32 50  1  0  0  0
 33 51  1  0  0  0
 52 55  1  0  0  0
 52 56  1  0  0  0
 52 60  1  0  0  0
 52 61  1  0  0  0
 53 55  1  0  0  0
 53 58  1  0  0  0
 53 59  2  0  0  0
 54 57  1  0  0  0
 54 58  1  0  0  0
 54 62  1  0  0  0
 54 63  1  0  0  0
 55 64  1  0  0  0
 55 65  1  0  0  0
 56 66  1  0  0  0
 56 67  1  0  0  0
 57 59  1  0  0  0
 57 68  1  0  0  0
 57 69  1  0  0  0
 58 70  1  0  0  0
 58 71  1  0  0  0
 59 72  1  0  0  0
M  CHG  1  52   1
M  END
> <s_m_entry_id>
220

> <s_m_entry_name>
000000220.1

> <s_m_Source_Path>
/Users/zaksoul/Documents/2

> <s_m_Source_File>
000000220.mol2

> <i_m_Source_File_Index>
1

$$$$
No_0_231
                    3D
 Schrodinger Suite 2022-4.
 75 81  0  0  1  0            999 V2000
   -5.1180    3.4490  -22.1460 C   0  0  0  0  0  0
   -5.3820    3.5960  -23.4870 C   0  0  0  0  0  0
   -3.8790    3.2180  -21.7940 C   0  0  0  0  0  0
   -2.9820    3.2900  -23.9600 C   0  0  0  0  0  0
   -2.8230    3.0890  -22.5320 C   0  0  0  0  0  0
   -4.3300    3.5240  -24.4920 C   0  0  0  0  0  0
   -3.5690    3.4880  -26.6880 C   0  0  0  0  0  0
    6.1510    3.0050  -21.3750 C   0  0  0  0  0  0
    6.0190    3.0710  -23.9280 C   0  0  0  0  0  0
   -4.5790    3.6090  -25.8320 C   0  0  0  0  0  0
    2.2290    3.5810  -23.9730 C   0  0  0  0  0  0
    1.3960    4.6890  -23.7090 C   0  0  0  0  0  0
    3.1810    5.9220  -23.0590 C   0  0  0  0  0  0
    3.6260    3.7940  -23.6610 C   0  0  0  0  0  0
    1.6960    2.4390  -24.6020 C   0  0  0  0  0  0
   -0.4400    3.2340  -24.5220 C   0  0  0  0  0  0
    0.0730    4.4770  -23.9570 C   0  0  0  0  0  0
   -1.8920    3.2160  -24.8800 C   0  0  0  0  0  0
    4.2550    1.3120  -23.2940 C   0  0  0  0  0  0
    5.1890    0.9990  -22.1350 C   0  0  2  0  0  0
    6.7680    2.5390  -22.7120 C   0  0  2  0  0  0
    5.1570    2.0340  -20.9980 C   0  0  0  0  0  0
   -2.2140    3.3300  -26.3130 C   0  0  0  0  0  0
   -1.4770    2.7060  -21.9180 C   0  0  0  0  0  0
   -0.4450    2.3840  -21.3990 C   0  0  0  0  0  0
   -0.7800    5.5230  -23.6460 F   0  0  0  0  0  0
   -3.6700    3.0190  -20.4050 F   0  0  0  0  0  0
    1.8600    5.8680  -23.2100 N   0  0  0  0  0  0
    4.0870    4.9620  -23.2480 N   0  0  0  0  0  0
    0.3910    2.3280  -24.9080 N   0  0  0  0  0  0
    4.5550    2.7510  -23.8050 N   0  0  0  0  0  0
    6.5960    1.0660  -22.6150 N   0  0  1  0  0  0
   -3.7370    3.4600  -28.0780 O   0  0  0  0  0  0
   -5.9226    3.5262  -21.4237 H   0  0  0  0  0  0
   -6.3972    3.7716  -23.8241 H   0  0  0  0  0  0
    5.6704    3.9844  -21.5154 H   0  0  0  0  0  0
    6.9348    3.0454  -20.6043 H   0  0  0  0  0  0
    6.4205    2.6029  -24.8389 H   0  0  0  0  0  0
    6.1512    4.1611  -23.9926 H   0  0  0  0  0  0
   -5.5901    3.7737  -26.1864 H   0  0  0  0  0  0
    2.3438    1.6084  -24.8581 H   0  0  0  0  0  0
    3.2117    1.2555  -22.9499 H   0  0  0  0  0  0
    4.4265    0.5915  -24.1073 H   0  0  0  0  0  0
    4.9729   -0.0035  -21.7372 H   0  0  0  0  0  0
    7.8340    2.8053  -22.7634 H   0  0  0  0  0  0
    4.1688    2.5165  -20.9718 H   0  0  0  0  0  0
    5.4598    1.5506  -20.0574 H   0  0  0  0  0  0
   -1.4419    3.2959  -27.0731 H   0  0  0  0  0  0
    0.4641    2.1000  -20.9429 H   0  0  0  0  0  0
    7.2461    0.5955  -21.8922 H   0  0  0  0  0  0
   -2.8901    3.3680  -28.4985 H   0  0  0  0  0  0
    3.3810    7.5640  -21.1910 N   0  3  0  0  0  0
    3.8340    8.8890  -20.6310 C   0  0  0  0  0  0
    5.6300    9.9590  -22.1500 C   0  0  0  0  0  0
    8.0460    9.4380  -21.6350 C   0  0  0  0  0  0
    6.2280    8.8180  -20.0340 C   0  0  0  0  0  0
    5.2960    9.1580  -20.9060 C   0  0  0  0  0  0
    3.7250    7.2800  -22.6290 C   0  0  0  0  0  0
    7.0620   10.5260  -22.0920 C   0  0  0  0  0  0
    7.7170    9.0120  -20.1930 C   0  0  0  0  0  0
    2.3850    7.4740  -21.0650 H   0  0  0  0  0  0
    3.7360    6.8200  -20.6110 H   0  0  0  0  0  0
    3.6559    8.9080  -19.5457 H   0  0  0  0  0  0
    3.2262    9.6967  -21.0648 H   0  0  0  0  0  0
    4.9122   10.7858  -22.2560 H   0  0  0  0  0  0
    5.5260    9.3169  -23.0371 H   0  0  0  0  0  0
    9.0725    9.8312  -21.6760 H   0  0  0  0  0  0
    7.9651    8.5667  -22.3015 H   0  0  0  0  0  0
    5.9470    8.3491  -19.0921 H   0  0  0  0  0  0
    4.8179    7.2920  -22.7530 H   0  0  0  0  0  0
    3.2990    8.0660  -23.2700 H   0  0  0  0  0  0
    7.0940   11.3690  -21.3860 H   0  0  0  0  0  0
    7.3530   10.8880  -23.0891 H   0  0  0  0  0  0
    8.0620    9.7881  -19.4939 H   0  0  0  0  0  0
    8.2360    8.0700  -19.9620 H   0  0  0  0  0  0
  1  2  2  0  0  0
  1  3  1  0  0  0
  1 34  1  0  0  0
  2  6  1  0  0  0
  2 35  1  0  0  0
  3  5  2  0  0  0
  3 27  1  0  0  0
  4  5  1  0  0  0
  4  6  2  0  0  0
  4 18  1  0  0  0
  5 24  1  0  0  0
  6 10  1  0  0  0
  7 10  2  0  0  0
  7 23  1  0  0  0
  7 33  1  0  0  0
  8 21  1  0  0  0
  8 22  1  0  0  0
  8 36  1  0  0  0
  8 37  1  0  0  0
  9 21  1  0  0  0
  9 31  1  0  0  0
  9 38  1  0  0  0
  9 39  1  0  0  0
 10 40  1  0  0  0
 11 12  1  0  0  0
 11 14  2  0  0  0
 11 15  1  0  0  0
 12 17  1  0  0  0
 12 28  2  0  0  0
 13 28  1  0  0  0
 13 29  2  0  0  0
 13 58  1  0  0  0
 14 29  1  0  0  0
 14 31  1  0  0  0
 15 30  2  0  0  0
 15 41  1  0  0  0
 16 17  2  0  0  0
 16 18  1  0  0  0
 16 30  1  0  0  0
 17 26  1  0  0  0
 18 23  2  0  0  0
 19 20  1  0  0  0
 19 31  1  0  0  0
 19 42  1  0  0  0
 19 43  1  0  0  0
 20 22  1  0  0  0
 20 32  1  0  0  0
 20 44  1  0  0  0
 21 32  1  0  0  0
 21 45  1  0  0  0
 22 46  1  0  0  0
 22 47  1  0  0  0
 23 48  1  0  0  0
 24 25  3  0  0  0
 25 49  1  0  0  0
 32 50  1  0  0  0
 33 51  1  0  0  0
 52 53  1  0  0  0
 52 58  1  0  0  0
 52 61  1  0  0  0
 52 62  1  0  0  0
 53 57  1  0  0  0
 53 63  1  0  0  0
 53 64  1  0  0  0
 54 57  1  0  0  0
 54 59  1  0  0  0
 54 65  1  0  0  0
 54 66  1  0  0  0
 55 59  1  0  0  0
 55 60  1  0  0  0
 55 67  1  0  0  0
 55 68  1  0  0  0
 56 57  2  0  0  0
 56 60  1  0  0  0
 56 69  1  0  0  0
 58 70  1  0  0  0
 58 71  1  0  0  0
 59 72  1  0  0  0
 59 73  1  0  0  0
 60 74  1  0  0  0
 60 75  1  0  0  0
M  CHG  1  52   1
M  END
> <s_m_entry_id>
221

> <s_m_entry_name>
000000221.1

> <s_m_Source_Path>
/Users/zaksoul/Documents/2

> <s_m_Source_File>
000000221.mol2

> <i_m_Source_File_Index>
1

$$$$
No_0_232
                    3D
 Schrodinger Suite 2022-4.
 75 81  0  0  1  0            999 V2000
   -5.2030    3.3710  -22.0740 C   0  0  0  0  0  0
   -5.4520    3.5510  -23.4140 C   0  0  0  0  0  0
   -3.9630    3.1540  -21.7120 C   0  0  0  0  0  0
   -3.0410    3.3040  -23.8630 C   0  0  0  0  0  0
   -2.8960    3.0660  -22.4400 C   0  0  0  0  0  0
   -4.3860    3.5270  -24.4070 C   0  0  0  0  0  0
   -3.5960    3.5690  -26.5920 C   0  0  0  0  0  0
    6.0620    3.1230  -21.1670 C   0  0  0  0  0  0
    5.9610    3.2590  -23.7190 C   0  0  0  0  0  0
   -4.6190    3.6460  -25.7460 C   0  0  0  0  0  0
    2.1630    3.6960  -23.7990 C   0  0  0  0  0  0
    1.3060    4.7810  -23.5150 C   0  0  0  0  0  0
    3.0570    6.0290  -22.8070 C   0  0  0  0  0  0
    3.5520    3.9280  -23.4630 C   0  0  0  0  0  0
    1.6610    2.5630  -24.4670 C   0  0  0  0  0  0
   -0.4910    3.3140  -24.3930 C   0  0  0  0  0  0
   -0.0100    4.5500  -23.7870 C   0  0  0  0  0  0
   -1.9380    3.2780  -24.7710 C   0  0  0  0  0  0
    4.2250    1.4490  -23.1580 C   0  0  0  0  0  0
    5.1500    1.1220  -21.9960 C   0  0  2  0  0  0
    6.7060    2.7080  -22.5080 C   0  0  2  0  0  0
    5.0840    2.1230  -20.8300 C   0  0  0  0  0  0
   -2.2440    3.4270  -26.2040 C   0  0  0  0  0  0
   -1.5500    2.6920  -21.8190 C   0  0  0  0  0  0
   -0.5180    2.3750  -21.2960 C   0  0  0  0  0  0
   -0.8870    5.5710  -23.4570 F   0  0  0  0  0  0
   -3.7690    2.9190  -20.3270 F   0  0  0  0  0  0
    1.7400    5.9540  -22.9770 N   0  0  0  0  0  0
    3.9840    5.0930  -23.0110 N   0  0  0  0  0  0
    0.3620    2.4360  -24.7940 N   0  0  0  0  0  0
    4.5030    2.9070  -23.6240 N   0  0  0  0  0  0
    6.5620    1.2290  -22.4550 N   0  0  1  0  0  0
   -3.7470    3.5780  -27.9850 O   0  0  0  0  0  0
   -6.0180    3.4111  -21.3604 H   0  0  0  0  0  0
   -6.4666    3.7156  -23.7582 H   0  0  0  0  0  0
    5.5645    4.0968  -21.2861 H   0  0  0  0  0  0
    6.8349    3.1563  -20.3850 H   0  0  0  0  0  0
    6.3838    2.8251  -24.6372 H   0  0  0  0  0  0
    6.0730    4.3528  -23.7513 H   0  0  0  0  0  0
   -5.6284    3.8015  -26.1092 H   0  0  0  0  0  0
    2.3285    1.7530  -24.7380 H   0  0  0  0  0  0
    3.1789    1.3622  -22.8291 H   0  0  0  0  0  0
    4.4209    0.7554  -23.9890 H   0  0  0  0  0  0
    4.9493    0.1043  -21.6299 H   0  0  0  0  0  0
    7.7673    2.9958  -22.5373 H   0  0  0  0  0  0
    4.0861    2.5851  -20.8038 H   0  0  0  0  0  0
    5.3837    1.6185  -19.8996 H   0  0  0  0  0  0
   -1.4621    3.4290  -26.9548 H   0  0  0  0  0  0
    0.3901    2.0960  -20.8349 H   0  0  0  0  0  0
    7.2123    0.7509  -21.7374 H   0  0  0  0  0  0
   -2.8928    3.5137  -28.3958 H   0  0  0  0  0  0
    3.5320    7.4740  -20.8280 N   0  3  0  0  0  0
    3.9870    8.7730  -20.2120 C   0  0  0  0  0  0
    5.3030   10.1880  -21.9270 C   0  0  0  0  0  0
    7.8080    9.8810  -22.0070 C   0  0  0  0  0  0
    6.4510    8.8990  -20.1490 C   0  0  0  0  0  0
    5.3240    9.2270  -20.7540 C   0  0  0  0  0  0
    3.5690    7.3840  -22.3310 C   0  0  0  0  0  0
    6.6600   10.8980  -22.1010 C   0  0  0  0  0  0
    7.8460    9.2710  -20.5940 C   0  0  0  0  0  0
    2.6001    7.2630  -20.5070 H   0  0  0  0  0  0
    4.0679    6.7151  -20.4370 H   0  0  0  0  0  0
    4.0550    8.6549  -19.1205 H   0  0  0  0  0  0
    3.2322    9.5508  -20.3999 H   0  0  0  0  0  0
    4.5142   10.9388  -21.7720 H   0  0  0  0  0  0
    5.0580    9.6370  -22.8470 H   0  0  0  0  0  0
    8.7628   10.3869  -22.2130 H   0  0  0  0  0  0
    7.6529    9.0825  -22.7475 H   0  0  0  0  0  0
    6.4270    8.3036  -19.2375 H   0  0  0  0  0  0
    4.6019    7.5280  -22.6810 H   0  0  0  0  0  0
    2.9473    8.1827  -22.7618 H   0  0  0  0  0  0
    6.7790   11.6592  -21.3158 H   0  0  0  0  0  0
    6.6900   11.3937  -23.0825 H   0  0  0  0  0  0
    8.2731   10.0012  -19.8908 H   0  0  0  0  0  0
    8.4795    8.3717  -20.6010 H   0  0  0  0  0  0
  1  2  2  0  0  0
  1  3  1  0  0  0
  1 34  1  0  0  0
  2  6  1  0  0  0
  2 35  1  0  0  0
  3  5  2  0  0  0
  3 27  1  0  0  0
  4  5  1  0  0  0
  4  6  2  0  0  0
  4 18  1  0  0  0
  5 24  1  0  0  0
  6 10  1  0  0  0
  7 10  2  0  0  0
  7 23  1  0  0  0
  7 33  1  0  0  0
  8 21  1  0  0  0
  8 22  1  0  0  0
  8 36  1  0  0  0
  8 37  1  0  0  0
  9 21  1  0  0  0
  9 31  1  0  0  0
  9 38  1  0  0  0
  9 39  1  0  0  0
 10 40  1  0  0  0
 11 12  1  0  0  0
 11 14  2  0  0  0
 11 15  1  0  0  0
 12 17  1  0  0  0
 12 28  2  0  0  0
 13 28  1  0  0  0
 13 29  2  0  0  0
 13 58  1  0  0  0
 14 29  1  0  0  0
 14 31  1  0  0  0
 15 30  2  0  0  0
 15 41  1  0  0  0
 16 17  2  0  0  0
 16 18  1  0  0  0
 16 30  1  0  0  0
 17 26  1  0  0  0
 18 23  2  0  0  0
 19 20  1  0  0  0
 19 31  1  0  0  0
 19 42  1  0  0  0
 19 43  1  0  0  0
 20 22  1  0  0  0
 20 32  1  0  0  0
 20 44  1  0  0  0
 21 32  1  0  0  0
 21 45  1  0  0  0
 22 46  1  0  0  0
 22 47  1  0  0  0
 23 48  1  0  0  0
 24 25  3  0  0  0
 25 49  1  0  0  0
 32 50  1  0  0  0
 33 51  1  0  0  0
 52 53  1  0  0  0
 52 58  1  0  0  0
 52 61  1  0  0  0
 52 62  1  0  0  0
 53 57  1  0  0  0
 53 63  1  0  0  0
 53 64  1  0  0  0
 54 57  1  0  0  0
 54 59  1  0  0  0
 54 65  1  0  0  0
 54 66  1  0  0  0
 55 59  1  0  0  0
 55 60  1  0  0  0
 55 67  1  0  0  0
 55 68  1  0  0  0
 56 57  2  0  0  0
 56 60  1  0  0  0
 56 69  1  0  0  0
 58 70  1  0  0  0
 58 71  1  0  0  0
 59 72  1  0  0  0
 59 73  1  0  0  0
 60 74  1  0  0  0
 60 75  1  0  0  0
M  CHG  1  52   1
M  END
> <s_m_entry_id>
222

> <s_m_entry_name>
000000222.1

> <s_m_Source_Path>
/Users/zaksoul/Documents/2

> <s_m_Source_File>
000000222.mol2

> <i_m_Source_File_Index>
1

$$$$
No_0_233
                    3D
 Schrodinger Suite 2022-4.
 75 81  0  0  1  0            999 V2000
   -5.3980    3.4310  -22.1950 C   0  0  0  0  0  0
   -5.6400    3.5940  -23.5380 C   0  0  0  0  0  0
   -4.1620    3.2070  -21.8260 C   0  0  0  0  0  0
   -3.2290    3.3160  -23.9750 C   0  0  0  0  0  0
   -3.0930    3.0970  -22.5470 C   0  0  0  0  0  0
   -4.5710    3.5450  -24.5270 C   0  0  0  0  0  0
   -3.7720    3.5470  -26.7090 C   0  0  0  0  0  0
    5.8610    3.0800  -21.2400 C   0  0  0  0  0  0
    5.7710    3.1800  -23.7930 C   0  0  0  0  0  0
   -4.7970    3.6470  -25.8690 C   0  0  0  0  0  0
    1.9780    3.6550  -23.8950 C   0  0  0  0  0  0
    1.1300    4.7530  -23.6300 C   0  0  0  0  0  0
    2.8920    5.9930  -22.9340 C   0  0  0  0  0  0
    3.3680    3.8780  -23.5570 C   0  0  0  0  0  0
    1.4660    2.5180  -24.5490 C   0  0  0  0  0  0
   -0.6780    3.2920  -24.4940 C   0  0  0  0  0  0
   -0.1860    4.5320  -23.9040 C   0  0  0  0  0  0
   -2.1230    3.2650  -24.8770 C   0  0  0  0  0  0
    4.0140    1.3970  -23.2130 C   0  0  0  0  0  0
    4.9310    1.0770  -22.0420 C   0  0  2  0  0  0
    6.5050    2.6390  -22.5720 C   0  0  2  0  0  0
    4.8700    2.0960  -20.8920 C   0  0  0  0  0  0
   -2.4230    3.3960  -26.3140 C   0  0  0  0  0  0
   -1.7540    2.7190  -21.9160 C   0  0  0  0  0  0
   -0.7270    2.3990  -21.3840 C   0  0  0  0  0  0
   -1.0540    5.5660  -23.5930 F   0  0  0  0  0  0
   -3.9750    2.9910  -20.4360 F   0  0  0  0  0  0
    1.5750    5.9290  -23.1080 N   0  0  0  0  0  0
    3.8100    5.0440  -23.1210 N   0  0  0  0  0  0
    0.1680    2.3990  -24.8790 N   0  0  0  0  0  0
    4.3090    2.8450  -23.6990 N   0  0  0  0  0  0
    6.3450    1.1630  -22.4980 N   0  0  1  0  0  0
   -3.9170    3.5360  -28.1020 O   0  0  0  0  0  0
   -6.2152    3.4902  -21.4852 H   0  0  0  0  0  0
   -6.6508    3.7646  -23.8903 H   0  0  0  0  0  0
    5.3735    4.0569  -21.3742 H   0  0  0  0  0  0
    6.6308    3.1173  -20.4551 H   0  0  0  0  0  0
    6.1920    2.7287  -24.7036 H   0  0  0  0  0  0
    5.8941    4.2720  -23.8414 H   0  0  0  0  0  0
   -5.8034    3.8075  -26.2383 H   0  0  0  0  0  0
    2.1262    1.6972  -24.8049 H   0  0  0  0  0  0
    2.9658    1.3264  -22.8871 H   0  0  0  0  0  0
    4.2057    0.6886  -24.0324 H   0  0  0  0  0  0
    4.7180    0.0667  -21.6625 H   0  0  0  0  0  0
    7.5693    2.9154  -22.6013 H   0  0  0  0  0  0
    3.8767    2.5684  -20.8758 H   0  0  0  0  0  0
    5.1617    1.6024  -19.9532 H   0  0  0  0  0  0
   -1.6373    3.3789  -27.0606 H   0  0  0  0  0  0
    0.1767    2.1171  -20.9161 H   0  0  0  0  0  0
    6.9875    0.6884  -21.7711 H   0  0  0  0  0  0
   -3.0624    3.4579  -28.5095 H   0  0  0  0  0  0
    3.7190    7.3370  -21.0010 N   0  3  0  0  0  0
    4.2230    8.6240  -20.3980 C   0  0  0  0  0  0
    5.0240   10.2470  -22.2430 C   0  0  0  0  0  0
    7.4580   10.1410  -22.9060 C   0  0  0  0  0  0
    6.6240    8.9370  -20.8790 C   0  0  0  0  0  0
    5.3710    9.2160  -21.1860 C   0  0  0  0  0  0
    3.4170    7.3500  -22.4760 C   0  0  0  0  0  0
    6.2590   11.0700  -22.6580 C   0  0  0  0  0  0
    7.8550    9.4440  -21.5920 C   0  0  0  0  0  0
    2.9002    7.0341  -20.4971 H   0  0  0  0  0  0
    4.3762    6.5988  -20.8029 H   0  0  0  0  0  0
    4.5470    8.4410  -19.3629 H   0  0  0  0  0  0
    3.3999    9.3521  -20.3480 H   0  0  0  0  0  0
    4.2477   10.9222  -21.8539 H   0  0  0  0  0  0
    4.6080    9.7400  -23.1261 H   0  0  0  0  0  0
    8.3077   10.7318  -23.2789 H   0  0  0  0  0  0
    7.1858    9.3834  -23.6556 H   0  0  0  0  0  0
    6.8458    8.2835  -20.0366 H   0  0  0  0  0  0
    4.3316    7.5962  -23.0354 H   0  0  0  0  0  0
    2.6651    8.1239  -22.6900 H   0  0  0  0  0  0
    6.5080   11.7850  -21.8600 H   0  0  0  0  0  0
    6.0329   11.6302  -23.5773 H   0  0  0  0  0  0
    8.3870   10.1570  -20.9450 H   0  0  0  0  0  0
    8.5238    8.5993  -21.8139 H   0  0  0  0  0  0
  1  2  2  0  0  0
  1  3  1  0  0  0
  1 34  1  0  0  0
  2  6  1  0  0  0
  2 35  1  0  0  0
  3  5  2  0  0  0
  3 27  1  0  0  0
  4  5  1  0  0  0
  4  6  2  0  0  0
  4 18  1  0  0  0
  5 24  1  0  0  0
  6 10  1  0  0  0
  7 10  2  0  0  0
  7 23  1  0  0  0
  7 33  1  0  0  0
  8 21  1  0  0  0
  8 22  1  0  0  0
  8 36  1  0  0  0
  8 37  1  0  0  0
  9 21  1  0  0  0
  9 31  1  0  0  0
  9 38  1  0  0  0
  9 39  1  0  0  0
 10 40  1  0  0  0
 11 12  1  0  0  0
 11 14  2  0  0  0
 11 15  1  0  0  0
 12 17  1  0  0  0
 12 28  2  0  0  0
 13 28  1  0  0  0
 13 29  2  0  0  0
 13 58  1  0  0  0
 14 29  1  0  0  0
 14 31  1  0  0  0
 15 30  2  0  0  0
 15 41  1  0  0  0
 16 17  2  0  0  0
 16 18  1  0  0  0
 16 30  1  0  0  0
 17 26  1  0  0  0
 18 23  2  0  0  0
 19 20  1  0  0  0
 19 31  1  0  0  0
 19 42  1  0  0  0
 19 43  1  0  0  0
 20 22  1  0  0  0
 20 32  1  0  0  0
 20 44  1  0  0  0
 21 32  1  0  0  0
 21 45  1  0  0  0
 22 46  1  0  0  0
 22 47  1  0  0  0
 23 48  1  0  0  0
 24 25  3  0  0  0
 25 49  1  0  0  0
 32 50  1  0  0  0
 33 51  1  0  0  0
 52 53  1  0  0  0
 52 58  1  0  0  0
 52 61  1  0  0  0
 52 62  1  0  0  0
 53 57  1  0  0  0
 53 63  1  0  0  0
 53 64  1  0  0  0
 54 57  1  0  0  0
 54 59  1  0  0  0
 54 65  1  0  0  0
 54 66  1  0  0  0
 55 59  1  0  0  0
 55 60  1  0  0  0
 55 67  1  0  0  0
 55 68  1  0  0  0
 56 57  2  0  0  0
 56 60  1  0  0  0
 56 69  1  0  0  0
 58 70  1  0  0  0
 58 71  1  0  0  0
 59 72  1  0  0  0
 59 73  1  0  0  0
 60 74  1  0  0  0
 60 75  1  0  0  0
M  CHG  1  52   1
M  END
> <s_m_entry_id>
223

> <s_m_entry_name>
000000223.1

> <s_m_Source_Path>
/Users/zaksoul/Documents/2

> <s_m_Source_File>
000000223.mol2

> <i_m_Source_File_Index>
1

$$$$
No_0_234
                    3D
 Schrodinger Suite 2022-4.
 75 81  0  0  1  0            999 V2000
   -5.1660    3.3320  -22.0700 C   0  0  0  0  0  0
   -5.4260    3.4790  -23.4120 C   0  0  0  0  0  0
   -3.9220    3.1410  -21.7110 C   0  0  0  0  0  0
   -3.0130    3.2550  -23.8690 C   0  0  0  0  0  0
   -2.8580    3.0510  -22.4420 C   0  0  0  0  0  0
   -4.3650    3.4480  -24.4100 C   0  0  0  0  0  0
   -3.5870    3.4510  -26.6000 C   0  0  0  0  0  0
    6.1060    3.2570  -21.2220 C   0  0  0  0  0  0
    5.9890    3.3350  -23.7750 C   0  0  0  0  0  0
   -4.6070    3.5330  -25.7510 C   0  0  0  0  0  0
    2.1850    3.7190  -23.8430 C   0  0  0  0  0  0
    1.3140    4.7980  -23.5780 C   0  0  0  0  0  0
    3.0520    6.0850  -22.9090 C   0  0  0  0  0  0
    3.5720    3.9770  -23.5210 C   0  0  0  0  0  0
    1.6940    2.5650  -24.4840 C   0  0  0  0  0  0
   -0.4670    3.2880  -24.4130 C   0  0  0  0  0  0
    0.0010    4.5430  -23.8380 C   0  0  0  0  0  0
   -1.9150    3.2230  -24.7820 C   0  0  0  0  0  0
    4.2810    1.5150  -23.1640 C   0  0  0  0  0  0
    5.2160    1.2260  -22.0000 C   0  0  2  0  0  0
    6.7480    2.8210  -22.5570 C   0  0  2  0  0  0
    5.1430    2.2520  -20.8570 C   0  0  0  0  0  0
   -2.2310    3.3360  -26.2170 C   0  0  0  0  0  0
   -1.5040    2.7090  -21.8210 C   0  0  0  0  0  0
   -0.4650    2.4180  -21.2960 C   0  0  0  0  0  0
   -0.8890    5.5590  -23.5270 F   0  0  0  0  0  0
   -3.7170    2.9390  -20.3210 F   0  0  0  0  0  0
    1.7350    5.9880  -23.0690 N   0  0  0  0  0  0
    3.9910    5.1570  -23.0970 N   0  0  0  0  0  0
    0.3960    2.4120  -24.8000 N   0  0  0  0  0  0
    4.5360    2.9660  -23.6640 N   0  0  0  0  0  0
    6.6240    1.3420  -22.4700 N   0  0  1  0  0  0
   -3.7450    3.4270  -27.9920 O   0  0  0  0  0  0
   -5.9780    3.3782  -21.3534 H   0  0  0  0  0  0
   -6.4444    3.6226  -23.7545 H   0  0  0  0  0  0
    5.5946    4.2212  -21.3592 H   0  0  0  0  0  0
    6.8821    3.3196  -20.4449 H   0  0  0  0  0  0
    6.4127    2.8871  -24.6860 H   0  0  0  0  0  0
    6.0859    4.4292  -23.8325 H   0  0  0  0  0  0
   -5.6205    3.6666  -26.1116 H   0  0  0  0  0  0
    2.3713    1.7583  -24.7399 H   0  0  0  0  0  0
    3.2378    1.4212  -22.8280 H   0  0  0  0  0  0
    4.4818    0.8056  -23.9804 H   0  0  0  0  0  0
    5.0314    0.2140  -21.6105 H   0  0  0  0  0  0
    7.8050    3.1228  -22.5984 H   0  0  0  0  0  0
    4.1391    2.7010  -20.8348 H   0  0  0  0  0  0
    5.4550    1.7734  -19.9170 H   0  0  0  0  0  0
   -1.4530    3.3320  -26.9719 H   0  0  0  0  0  0
    0.4499    2.1620  -20.8350 H   0  0  0  0  0  0
    7.2847    0.8898  -21.7452 H   0  0  0  0  0  0
   -2.8926    3.3646  -28.4068 H   0  0  0  0  0  0
    4.2030    7.3800  -21.1120 N   0  3  0  0  0  0
    4.7210    8.6710  -20.5320 C   0  0  0  0  0  0
    4.8960   10.4910  -22.3570 C   0  0  0  0  0  0
    7.0930   10.6970  -23.5850 C   0  0  0  0  0  0
    6.8930    9.2760  -21.5360 C   0  0  0  0  0  0
    5.5830    9.4360  -21.5120 C   0  0  0  0  0  0
    3.5480    7.4580  -22.4670 C   0  0  0  0  0  0
    5.9130   11.4700  -22.9760 C   0  0  0  0  0  0
    7.8610    9.9610  -22.4720 C   0  0  0  0  0  0
    3.5629    6.9559  -20.4589 H   0  0  0  0  0  0
    4.9519    6.7061  -21.1440 H   0  0  0  0  0  0
    5.3034    8.4562  -19.6239 H   0  0  0  0  0  0
    3.8729    9.2991  -20.2219 H   0  0  0  0  0  0
    4.1808   11.0502  -21.7358 H   0  0  0  0  0  0
    4.3239   10.0019  -23.1592 H   0  0  0  0  0  0
    7.7688   11.4008  -24.0929 H   0  0  0  0  0  0
    6.7148    9.9656  -24.3144 H   0  0  0  0  0  0
    7.3723    8.5956  -20.8336 H   0  0  0  0  0  0
    4.2719    7.8399  -23.2019 H   0  0  0  0  0  0
    2.7002    8.1576  -22.4240 H   0  0  0  0  0  0
    6.2841   12.1532  -22.1978 H   0  0  0  0  0  0
    5.4202   12.0628  -23.7607 H   0  0  0  0  0  0
    8.4690   10.6829  -21.9070 H   0  0  0  0  0  0
    8.5287    9.2114  -22.9218 H   0  0  0  0  0  0
  1  2  2  0  0  0
  1  3  1  0  0  0
  1 34  1  0  0  0
  2  6  1  0  0  0
  2 35  1  0  0  0
  3  5  2  0  0  0
  3 27  1  0  0  0
  4  5  1  0  0  0
  4  6  2  0  0  0
  4 18  1  0  0  0
  5 24  1  0  0  0
  6 10  1  0  0  0
  7 10  2  0  0  0
  7 23  1  0  0  0
  7 33  1  0  0  0
  8 21  1  0  0  0
  8 22  1  0  0  0
  8 36  1  0  0  0
  8 37  1  0  0  0
  9 21  1  0  0  0
  9 31  1  0  0  0
  9 38  1  0  0  0
  9 39  1  0  0  0
 10 40  1  0  0  0
 11 12  1  0  0  0
 11 14  2  0  0  0
 11 15  1  0  0  0
 12 17  1  0  0  0
 12 28  2  0  0  0
 13 28  1  0  0  0
 13 29  2  0  0  0
 13 58  1  0  0  0
 14 29  1  0  0  0
 14 31  1  0  0  0
 15 30  2  0  0  0
 15 41  1  0  0  0
 16 17  2  0  0  0
 16 18  1  0  0  0
 16 30  1  0  0  0
 17 26  1  0  0  0
 18 23  2  0  0  0
 19 20  1  0  0  0
 19 31  1  0  0  0
 19 42  1  0  0  0
 19 43  1  0  0  0
 20 22  1  0  0  0
 20 32  1  0  0  0
 20 44  1  0  0  0
 21 32  1  0  0  0
 21 45  1  0  0  0
 22 46  1  0  0  0
 22 47  1  0  0  0
 23 48  1  0  0  0
 24 25  3  0  0  0
 25 49  1  0  0  0
 32 50  1  0  0  0
 33 51  1  0  0  0
 52 53  1  0  0  0
 52 58  1  0  0  0
 52 61  1  0  0  0
 52 62  1  0  0  0
 53 57  1  0  0  0
 53 63  1  0  0  0
 53 64  1  0  0  0
 54 57  1  0  0  0
 54 59  1  0  0  0
 54 65  1  0  0  0
 54 66  1  0  0  0
 55 59  1  0  0  0
 55 60  1  0  0  0
 55 67  1  0  0  0
 55 68  1  0  0  0
 56 57  2  0  0  0
 56 60  1  0  0  0
 56 69  1  0  0  0
 58 70  1  0  0  0
 58 71  1  0  0  0
 59 72  1  0  0  0
 59 73  1  0  0  0
 60 74  1  0  0  0
 60 75  1  0  0  0
M  CHG  1  52   1
M  END
> <s_m_entry_id>
224

> <s_m_entry_name>
000000224.1

> <s_m_Source_Path>
/Users/zaksoul/Documents/2

> <s_m_Source_File>
000000224.mol2

> <i_m_Source_File_Index>
1

$$$$
No_0_235
                    3D
 Schrodinger Suite 2022-4.
 75 81  0  0  1  0            999 V2000
   -5.0450    3.3710  -22.1470 C   0  0  0  0  0  0
   -5.3130    3.5830  -23.4790 C   0  0  0  0  0  0
   -3.8020    3.1380  -21.8090 C   0  0  0  0  0  0
   -2.9100    3.3300  -23.9690 C   0  0  0  0  0  0
   -2.7460    3.0580  -22.5540 C   0  0  0  0  0  0
   -4.2620    3.5740  -24.4880 C   0  0  0  0  0  0
   -3.5040    3.6600  -26.6830 C   0  0  0  0  0  0
    6.2300    3.0240  -21.4140 C   0  0  0  0  0  0
    6.0930    3.2180  -23.9600 C   0  0  0  0  0  0
   -4.5140    3.7250  -25.8210 C   0  0  0  0  0  0
    2.2970    3.6840  -23.9740 C   0  0  0  0  0  0
    1.4520    4.7670  -23.6530 C   0  0  0  0  0  0
    3.2220    5.9870  -22.9430 C   0  0  0  0  0  0
    3.6920    3.8980  -23.6540 C   0  0  0  0  0  0
    1.7760    2.5690  -24.6600 C   0  0  0  0  0  0
   -0.3680    3.3340  -24.5360 C   0  0  0  0  0  0
    0.1310    4.5520  -23.9100 C   0  0  0  0  0  0
   -1.8210    3.3160  -24.8940 C   0  0  0  0  0  0
    4.3520    1.4080  -23.4140 C   0  0  0  0  0  0
    5.2910    1.0480  -22.2730 C   0  0  2  0  0  0
    6.8510    2.6340  -22.7730 C   0  0  2  0  0  0
    5.2490    2.0240  -21.0850 C   0  0  0  0  0  0
   -2.1470    3.4990  -26.3190 C   0  0  0  0  0  0
   -1.3940    2.6620  -21.9620 C   0  0  0  0  0  0
   -0.3570    2.3260  -21.4610 C   0  0  0  0  0  0
   -0.7340    5.5710  -23.5450 F   0  0  0  0  0  0
   -3.5880    2.8700  -20.4320 F   0  0  0  0  0  0
    1.9030    5.9250  -23.0950 N   0  0  0  0  0  0
    4.1400    5.0490  -23.1820 N   0  0  0  0  0  0
    0.4730    2.4580  -24.9700 N   0  0  0  0  0  0
    4.6330    2.8740  -23.8510 N   0  0  0  0  0  0
    6.6970    1.1560  -22.7510 N   0  0  1  0  0  0
   -3.6750    3.7000  -28.0730 O   0  0  0  0  0  0
   -5.8494    3.4011  -21.4210 H   0  0  0  0  0  0
   -6.3310    3.7627  -23.8053 H   0  0  0  0  0  0
    5.7381    4.0038  -21.5039 H   0  0  0  0  0  0
    7.0148    3.0341  -20.6433 H   0  0  0  0  0  0
    6.4986    2.8023  -24.8942 H   0  0  0  0  0  0
    6.2121    4.3115  -23.9691 H   0  0  0  0  0  0
   -5.5276    3.8956  -26.1652 H   0  0  0  0  0  0
    2.4337    1.7606  -24.9582 H   0  0  0  0  0  0
    3.3100    1.3223  -23.0721 H   0  0  0  0  0  0
    4.5307    0.7317  -24.2629 H   0  0  0  0  0  0
    5.0882    0.0238  -21.9269 H   0  0  0  0  0  0
    7.9136    2.9156  -22.8124 H   0  0  0  0  0  0
    4.2550    2.4922  -21.0325 H   0  0  0  0  0  0
    5.5588    1.4963  -20.1709 H   0  0  0  0  0  0
   -1.3760    3.5121  -27.0809 H   0  0  0  0  0  0
    0.5561    2.0300  -21.0209 H   0  0  0  0  0  0
    7.3538    0.6575  -22.0535 H   0  0  0  0  0  0
   -2.8278    3.6396  -28.4986 H   0  0  0  0  0  0
    4.6030    7.1440  -21.2160 N   0  3  0  0  0  0
    5.1760    8.3920  -20.5930 C   0  0  0  0  0  0
    5.0400   10.3820  -22.2360 C   0  0  0  0  0  0
    7.0230   10.7790  -23.7460 C   0  0  0  0  0  0
    7.1610    9.1650  -21.8420 C   0  0  0  0  0  0
    5.8660    9.2760  -21.6090 C   0  0  0  0  0  0
    3.7520    7.3280  -22.4450 C   0  0  0  0  0  0
    5.9320   11.4500  -22.8970 C   0  0  0  0  0  0
    7.9640    9.9680  -22.8370 C   0  0  0  0  0  0
    4.0769    6.6379  -20.5209 H   0  0  0  0  0  0
    5.3523    6.5027  -21.4241 H   0  0  0  0  0  0
    5.8923    8.1119  -19.8066 H   0  0  0  0  0  0
    4.3713    8.9585  -20.1016 H   0  0  0  0  0  0
    4.4142   10.8539  -21.4642 H   0  0  0  0  0  0
    4.3637    9.9518  -22.9893 H   0  0  0  0  0  0
    7.6008   11.5507  -24.2758 H   0  0  0  0  0  0
    6.5549   10.1079  -24.4812 H   0  0  0  0  0  0
    7.7526    8.4374  -21.2883 H   0  0  0  0  0  0
    4.3494    7.8023  -23.2375 H   0  0  0  0  0  0
    2.9062    7.9909  -22.2100 H   0  0  0  0  0  0
    6.4024   12.0685  -22.1184 H   0  0  0  0  0  0
    5.3150   12.0970  -23.5380 H   0  0  0  0  0  0
    8.6349   10.6539  -22.2991 H   0  0  0  0  0  0
    8.5712    9.2877  -23.4522 H   0  0  0  0  0  0
  1  2  2  0  0  0
  1  3  1  0  0  0
  1 34  1  0  0  0
  2  6  1  0  0  0
  2 35  1  0  0  0
  3  5  2  0  0  0
  3 27  1  0  0  0
  4  5  1  0  0  0
  4  6  2  0  0  0
  4 18  1  0  0  0
  5 24  1  0  0  0
  6 10  1  0  0  0
  7 10  2  0  0  0
  7 23  1  0  0  0
  7 33  1  0  0  0
  8 21  1  0  0  0
  8 22  1  0  0  0
  8 36  1  0  0  0
  8 37  1  0  0  0
  9 21  1  0  0  0
  9 31  1  0  0  0
  9 38  1  0  0  0
  9 39  1  0  0  0
 10 40  1  0  0  0
 11 12  1  0  0  0
 11 14  2  0  0  0
 11 15  1  0  0  0
 12 17  1  0  0  0
 12 28  2  0  0  0
 13 28  1  0  0  0
 13 29  2  0  0  0
 13 58  1  0  0  0
 14 29  1  0  0  0
 14 31  1  0  0  0
 15 30  2  0  0  0
 15 41  1  0  0  0
 16 17  2  0  0  0
 16 18  1  0  0  0
 16 30  1  0  0  0
 17 26  1  0  0  0
 18 23  2  0  0  0
 19 20  1  0  0  0
 19 31  1  0  0  0
 19 42  1  0  0  0
 19 43  1  0  0  0
 20 22  1  0  0  0
 20 32  1  0  0  0
 20 44  1  0  0  0
 21 32  1  0  0  0
 21 45  1  0  0  0
 22 46  1  0  0  0
 22 47  1  0  0  0
 23 48  1  0  0  0
 24 25  3  0  0  0
 25 49  1  0  0  0
 32 50  1  0  0  0
 33 51  1  0  0  0
 52 53  1  0  0  0
 52 58  1  0  0  0
 52 61  1  0  0  0
 52 62  1  0  0  0
 53 57  1  0  0  0
 53 63  1  0  0  0
 53 64  1  0  0  0
 54 57  1  0  0  0
 54 59  1  0  0  0
 54 65  1  0  0  0
 54 66  1  0  0  0
 55 59  1  0  0  0
 55 60  1  0  0  0
 55 67  1  0  0  0
 55 68  1  0  0  0
 56 57  2  0  0  0
 56 60  1  0  0  0
 56 69  1  0  0  0
 58 70  1  0  0  0
 58 71  1  0  0  0
 59 72  1  0  0  0
 59 73  1  0  0  0
 60 74  1  0  0  0
 60 75  1  0  0  0
M  CHG  1  52   1
M  END
> <s_m_entry_id>
225

> <s_m_entry_name>
000000225.1

> <s_m_Source_Path>
/Users/zaksoul/Documents/2

> <s_m_Source_File>
000000225.mol2

> <i_m_Source_File_Index>
1

$$$$
No_0_236
                    3D
 Schrodinger Suite 2022-4.
 75 81  0  0  1  0            999 V2000
   -5.2460    3.5150  -22.2430 C   0  0  0  0  0  0
   -5.4860    3.7670  -23.5730 C   0  0  0  0  0  0
   -4.0100    3.2710  -21.8860 C   0  0  0  0  0  0
   -3.0730    3.5280  -24.0210 C   0  0  0  0  0  0
   -2.9390    3.2130  -22.6110 C   0  0  0  0  0  0
   -4.4140    3.7890  -24.5590 C   0  0  0  0  0  0
   -3.6110    3.9400  -26.7350 C   0  0  0  0  0  0
    6.0120    3.1380  -21.2870 C   0  0  0  0  0  0
    5.9270    3.4090  -23.8280 C   0  0  0  0  0  0
   -4.6380    3.9800  -25.8920 C   0  0  0  0  0  0
    2.1330    3.8780  -23.9060 C   0  0  0  0  0  0
    1.2810    4.9520  -23.5700 C   0  0  0  0  0  0
    3.0360    6.1480  -22.7880 C   0  0  0  0  0  0
    3.5210    4.0820  -23.5510 C   0  0  0  0  0  0
    1.6260    2.7850  -24.6370 C   0  0  0  0  0  0
   -0.5210    3.5470  -24.5350 C   0  0  0  0  0  0
   -0.0350    4.7460  -23.8620 C   0  0  0  0  0  0
   -1.9650    3.5410  -24.9220 C   0  0  0  0  0  0
    4.1750    1.5850  -23.3730 C   0  0  0  0  0  0
    5.0900    1.1900  -22.2250 C   0  0  2  0  0  0
    6.6600    2.7900  -22.6440 C   0  0  2  0  0  0
    5.0240    2.1290  -21.0090 C   0  0  0  0  0  0
   -2.2620    3.7670  -26.3470 C   0  0  0  0  0  0
   -1.6000    2.7980  -22.0030 C   0  0  0  0  0  0
   -0.5730    2.4460  -21.4920 C   0  0  0  0  0  0
   -0.9070    5.7530  -23.4840 F   0  0  0  0  0  0
   -3.8250    2.9610  -20.5140 F   0  0  0  0  0  0
    1.7200    6.0920  -22.9690 N   0  0  0  0  0  0
    3.9590    5.2170  -23.0360 N   0  0  0  0  0  0
    0.3290    2.6840  -24.9770 N   0  0  0  0  0  0
    4.4660    3.0640  -23.7600 N   0  0  0  0  0  0
    6.5060    1.3120  -22.6700 N   0  0  1  0  0  0
   -3.7530    4.0230  -28.1260 O   0  0  0  0  0  0
   -6.0647    3.5240  -21.5326 H   0  0  0  0  0  0
   -6.4970    3.9578  -23.9144 H   0  0  0  0  0  0
    5.5215    4.1201  -21.3566 H   0  0  0  0  0  0
    6.7801    3.1249  -20.4997 H   0  0  0  0  0  0
    6.3519    3.0214  -24.7657 H   0  0  0  0  0  0
    6.0471    4.5021  -23.8018 H   0  0  0  0  0  0
   -5.6443    4.1606  -26.2522 H   0  0  0  0  0  0
    2.2899    1.9855  -24.9454 H   0  0  0  0  0  0
    3.1260    1.4891  -23.0560 H   0  0  0  0  0  0
    4.3717    0.9353  -24.2386 H   0  0  0  0  0  0
    4.8801    0.1559  -21.9143 H   0  0  0  0  0  0
    7.7233    3.0715  -22.6521 H   0  0  0  0  0  0
    4.0292    2.5961  -20.9626 H   0  0  0  0  0  0
    5.3145    1.5752  -20.1041 H   0  0  0  0  0  0
   -1.4751    3.8031  -27.0917 H   0  0  0  0  0  0
    0.3305    2.1358  -21.0418 H   0  0  0  0  0  0
    7.1484    0.7914  -21.9752 H   0  0  0  0  0  0
   -2.8972    3.9745  -28.5356 H   0  0  0  0  0  0
    5.0510    7.4340  -22.0710 N   0  3  0  0  0  0
    5.7060    8.6710  -21.5090 C   0  0  0  0  0  0
    4.1020   10.6930  -21.6330 C   0  0  0  0  0  0
    4.2110   12.1350  -23.7020 C   0  0  0  0  0  0
    5.9550   10.4010  -23.2510 C   0  0  0  0  0  0
    5.2690    9.9280  -22.2270 C   0  0  0  0  0  0
    3.5550    7.4730  -22.2380 C   0  0  0  0  0  0
    4.0340   12.1330  -22.1760 C   0  0  0  0  0  0
    5.6190   11.6300  -24.0630 C   0  0  0  0  0  0
    5.3009    6.6402  -21.5022 H   0  0  0  0  0  0
    5.4780    7.2050  -22.9549 H   0  0  0  0  0  0
    6.7990    8.5700  -21.5800 H   0  0  0  0  0  0
    5.4651    8.7580  -20.4392 H   0  0  0  0  0  0
    4.2010   10.7180  -20.5378 H   0  0  0  0  0  0
    3.1641   10.1680  -21.8670 H   0  0  0  0  0  0
    4.0790   13.1577  -24.0849 H   0  0  0  0  0  0
    3.4571   11.4771  -24.1589 H   0  0  0  0  0  0
    6.8597    9.8932  -23.5819 H   0  0  0  0  0  0
    3.2850    8.2860  -22.9280 H   0  0  0  0  0  0
    3.0828    7.6771  -21.2657 H   0  0  0  0  0  0
    4.8289   12.7369  -21.7141 H   0  0  0  0  0  0
    3.0604   12.5758  -21.9191 H   0  0  0  0  0  0
    6.3558   12.4198  -23.8550 H   0  0  0  0  0  0
    5.6560   11.3822  -25.1341 H   0  0  0  0  0  0
  1  2  2  0  0  0
  1  3  1  0  0  0
  1 34  1  0  0  0
  2  6  1  0  0  0
  2 35  1  0  0  0
  3  5  2  0  0  0
  3 27  1  0  0  0
  4  5  1  0  0  0
  4  6  2  0  0  0
  4 18  1  0  0  0
  5 24  1  0  0  0
  6 10  1  0  0  0
  7 10  2  0  0  0
  7 23  1  0  0  0
  7 33  1  0  0  0
  8 21  1  0  0  0
  8 22  1  0  0  0
  8 36  1  0  0  0
  8 37  1  0  0  0
  9 21  1  0  0  0
  9 31  1  0  0  0
  9 38  1  0  0  0
  9 39  1  0  0  0
 10 40  1  0  0  0
 11 12  1  0  0  0
 11 14  2  0  0  0
 11 15  1  0  0  0
 12 17  1  0  0  0
 12 28  2  0  0  0
 13 28  1  0  0  0
 13 29  2  0  0  0
 13 58  1  0  0  0
 14 29  1  0  0  0
 14 31  1  0  0  0
 15 30  2  0  0  0
 15 41  1  0  0  0
 16 17  2  0  0  0
 16 18  1  0  0  0
 16 30  1  0  0  0
 17 26  1  0  0  0
 18 23  2  0  0  0
 19 20  1  0  0  0
 19 31  1  0  0  0
 19 42  1  0  0  0
 19 43  1  0  0  0
 20 22  1  0  0  0
 20 32  1  0  0  0
 20 44  1  0  0  0
 21 32  1  0  0  0
 21 45  1  0  0  0
 22 46  1  0  0  0
 22 47  1  0  0  0
 23 48  1  0  0  0
 24 25  3  0  0  0
 25 49  1  0  0  0
 32 50  1  0  0  0
 33 51  1  0  0  0
 52 53  1  0  0  0
 52 58  1  0  0  0
 52 61  1  0  0  0
 52 62  1  0  0  0
 53 57  1  0  0  0
 53 63  1  0  0  0
 53 64  1  0  0  0
 54 57  1  0  0  0
 54 59  1  0  0  0
 54 65  1  0  0  0
 54 66  1  0  0  0
 55 59  1  0  0  0
 55 60  1  0  0  0
 55 67  1  0  0  0
 55 68  1  0  0  0
 56 57  2  0  0  0
 56 60  1  0  0  0
 56 69  1  0  0  0
 58 70  1  0  0  0
 58 71  1  0  0  0
 59 72  1  0  0  0
 59 73  1  0  0  0
 60 74  1  0  0  0
 60 75  1  0  0  0
M  CHG  1  52   1
M  END
> <s_m_entry_id>
226

> <s_m_entry_name>
000000226.1

> <s_m_Source_Path>
/Users/zaksoul/Documents/2

> <s_m_Source_File>
000000226.mol2

> <i_m_Source_File_Index>
1

$$$$
No_0_237
                    3D
 Schrodinger Suite 2022-4.
 73 79  0  0  1  0            999 V2000
   -5.5370    3.5680  -22.1520 C   0  0  0  0  0  0
   -5.7710    3.7350  -23.4960 C   0  0  0  0  0  0
   -4.3090    3.3100  -21.7790 C   0  0  0  0  0  0
   -3.3680    3.3890  -23.9260 C   0  0  0  0  0  0
   -3.2420    3.1690  -22.4980 C   0  0  0  0  0  0
   -4.7010    3.6550  -24.4810 C   0  0  0  0  0  0
   -3.8970    3.6310  -26.6620 C   0  0  0  0  0  0
    5.7050    2.9010  -21.1680 C   0  0  0  0  0  0
    5.6240    2.9990  -23.7220 C   0  0  0  0  0  0
   -4.9220    3.7610  -25.8240 C   0  0  0  0  0  0
    1.8460    3.5810  -23.8340 C   0  0  0  0  0  0
    1.0290    4.7030  -23.5720 C   0  0  0  0  0  0
    2.8230    5.8940  -22.8730 C   0  0  0  0  0  0
    3.2410    3.7650  -23.4920 C   0  0  0  0  0  0
    1.3040    2.4580  -24.4870 C   0  0  0  0  0  0
   -0.8170    3.2920  -24.4390 C   0  0  0  0  0  0
   -0.2920    4.5180  -23.8500 C   0  0  0  0  0  0
   -2.2620    3.3050  -24.8260 C   0  0  0  0  0  0
    3.8160    1.2670  -23.1430 C   0  0  0  0  0  0
    4.7210    0.9230  -21.9700 C   0  0  2  0  0  0
    6.3400    2.4400  -22.4980 C   0  0  2  0  0  0
    4.6860    1.9450  -20.8210 C   0  0  0  0  0  0
   -2.5540    3.4430  -26.2630 C   0  0  0  0  0  0
   -1.9150    2.7540  -21.8620 C   0  0  0  0  0  0
   -0.8990    2.4060  -21.3270 C   0  0  0  0  0  0
   -1.1320    5.5770  -23.5420 F   0  0  0  0  0  0
   -4.1320    3.0900  -20.3880 F   0  0  0  0  0  0
    1.5050    5.8660  -23.0510 N   0  0  0  0  0  0
    3.7150    4.9190  -23.0570 N   0  0  0  0  0  0
    0.0040    2.3750  -24.8200 N   0  0  0  0  0  0
    4.1530    2.7060  -23.6310 N   0  0  0  0  0  0
    6.1380    0.9690  -22.4220 N   0  0  1  0  0  0
   -4.0390    3.6220  -28.0560 O   0  0  0  0  0  0
   -6.3540    3.6513  -21.4444 H   0  0  0  0  0  0
   -6.7761    3.9336  -23.8501 H   0  0  0  0  0  0
    5.2458    3.8911  -21.3053 H   0  0  0  0  0  0
    6.4736    2.9182  -20.3812 H   0  0  0  0  0  0
    6.0349    2.5346  -24.6306 H   0  0  0  0  0  0
    5.7783    4.0871  -23.7704 H   0  0  0  0  0  0
   -5.9226    3.9487  -26.1963 H   0  0  0  0  0  0
    1.9411    1.6182  -24.7398 H   0  0  0  0  0  0
    2.7653    1.2266  -22.8200 H   0  0  0  0  0  0
    3.9906    0.5533  -23.9616 H   0  0  0  0  0  0
    4.4788   -0.0803  -21.5895 H   0  0  0  0  0  0
    7.4117    2.6862  -22.5252 H   0  0  0  0  0  0
    3.7067    2.4458  -20.8079 H   0  0  0  0  0  0
    4.9605    1.4454  -19.8803 H   0  0  0  0  0  0
   -1.7682    3.4019  -27.0086 H   0  0  0  0  0  0
   -0.0047    2.0989  -20.8568 H   0  0  0  0  0  0
    6.7656    0.4783  -21.6928 H   0  0  0  0  0  0
   -3.1858    3.5191  -28.4608 H   0  0  0  0  0  0
    3.6880    7.2320  -20.9410 N   0  0  1  0  0  0
    6.7830   10.0870  -22.4070 N   0  0  0  0  0  0
    7.5430    9.2790  -21.5370 N   0  0  0  0  0  0
    5.4220    8.9720  -21.1100 C   0  0  0  0  0  0
    4.1670    8.5450  -20.3860 C   0  0  0  0  0  0
    3.3850    7.2360  -22.4160 C   0  0  0  0  0  0
    4.4790   10.6940  -22.9370 C   0  0  0  0  0  0
    7.2970    7.6790  -19.7060 C   0  0  0  0  0  0
    6.7430    8.6190  -20.7480 C   0  0  0  0  0  0
    5.5150    9.9240  -22.1540 C   0  0  0  0  0  0
    4.4440    6.4770  -20.7830 H   0  0  0  0  0  0
    7.2560   10.6810  -23.1030 H   0  0  0  0  0  0
    4.3831    8.4329  -19.3133 H   0  0  0  0  0  0
    3.3870    9.3080  -20.5250 H   0  0  0  0  0  0
    4.3039    7.4590  -22.9780 H   0  0  0  0  0  0
    2.6591    8.0319  -22.6390 H   0  0  0  0  0  0
    3.4741   10.4230  -22.5810 H   0  0  0  0  0  0
    4.6390   11.7730  -22.7950 H   0  0  0  0  0  0
    4.5680   10.4470  -24.0052 H   0  0  0  0  0  0
    6.4675    7.2223  -19.1463 H   0  0  0  0  0  0
    7.8842    6.8897  -20.1982 H   0  0  0  0  0  0
    7.9423    8.2372  -19.0117 H   0  0  0  0  0  0
  1  2  2  0  0  0
  1  3  1  0  0  0
  1 34  1  0  0  0
  2  6  1  0  0  0
  2 35  1  0  0  0
  3  5  2  0  0  0
  3 27  1  0  0  0
  4  5  1  0  0  0
  4  6  2  0  0  0
  4 18  1  0  0  0
  5 24  1  0  0  0
  6 10  1  0  0  0
  7 10  2  0  0  0
  7 23  1  0  0  0
  7 33  1  0  0  0
  8 21  1  0  0  0
  8 22  1  0  0  0
  8 36  1  0  0  0
  8 37  1  0  0  0
  9 21  1  0  0  0
  9 31  1  0  0  0
  9 38  1  0  0  0
  9 39  1  0  0  0
 10 40  1  0  0  0
 11 12  1  0  0  0
 11 14  2  0  0  0
 11 15  1  0  0  0
 12 17  1  0  0  0
 12 28  2  0  0  0
 13 28  1  0  0  0
 13 29  2  0  0  0
 13 57  1  0  0  0
 14 29  1  0  0  0
 14 31  1  0  0  0
 15 30  2  0  0  0
 15 41  1  0  0  0
 16 17  2  0  0  0
 16 18  1  0  0  0
 16 30  1  0  0  0
 17 26  1  0  0  0
 18 23  2  0  0  0
 19 20  1  0  0  0
 19 31  1  0  0  0
 19 42  1  0  0  0
 19 43  1  0  0  0
 20 22  1  0  0  0
 20 32  1  0  0  0
 20 44  1  0  0  0
 21 32  1  0  0  0
 21 45  1  0  0  0
 22 46  1  0  0  0
 22 47  1  0  0  0
 23 48  1  0  0  0
 24 25  3  0  0  0
 25 49  1  0  0  0
 32 50  1  0  0  0
 33 51  1  0  0  0
 52 56  1  0  0  0
 52 57  1  0  0  0
 52 62  1  0  0  0
 53 54  1  0  0  0
 53 61  1  0  0  0
 53 63  1  0  0  0
 54 60  2  0  0  0
 55 56  1  0  0  0
 55 60  1  0  0  0
 55 61  2  0  0  0
 56 64  1  0  0  0
 56 65  1  0  0  0
 57 66  1  0  0  0
 57 67  1  0  0  0
 58 61  1  0  0  0
 58 68  1  0  0  0
 58 69  1  0  0  0
 58 70  1  0  0  0
 59 60  1  0  0  0
 59 71  1  0  0  0
 59 72  1  0  0  0
 59 73  1  0  0  0
M  END
> <s_m_entry_id>
227

> <s_m_entry_name>
000000227.1

> <s_m_Source_Path>
/Users/zaksoul/Documents/2

> <s_m_Source_File>
000000227.mol2

> <i_m_Source_File_Index>
1

$$$$
No_0_238
                    3D
 Schrodinger Suite 2022-4.
 73 79  0  0  1  0            999 V2000
   -5.2350    3.3250  -22.1960 C   0  0  0  0  0  0
   -5.4630    3.5300  -23.5360 C   0  0  0  0  0  0
   -4.0010    3.1060  -21.8180 C   0  0  0  0  0  0
   -3.0440    3.3010  -23.9500 C   0  0  0  0  0  0
   -2.9220    3.0350  -22.5290 C   0  0  0  0  0  0
   -4.3810    3.5300  -24.5110 C   0  0  0  0  0  0
   -3.5560    3.6160  -26.6820 C   0  0  0  0  0  0
    6.0140    3.0970  -21.1080 C   0  0  0  0  0  0
    5.9550    3.2820  -23.6570 C   0  0  0  0  0  0
   -4.5930    3.6740  -25.8520 C   0  0  0  0  0  0
    2.1570    3.7080  -23.7920 C   0  0  0  0  0  0
    1.2910    4.7840  -23.5010 C   0  0  0  0  0  0
    3.0250    6.0240  -22.7410 C   0  0  0  0  0  0
    3.5390    3.9380  -23.4290 C   0  0  0  0  0  0
    1.6690    2.5870  -24.4900 C   0  0  0  0  0  0
   -0.4860    3.3290  -24.4370 C   0  0  0  0  0  0
   -0.0190    4.5540  -23.7990 C   0  0  0  0  0  0
   -1.9260    3.2950  -24.8400 C   0  0  0  0  0  0
    4.2160    1.4560  -23.1600 C   0  0  0  0  0  0
    5.1230    1.1090  -21.9890 C   0  0  2  0  0  0
    6.6810    2.7100  -22.4450 C   0  0  2  0  0  0
    5.0340    2.0870  -20.8060 C   0  0  0  0  0  0
   -2.2090    3.4710  -26.2750 C   0  0  0  0  0  0
   -1.5850    2.6540  -21.8930 C   0  0  0  0  0  0
   -0.5610    2.3300  -21.3600 C   0  0  0  0  0  0
   -0.9060    5.5650  -23.4650 F   0  0  0  0  0  0
   -3.8290    2.8450  -20.4340 F   0  0  0  0  0  0
    1.7120    5.9480  -22.9340 N   0  0  0  0  0  0
    3.9600    5.0950  -22.9470 N   0  0  0  0  0  0
    0.3770    2.4610  -24.8410 N   0  0  0  0  0  0
    4.4960    2.9230  -23.5930 N   0  0  0  0  0  0
    6.5410    1.2300  -22.4230 N   0  0  1  0  0  0
   -3.6830    3.6510  -28.0760 O   0  0  0  0  0  0
   -6.0619    3.3491  -21.4955 H   0  0  0  0  0  0
   -6.4722    3.6985  -23.8941 H   0  0  0  0  0  0
    5.5152    4.0714  -21.2160 H   0  0  0  0  0  0
    6.7738    3.1182  -20.3129 H   0  0  0  0  0  0
    6.3937    2.8675  -24.5767 H   0  0  0  0  0  0
    6.0631    4.3766  -23.6661 H   0  0  0  0  0  0
   -5.5971    3.8326  -26.2285 H   0  0  0  0  0  0
    2.3434    1.7841  -24.7650 H   0  0  0  0  0  0
    3.1646    1.3601  -22.8512 H   0  0  0  0  0  0
    4.4279    0.7789  -24.0006 H   0  0  0  0  0  0
    4.9191    0.0836  -21.6469 H   0  0  0  0  0  0
    7.7416    3.0016  -22.4521 H   0  0  0  0  0  0
    4.0341    2.5451  -20.7868 H   0  0  0  0  0  0
    5.3197    1.5661  -19.8802 H   0  0  0  0  0  0
   -1.4145    3.4901  -27.0122 H   0  0  0  0  0  0
    0.3408    2.0451  -20.8901 H   0  0  0  0  0  0
    7.1815    0.7403  -21.7044 H   0  0  0  0  0  0
   -2.8224    3.5976  -28.4747 H   0  0  0  0  0  0
    4.2170    7.2350  -20.8990 N   0  0  1  0  0  0
    6.4310   10.7010  -22.6200 N   0  0  0  0  0  0
    7.4900    9.9230  -22.1100 N   0  0  0  0  0  0
    5.6170    9.2340  -21.2180 C   0  0  0  0  0  0
    4.6680    8.5280  -20.2800 C   0  0  0  0  0  0
    3.5250    7.3720  -22.2310 C   0  0  0  0  0  0
    4.0140   10.9960  -22.4480 C   0  0  0  0  0  0
    7.9440    8.0900  -20.5570 C   0  0  0  0  0  0
    7.0200    9.0520  -21.2610 C   0  0  0  0  0  0
    5.3080   10.3100  -22.0850 C   0  0  0  0  0  0
    5.0711    6.5939  -21.0600 H   0  0  0  0  0  0
    6.6211   11.4433  -23.3083 H   0  0  0  0  0  0
    5.1793    8.3209  -19.3284 H   0  0  0  0  0  0
    3.7940    9.1693  -20.0932 H   0  0  0  0  0  0
    4.2231    7.8041  -22.9631 H   0  0  0  0  0  0
    2.6757    8.0642  -22.1330 H   0  0  0  0  0  0
    3.1830   10.5290  -21.8990 H   0  0  0  0  0  0
    4.0760   12.0613  -22.1812 H   0  0  0  0  0  0
    3.8381   10.9000  -23.5296 H   0  0  0  0  0  0
    7.3597    7.4426  -19.8866 H   0  0  0  0  0  0
    8.4662    7.4708  -21.3013 H   0  0  0  0  0  0
    8.6823    8.6545  -19.9686 H   0  0  0  0  0  0
  1  2  2  0  0  0
  1  3  1  0  0  0
  1 34  1  0  0  0
  2  6  1  0  0  0
  2 35  1  0  0  0
  3  5  2  0  0  0
  3 27  1  0  0  0
  4  5  1  0  0  0
  4  6  2  0  0  0
  4 18  1  0  0  0
  5 24  1  0  0  0
  6 10  1  0  0  0
  7 10  2  0  0  0
  7 23  1  0  0  0
  7 33  1  0  0  0
  8 21  1  0  0  0
  8 22  1  0  0  0
  8 36  1  0  0  0
  8 37  1  0  0  0
  9 21  1  0  0  0
  9 31  1  0  0  0
  9 38  1  0  0  0
  9 39  1  0  0  0
 10 40  1  0  0  0
 11 12  1  0  0  0
 11 14  2  0  0  0
 11 15  1  0  0  0
 12 17  1  0  0  0
 12 28  2  0  0  0
 13 28  1  0  0  0
 13 29  2  0  0  0
 13 57  1  0  0  0
 14 29  1  0  0  0
 14 31  1  0  0  0
 15 30  2  0  0  0
 15 41  1  0  0  0
 16 17  2  0  0  0
 16 18  1  0  0  0
 16 30  1  0  0  0
 17 26  1  0  0  0
 18 23  2  0  0  0
 19 20  1  0  0  0
 19 31  1  0  0  0
 19 42  1  0  0  0
 19 43  1  0  0  0
 20 22  1  0  0  0
 20 32  1  0  0  0
 20 44  1  0  0  0
 21 32  1  0  0  0
 21 45  1  0  0  0
 22 46  1  0  0  0
 22 47  1  0  0  0
 23 48  1  0  0  0
 24 25  3  0  0  0
 25 49  1  0  0  0
 32 50  1  0  0  0
 33 51  1  0  0  0
 52 56  1  0  0  0
 52 57  1  0  0  0
 52 62  1  0  0  0
 53 54  1  0  0  0
 53 61  1  0  0  0
 53 63  1  0  0  0
 54 60  2  0  0  0
 55 56  1  0  0  0
 55 60  1  0  0  0
 55 61  2  0  0  0
 56 64  1  0  0  0
 56 65  1  0  0  0
 57 66  1  0  0  0
 57 67  1  0  0  0
 58 61  1  0  0  0
 58 68  1  0  0  0
 58 69  1  0  0  0
 58 70  1  0  0  0
 59 60  1  0  0  0
 59 71  1  0  0  0
 59 72  1  0  0  0
 59 73  1  0  0  0
M  END
> <s_m_entry_id>
228

> <s_m_entry_name>
000000228.1

> <s_m_Source_Path>
/Users/zaksoul/Documents/2

> <s_m_Source_File>
000000228.mol2

> <i_m_Source_File_Index>
1

$$$$
No_0_239
                    3D
 Schrodinger Suite 2022-4.
 69 74  0  0  1  0            999 V2000
   -5.2650    3.4370  -22.1840 C   0  0  0  0  0  0
   -5.5210    3.5910  -23.5260 C   0  0  0  0  0  0
   -4.0270    3.2080  -21.8260 C   0  0  0  0  0  0
   -3.1170    3.2960  -23.9850 C   0  0  0  0  0  0
   -2.9670    3.0870  -22.5580 C   0  0  0  0  0  0
   -4.4620    3.5290  -24.5250 C   0  0  0  0  0  0
   -3.6860    3.5100  -26.7160 C   0  0  0  0  0  0
    6.0000    3.0260  -21.3440 C   0  0  0  0  0  0
    5.8840    3.1070  -23.8970 C   0  0  0  0  0  0
   -4.7020    3.6220  -25.8650 C   0  0  0  0  0  0
    2.0930    3.6050  -23.9620 C   0  0  0  0  0  0
    1.2550    4.7090  -23.6970 C   0  0  0  0  0  0
    3.0310    5.9440  -23.0280 C   0  0  0  0  0  0
    3.4880    3.8210  -23.6410 C   0  0  0  0  0  0
    1.5680    2.4650  -24.6030 C   0  0  0  0  0  0
   -0.5710    3.2530  -24.5310 C   0  0  0  0  0  0
   -0.0660    4.4940  -23.9560 C   0  0  0  0  0  0
   -2.0200    3.2320  -24.8990 C   0  0  0  0  0  0
    4.1230    1.3390  -23.2850 C   0  0  0  0  0  0
    5.0500    1.0220  -22.1220 C   0  0  2  0  0  0
    6.6280    2.5710  -22.6790 C   0  0  2  0  0  0
    5.0080    2.0500  -20.9780 C   0  0  0  0  0  0
   -2.3340    3.3540  -26.3330 C   0  0  0  0  0  0
   -1.6230    2.7050  -21.9380 C   0  0  0  0  0  0
   -0.5930    2.3830  -21.4140 C   0  0  0  0  0  0
   -0.9250    5.5350  -23.6430 F   0  0  0  0  0  0
   -3.8270    3.0000  -20.4370 F   0  0  0  0  0  0
    1.7120    5.8860  -23.1880 N   0  0  0  0  0  0
    3.9420    4.9880  -23.2170 N   0  0  0  0  0  0
    0.2660    2.3520  -24.9180 N   0  0  0  0  0  0
    4.4210    2.7820  -23.7850 N   0  0  0  0  0  0
    6.4600    1.0970  -22.5920 N   0  0  1  0  0  0
   -3.8460    3.4900  -28.1070 O   0  0  0  0  0  0
   -6.0752    3.5063  -21.4672 H   0  0  0  0  0  0
   -6.5348    3.7646  -23.8683 H   0  0  0  0  0  0
    5.5175    4.0051  -21.4803 H   0  0  0  0  0  0
    6.7778    3.0643  -20.5672 H   0  0  0  0  0  0
    6.2937    2.6468  -24.8083 H   0  0  0  0  0  0
    6.0132    4.1979  -23.9535 H   0  0  0  0  0  0
   -5.7113    3.7855  -26.2252 H   0  0  0  0  0  0
    2.2208    1.6384  -24.8591 H   0  0  0  0  0  0
    3.0778    1.2764  -22.9480 H   0  0  0  0  0  0
    4.3027    0.6243  -24.1017 H   0  0  0  0  0  0
    4.8351    0.0160  -21.7325 H   0  0  0  0  0  0
    7.6933    2.8416  -22.7214 H   0  0  0  0  0  0
    4.0176    2.5281  -20.9558 H   0  0  0  0  0  0
    5.3057    1.5615  -20.0384 H   0  0  0  0  0  0
   -1.5573    3.3269  -27.0887 H   0  0  0  0  0  0
    0.3137    2.0991  -20.9531 H   0  0  0  0  0  0
    7.1068    0.6234  -21.8683 H   0  0  0  0  0  0
   -2.9961    3.4029  -28.5225 H   0  0  0  0  0  0
    7.6110   10.8220  -21.5260 O   0  5  0  0  0  0
    8.9750    9.0650  -21.0150 O   0  0  0  0  0  0
    3.8900    7.3120  -21.1150 N   0  3  0  0  0  0
    4.1020    8.6740  -20.5050 C   0  0  0  0  0  0
    3.5680    7.3010  -22.5860 C   0  0  0  0  0  0
    5.3170    9.4450  -21.0580 C   0  0  0  0  0  0
    6.6510    8.8660  -20.5480 C   0  0  0  0  0  0
    7.8360    9.6470  -21.0680 C   0  0  0  0  0  0
    3.1617    6.8308  -20.6108 H   0  0  0  0  0  0
    4.7046    6.7423  -20.9481 H   0  0  0  0  0  0
    4.2000    8.5720  -19.4141 H   0  0  0  0  0  0
    3.1933    9.2788  -20.6410 H   0  0  0  0  0  0
    4.4744    7.5411  -23.1612 H   0  0  0  0  0  0
    2.8211    8.0789  -22.8030 H   0  0  0  0  0  0
    5.2420   10.5031  -20.7670 H   0  0  0  0  0  0
    5.3010    9.4130  -22.1574 H   0  0  0  0  0  0
    6.7380    7.8154  -20.8622 H   0  0  0  0  0  0
    6.6590    8.8790  -19.4481 H   0  0  0  0  0  0
  1  2  2  0  0  0
  1  3  1  0  0  0
  1 34  1  0  0  0
  2  6  1  0  0  0
  2 35  1  0  0  0
  3  5  2  0  0  0
  3 27  1  0  0  0
  4  5  1  0  0  0
  4  6  2  0  0  0
  4 18  1  0  0  0
  5 24  1  0  0  0
  6 10  1  0  0  0
  7 10  2  0  0  0
  7 23  1  0  0  0
  7 33  1  0  0  0
  8 21  1  0  0  0
  8 22  1  0  0  0
  8 36  1  0  0  0
  8 37  1  0  0  0
  9 21  1  0  0  0
  9 31  1  0  0  0
  9 38  1  0  0  0
  9 39  1  0  0  0
 10 40  1  0  0  0
 11 12  1  0  0  0
 11 14  2  0  0  0
 11 15  1  0  0  0
 12 17  1  0  0  0
 12 28  2  0  0  0
 13 28  1  0  0  0
 13 29  2  0  0  0
 13 56  1  0  0  0
 14 29  1  0  0  0
 14 31  1  0  0  0
 15 30  2  0  0  0
 15 41  1  0  0  0
 16 17  2  0  0  0
 16 18  1  0  0  0
 16 30  1  0  0  0
 17 26  1  0  0  0
 18 23  2  0  0  0
 19 20  1  0  0  0
 19 31  1  0  0  0
 19 42  1  0  0  0
 19 43  1  0  0  0
 20 22  1  0  0  0
 20 32  1  0  0  0
 20 44  1  0  0  0
 21 32  1  0  0  0
 21 45  1  0  0  0
 22 46  1  0  0  0
 22 47  1  0  0  0
 23 48  1  0  0  0
 24 25  3  0  0  0
 25 49  1  0  0  0
 32 50  1  0  0  0
 33 51  1  0  0  0
 52 59  1  0  0  0
 53 59  2  0  0  0
 54 55  1  0  0  0
 54 56  1  0  0  0
 54 60  1  0  0  0
 54 61  1  0  0  0
 55 57  1  0  0  0
 55 62  1  0  0  0
 55 63  1  0  0  0
 56 64  1  0  0  0
 56 65  1  0  0  0
 57 58  1  0  0  0
 57 66  1  0  0  0
 57 67  1  0  0  0
 58 59  1  0  0  0
 58 68  1  0  0  0
 58 69  1  0  0  0
M  CHG  2  52  -1  54   1
M  END
> <s_m_entry_id>
229

> <s_m_entry_name>
000000229.1

> <s_m_Source_Path>
/Users/zaksoul/Documents/2

> <s_m_Source_File>
000000229.mol2

> <i_m_Source_File_Index>
1

$$$$
No_0_240
                    3D
 Schrodinger Suite 2022-4.
 69 74  0  0  1  0            999 V2000
   -5.1530    3.4690  -22.1980 C   0  0  0  0  0  0
   -5.3920    3.6290  -23.5430 C   0  0  0  0  0  0
   -3.9210    3.2350  -21.8260 C   0  0  0  0  0  0
   -2.9840    3.3260  -23.9740 C   0  0  0  0  0  0
   -2.8520    3.1120  -22.5450 C   0  0  0  0  0  0
   -4.3220    3.5650  -24.5290 C   0  0  0  0  0  0
   -3.5190    3.5500  -26.7100 C   0  0  0  0  0  0
    6.0990    3.0150  -21.2220 C   0  0  0  0  0  0
    6.0150    3.1050  -23.7770 C   0  0  0  0  0  0
   -4.5450    3.6630  -25.8720 C   0  0  0  0  0  0
    2.2270    3.6160  -23.8870 C   0  0  0  0  0  0
    1.3890    4.7220  -23.6280 C   0  0  0  0  0  0
    3.1610    5.9490  -22.9340 C   0  0  0  0  0  0
    3.6180    3.8270  -23.5470 C   0  0  0  0  0  0
    1.7050    2.4810  -24.5370 C   0  0  0  0  0  0
   -0.4320    3.2760  -24.4890 C   0  0  0  0  0  0
    0.0710    4.5130  -23.9030 C   0  0  0  0  0  0
   -1.8760    3.2610  -24.8740 C   0  0  0  0  0  0
    4.2400    1.3410  -23.1920 C   0  0  0  0  0  0
    5.1520    1.0170  -22.0180 C   0  0  2  0  0  0
    6.7420    2.5620  -22.5510 C   0  0  2  0  0  0
    5.0990    2.0420  -20.8720 C   0  0  0  0  0  0
   -2.1720    3.3880  -26.3120 C   0  0  0  0  0  0
   -1.5170    2.7240  -21.9100 C   0  0  0  0  0  0
   -0.4940    2.3960  -21.3750 C   0  0  0  0  0  0
   -0.7880    5.5560  -23.5980 F   0  0  0  0  0  0
   -3.7380    3.0230  -20.4350 F   0  0  0  0  0  0
    1.8440    5.8960  -23.1100 N   0  0  0  0  0  0
    4.0710    4.9910  -23.1150 N   0  0  0  0  0  0
    0.4060    2.3720  -24.8680 N   0  0  0  0  0  0
    4.5490    2.7840  -23.6830 N   0  0  0  0  0  0
    6.5680    1.0880  -22.4710 N   0  0  1  0  0  0
   -3.6620    3.5350  -28.1030 O   0  0  0  0  0  0
   -5.9711    3.5393  -21.4903 H   0  0  0  0  0  0
   -6.4011    3.8077  -23.8964 H   0  0  0  0  0  0
    5.6216    3.9960  -21.3623 H   0  0  0  0  0  0
    6.8683    3.0483  -20.4365 H   0  0  0  0  0  0
    6.4339    2.6457  -24.6845 H   0  0  0  0  0  0
    6.1482    4.1957  -23.8285 H   0  0  0  0  0  0
   -5.5494    3.8316  -26.2433 H   0  0  0  0  0  0
    2.3572    1.6523  -24.7878 H   0  0  0  0  0  0
    3.1908    1.2815  -22.8671 H   0  0  0  0  0  0
    4.4267    0.6277  -24.0083 H   0  0  0  0  0  0
    4.9289    0.0105  -21.6344 H   0  0  0  0  0  0
    7.8088    2.8285  -22.5803 H   0  0  0  0  0  0
    4.1100    2.5234  -20.8599 H   0  0  0  0  0  0
    5.3836    1.5495  -19.9305 H   0  0  0  0  0  0
   -1.3859    3.3609  -27.0579 H   0  0  0  0  0  0
    0.4061    2.1080  -20.9039 H   0  0  0  0  0  0
    7.2044    0.6109  -21.7404 H   0  0  0  0  0  0
   -2.8074    3.4470  -28.5085 H   0  0  0  0  0  0
    7.6490   11.0430  -21.9600 O   0  5  0  0  0  0
    9.1990    9.3670  -21.9360 O   0  0  0  0  0  0
    4.3370    7.2140  -21.1210 N   0  3  0  0  0  0
    4.5940    8.5310  -20.4340 C   0  0  0  0  0  0
    3.6980    7.3030  -22.4810 C   0  0  0  0  0  0
    5.6060    9.4450  -21.1540 C   0  0  0  0  0  0
    7.0530    8.9370  -21.0040 C   0  0  0  0  0  0
    8.0420    9.8550  -21.6840 C   0  0  0  0  0  0
    3.7702    6.6322  -20.5242 H   0  0  0  0  0  0
    5.2018    6.7011  -21.1920 H   0  0  0  0  0  0
    4.9380    8.3450  -19.4059 H   0  0  0  0  0  0
    3.6420    9.0680  -20.3100 H   0  0  0  0  0  0
    4.4380    7.6650  -23.2100 H   0  0  0  0  0  0
    2.8749    8.0321  -22.4520 H   0  0  0  0  0  0
    5.5320   10.4642  -20.7469 H   0  0  0  0  0  0
    5.3488    9.5060  -22.2218 H   0  0  0  0  0  0
    7.1330    7.9281  -21.4350 H   0  0  0  0  0  0
    7.3040    8.8560  -19.9361 H   0  0  0  0  0  0
  1  2  2  0  0  0
  1  3  1  0  0  0
  1 34  1  0  0  0
  2  6  1  0  0  0
  2 35  1  0  0  0
  3  5  2  0  0  0
  3 27  1  0  0  0
  4  5  1  0  0  0
  4  6  2  0  0  0
  4 18  1  0  0  0
  5 24  1  0  0  0
  6 10  1  0  0  0
  7 10  2  0  0  0
  7 23  1  0  0  0
  7 33  1  0  0  0
  8 21  1  0  0  0
  8 22  1  0  0  0
  8 36  1  0  0  0
  8 37  1  0  0  0
  9 21  1  0  0  0
  9 31  1  0  0  0
  9 38  1  0  0  0
  9 39  1  0  0  0
 10 40  1  0  0  0
 11 12  1  0  0  0
 11 14  2  0  0  0
 11 15  1  0  0  0
 12 17  1  0  0  0
 12 28  2  0  0  0
 13 28  1  0  0  0
 13 29  2  0  0  0
 13 56  1  0  0  0
 14 29  1  0  0  0
 14 31  1  0  0  0
 15 30  2  0  0  0
 15 41  1  0  0  0
 16 17  2  0  0  0
 16 18  1  0  0  0
 16 30  1  0  0  0
 17 26  1  0  0  0
 18 23  2  0  0  0
 19 20  1  0  0  0
 19 31  1  0  0  0
 19 42  1  0  0  0
 19 43  1  0  0  0
 20 22  1  0  0  0
 20 32  1  0  0  0
 20 44  1  0  0  0
 21 32  1  0  0  0
 21 45  1  0  0  0
 22 46  1  0  0  0
 22 47  1  0  0  0
 23 48  1  0  0  0
 24 25  3  0  0  0
 25 49  1  0  0  0
 32 50  1  0  0  0
 33 51  1  0  0  0
 52 59  1  0  0  0
 53 59  2  0  0  0
 54 55  1  0  0  0
 54 56  1  0  0  0
 54 60  1  0  0  0
 54 61  1  0  0  0
 55 57  1  0  0  0
 55 62  1  0  0  0
 55 63  1  0  0  0
 56 64  1  0  0  0
 56 65  1  0  0  0
 57 58  1  0  0  0
 57 66  1  0  0  0
 57 67  1  0  0  0
 58 59  1  0  0  0
 58 68  1  0  0  0
 58 69  1  0  0  0
M  CHG  2  52  -1  54   1
M  END
> <s_m_entry_id>
230

> <s_m_entry_name>
000000230.1

> <s_m_Source_Path>
/Users/zaksoul/Documents/2

> <s_m_Source_File>
000000230.mol2

> <i_m_Source_File_Index>
1

$$$$
No_0_241
                    3D
 Schrodinger Suite 2022-4.
 69 74  0  0  1  0            999 V2000
   -5.2520    3.3170  -22.1040 C   0  0  0  0  0  0
   -5.4880    3.5000  -23.4460 C   0  0  0  0  0  0
   -4.0170    3.0990  -21.7300 C   0  0  0  0  0  0
   -3.0720    3.2520  -23.8710 C   0  0  0  0  0  0
   -2.9430    3.0110  -22.4470 C   0  0  0  0  0  0
   -4.4120    3.4780  -24.4280 C   0  0  0  0  0  0
   -3.5990    3.5230  -26.6050 C   0  0  0  0  0  0
    6.0020    3.0560  -21.0800 C   0  0  0  0  0  0
    5.9280    3.1970  -23.6320 C   0  0  0  0  0  0
   -4.6310    3.6000  -25.7690 C   0  0  0  0  0  0
    2.1310    3.6390  -23.7510 C   0  0  0  0  0  0
    1.2720    4.7240  -23.4740 C   0  0  0  0  0  0
    3.0170    5.9680  -22.7450 C   0  0  0  0  0  0
    3.5170    3.8680  -23.4000 C   0  0  0  0  0  0
    1.6350    2.5080  -24.4270 C   0  0  0  0  0  0
   -0.5170    3.2610  -24.3740 C   0  0  0  0  0  0
   -0.0410    4.4950  -23.7600 C   0  0  0  0  0  0
   -1.9600    3.2270  -24.7670 C   0  0  0  0  0  0
    4.1840    1.3880  -23.0930 C   0  0  0  0  0  0
    5.0960    1.0570  -21.9220 C   0  0  2  0  0  0
    6.6590    2.6430  -22.4150 C   0  0  2  0  0  0
    5.0190    2.0560  -20.7560 C   0  0  0  0  0  0
   -2.2510    3.3790  -26.2030 C   0  0  0  0  0  0
   -1.6040    2.6350  -21.8120 C   0  0  0  0  0  0
   -0.5780    2.3150  -21.2790 C   0  0  0  0  0  0
   -0.9210    5.5150  -23.4380 F   0  0  0  0  0  0
   -3.8370    2.8600  -20.3430 F   0  0  0  0  0  0
    1.7020    5.8950  -22.9290 N   0  0  0  0  0  0
    3.9450    5.0320  -22.9420 N   0  0  0  0  0  0
    0.3400    2.3820  -24.7680 N   0  0  0  0  0  0
    4.4680    2.8470  -23.5530 N   0  0  0  0  0  0
    6.5130    1.1640  -22.3670 N   0  0  1  0  0  0
   -3.7350    3.5350  -27.9990 O   0  0  0  0  0  0
   -6.0749    3.3571  -21.3995 H   0  0  0  0  0  0
   -6.4985    3.6666  -23.8012 H   0  0  0  0  0  0
    5.5063    4.0303  -21.2022 H   0  0  0  0  0  0
    6.7668    3.0873  -20.2900 H   0  0  0  0  0  0
    6.3598    2.7652  -24.5470 H   0  0  0  0  0  0
    6.0410    4.2908  -23.6613 H   0  0  0  0  0  0
   -5.6364    3.7567  -26.1426 H   0  0  0  0  0  0
    2.3035    1.6969  -24.6920 H   0  0  0  0  0  0
    3.1342    1.3022  -22.7760 H   0  0  0  0  0  0
    4.3878    0.6959  -23.9233 H   0  0  0  0  0  0
    4.8911    0.0385  -21.5606 H   0  0  0  0  0  0
    7.7208    2.9297  -22.4332 H   0  0  0  0  0  0
    4.0214    2.5190  -20.7378 H   0  0  0  0  0  0
    5.3085    1.5506  -19.8229 H   0  0  0  0  0  0
   -1.4608    3.3810  -26.9450 H   0  0  0  0  0  0
    0.3256    2.0341  -20.8102 H   0  0  0  0  0  0
    7.1553    0.6841  -21.6434 H   0  0  0  0  0  0
   -2.8770    3.4707  -28.4018 H   0  0  0  0  0  0
    7.1560   11.4070  -22.1730 O   0  5  0  0  0  0
    8.8070    9.9190  -22.6920 O   0  0  0  0  0  0
    4.4660    7.1720  -21.0950 N   0  3  0  0  0  0
    4.7600    8.4360  -20.3280 C   0  0  0  0  0  0
    3.5260    7.3220  -22.2610 C   0  0  0  0  0  0
    5.4980    9.5220  -21.1370 C   0  0  0  0  0  0
    6.9780    9.1650  -21.3700 C   0  0  0  0  0  0
    7.7020   10.2490  -22.1350 C   0  0  0  0  0  0
    4.1032    6.4753  -20.4633 H   0  0  0  0  0  0
    5.3316    6.7672  -21.4158 H   0  0  0  0  0  0
    5.3462    8.1889  -19.4306 H   0  0  0  0  0  0
    3.8201    8.8500  -19.9340 H   0  0  0  0  0  0
    4.0438    7.8338  -23.0856 H   0  0  0  0  0  0
    2.6725    7.9497  -21.9652 H   0  0  0  0  0  0
    5.4320   10.4820  -20.6040 H   0  0  0  0  0  0
    4.9967    9.6591  -22.1065 H   0  0  0  0  0  0
    7.0430    8.2185  -21.9267 H   0  0  0  0  0  0
    7.4740    9.0070  -20.4010 H   0  0  0  0  0  0
  1  2  2  0  0  0
  1  3  1  0  0  0
  1 34  1  0  0  0
  2  6  1  0  0  0
  2 35  1  0  0  0
  3  5  2  0  0  0
  3 27  1  0  0  0
  4  5  1  0  0  0
  4  6  2  0  0  0
  4 18  1  0  0  0
  5 24  1  0  0  0
  6 10  1  0  0  0
  7 10  2  0  0  0
  7 23  1  0  0  0
  7 33  1  0  0  0
  8 21  1  0  0  0
  8 22  1  0  0  0
  8 36  1  0  0  0
  8 37  1  0  0  0
  9 21  1  0  0  0
  9 31  1  0  0  0
  9 38  1  0  0  0
  9 39  1  0  0  0
 10 40  1  0  0  0
 11 12  1  0  0  0
 11 14  2  0  0  0
 11 15  1  0  0  0
 12 17  1  0  0  0
 12 28  2  0  0  0
 13 28  1  0  0  0
 13 29  2  0  0  0
 13 56  1  0  0  0
 14 29  1  0  0  0
 14 31  1  0  0  0
 15 30  2  0  0  0
 15 41  1  0  0  0
 16 17  2  0  0  0
 16 18  1  0  0  0
 16 30  1  0  0  0
 17 26  1  0  0  0
 18 23  2  0  0  0
 19 20  1  0  0  0
 19 31  1  0  0  0
 19 42  1  0  0  0
 19 43  1  0  0  0
 20 22  1  0  0  0
 20 32  1  0  0  0
 20 44  1  0  0  0
 21 32  1  0  0  0
 21 45  1  0  0  0
 22 46  1  0  0  0
 22 47  1  0  0  0
 23 48  1  0  0  0
 24 25  3  0  0  0
 25 49  1  0  0  0
 32 50  1  0  0  0
 33 51  1  0  0  0
 52 59  1  0  0  0
 53 59  2  0  0  0
 54 55  1  0  0  0
 54 56  1  0  0  0
 54 60  1  0  0  0
 54 61  1  0  0  0
 55 57  1  0  0  0
 55 62  1  0  0  0
 55 63  1  0  0  0
 56 64  1  0  0  0
 56 65  1  0  0  0
 57 58  1  0  0  0
 57 66  1  0  0  0
 57 67  1  0  0  0
 58 59  1  0  0  0
 58 68  1  0  0  0
 58 69  1  0  0  0
M  CHG  2  52  -1  54   1
M  END
> <s_m_entry_id>
231

> <s_m_entry_name>
000000231.1

> <s_m_Source_Path>
/Users/zaksoul/Documents/2

> <s_m_Source_File>
000000231.mol2

> <i_m_Source_File_Index>
1

$$$$
No_0_242
                    3D
 Schrodinger Suite 2022-4.
 69 74  0  0  1  0            999 V2000
   -5.0890    3.4770  -22.0660 C   0  0  0  0  0  0
   -5.3290    3.6810  -23.4040 C   0  0  0  0  0  0
   -3.8570    3.2250  -21.7030 C   0  0  0  0  0  0
   -2.9230    3.3790  -23.8490 C   0  0  0  0  0  0
   -2.7900    3.1190  -22.4280 C   0  0  0  0  0  0
   -4.2610    3.6430  -24.3940 C   0  0  0  0  0  0
   -3.4620    3.6940  -26.5760 C   0  0  0  0  0  0
    6.1620    2.9310  -21.1250 C   0  0  0  0  0  0
    6.0740    3.1030  -23.6750 C   0  0  0  0  0  0
   -4.4860    3.7860  -25.7320 C   0  0  0  0  0  0
    2.2890    3.6380  -23.7620 C   0  0  0  0  0  0
    1.4580    4.7400  -23.4660 C   0  0  0  0  0  0
    3.2380    5.9340  -22.7370 C   0  0  0  0  0  0
    3.6820    3.8300  -23.4190 C   0  0  0  0  0  0
    1.7600    2.5270  -24.4470 C   0  0  0  0  0  0
   -0.3720    3.3320  -24.3700 C   0  0  0  0  0  0
    0.1380    4.5470  -23.7460 C   0  0  0  0  0  0
   -1.8180    3.3370  -24.7530 C   0  0  0  0  0  0
    4.2910    1.3310  -23.1440 C   0  0  0  0  0  0
    5.2030    0.9650  -21.9830 C   0  0  2  0  0  0
    6.8000    2.5170  -22.4690 C   0  0  2  0  0  0
    5.1580    1.9530  -20.8050 C   0  0  0  0  0  0
   -2.1150    3.5120  -26.1850 C   0  0  0  0  0  0
   -1.4560    2.7030  -21.8080 C   0  0  0  0  0  0
   -0.4350    2.3530  -21.2860 C   0  0  0  0  0  0
   -0.7140    5.5850  -23.4060 F   0  0  0  0  0  0
   -3.6730    2.9670  -20.3200 F   0  0  0  0  0  0
    1.9200    5.8950  -22.9120 N   0  0  0  0  0  0
    4.1420    4.9770  -22.9500 N   0  0  0  0  0  0
    0.4600    2.4360  -24.7790 N   0  0  0  0  0  0
    4.6070    2.7870  -23.5890 N   0  0  0  0  0  0
    6.6180    1.0430  -22.4360 N   0  0  1  0  0  0
   -3.6070    3.7240  -27.9690 O   0  0  0  0  0  0
   -5.9055    3.5292  -21.3549 H   0  0  0  0  0  0
   -6.3376    3.8757  -23.7502 H   0  0  0  0  0  0
    5.6907    3.9190  -21.2330 H   0  0  0  0  0  0
    6.9327    2.9350  -20.3402 H   0  0  0  0  0  0
    6.4889    2.6710  -24.5976 H   0  0  0  0  0  0
    6.2143    4.1939  -23.6922 H   0  0  0  0  0  0
   -5.4899    3.9717  -26.0964 H   0  0  0  0  0  0
    2.4076    1.7037  -24.7261 H   0  0  0  0  0  0
    3.2417    1.2674  -22.8201 H   0  0  0  0  0  0
    4.4728    0.6434  -23.9831 H   0  0  0  0  0  0
    4.9750   -0.0519  -21.6309 H   0  0  0  0  0  0
    7.8681    2.7792  -22.4912 H   0  0  0  0  0  0
    4.1719    2.4395  -20.7747 H   0  0  0  0  0  0
    5.4414    1.4295  -19.8800 H   0  0  0  0  0  0
   -1.3302    3.5040  -26.9327 H   0  0  0  0  0  0
    0.4645    2.0452  -20.8263 H   0  0  0  0  0  0
    7.2533    0.5392  -21.7226 H   0  0  0  0  0  0
   -2.7531    3.6439  -28.3776 H   0  0  0  0  0  0
    7.2990   11.4510  -22.4040 O   0  5  0  0  0  0
    8.8880   10.0490  -23.2530 O   0  0  0  0  0  0
    4.8860    7.0750  -21.2360 N   0  3  0  0  0  0
    5.2620    8.2960  -20.4360 C   0  0  0  0  0  0
    3.7830    7.2700  -22.2420 C   0  0  0  0  0  0
    5.8500    9.4530  -21.2680 C   0  0  0  0  0  0
    7.2880    9.1580  -21.7350 C   0  0  0  0  0  0
    7.8700   10.3090  -22.5220 C   0  0  0  0  0  0
    4.6341    6.3293  -20.6063 H   0  0  0  0  0  0
    5.7042    6.7179  -21.7041 H   0  0  0  0  0  0
    5.9774    8.0108  -19.6506 H   0  0  0  0  0  0
    4.3805    8.6548  -19.8843 H   0  0  0  0  0  0
    4.1642    7.8483  -23.0965 H   0  0  0  0  0  0
    2.9681    7.8499  -21.7841 H   0  0  0  0  0  0
    5.8430   10.3749  -20.6680 H   0  0  0  0  0  0
    5.2108    9.6361  -22.1443 H   0  0  0  0  0  0
    7.2910    8.2513  -22.3578 H   0  0  0  0  0  0
    7.9230    8.9550  -20.8600 H   0  0  0  0  0  0
  1  2  2  0  0  0
  1  3  1  0  0  0
  1 34  1  0  0  0
  2  6  1  0  0  0
  2 35  1  0  0  0
  3  5  2  0  0  0
  3 27  1  0  0  0
  4  5  1  0  0  0
  4  6  2  0  0  0
  4 18  1  0  0  0
  5 24  1  0  0  0
  6 10  1  0  0  0
  7 10  2  0  0  0
  7 23  1  0  0  0
  7 33  1  0  0  0
  8 21  1  0  0  0
  8 22  1  0  0  0
  8 36  1  0  0  0
  8 37  1  0  0  0
  9 21  1  0  0  0
  9 31  1  0  0  0
  9 38  1  0  0  0
  9 39  1  0  0  0
 10 40  1  0  0  0
 11 12  1  0  0  0
 11 14  2  0  0  0
 11 15  1  0  0  0
 12 17  1  0  0  0
 12 28  2  0  0  0
 13 28  1  0  0  0
 13 29  2  0  0  0
 13 56  1  0  0  0
 14 29  1  0  0  0
 14 31  1  0  0  0
 15 30  2  0  0  0
 15 41  1  0  0  0
 16 17  2  0  0  0
 16 18  1  0  0  0
 16 30  1  0  0  0
 17 26  1  0  0  0
 18 23  2  0  0  0
 19 20  1  0  0  0
 19 31  1  0  0  0
 19 42  1  0  0  0
 19 43  1  0  0  0
 20 22  1  0  0  0
 20 32  1  0  0  0
 20 44  1  0  0  0
 21 32  1  0  0  0
 21 45  1  0  0  0
 22 46  1  0  0  0
 22 47  1  0  0  0
 23 48  1  0  0  0
 24 25  3  0  0  0
 25 49  1  0  0  0
 32 50  1  0  0  0
 33 51  1  0  0  0
 52 59  1  0  0  0
 53 59  2  0  0  0
 54 55  1  0  0  0
 54 56  1  0  0  0
 54 60  1  0  0  0
 54 61  1  0  0  0
 55 57  1  0  0  0
 55 62  1  0  0  0
 55 63  1  0  0  0
 56 64  1  0  0  0
 56 65  1  0  0  0
 57 58  1  0  0  0
 57 66  1  0  0  0
 57 67  1  0  0  0
 58 59  1  0  0  0
 58 68  1  0  0  0
 58 69  1  0  0  0
M  CHG  2  52  -1  54   1
M  END
> <s_m_entry_id>
232

> <s_m_entry_name>
000000232.1

> <s_m_Source_Path>
/Users/zaksoul/Documents/2

> <s_m_Source_File>
000000232.mol2

> <i_m_Source_File_Index>
1

$$$$
No_0_243
                    3D
 Schrodinger Suite 2022-4.
 69 74  0  0  1  0            999 V2000
   -5.3270    3.5200  -21.9940 C   0  0  0  0  0  0
   -5.5750    3.7430  -23.3280 C   0  0  0  0  0  0
   -4.0930    3.2630  -21.6430 C   0  0  0  0  0  0
   -3.1720    3.4520  -23.7910 C   0  0  0  0  0  0
   -3.0300    3.1700  -22.3760 C   0  0  0  0  0  0
   -4.5130    3.7220  -24.3240 C   0  0  0  0  0  0
   -3.7270    3.8060  -26.5100 C   0  0  0  0  0  0
    5.9310    2.9760  -21.1290 C   0  0  0  0  0  0
    5.8270    3.1860  -23.6750 C   0  0  0  0  0  0
   -4.7460    3.8840  -25.6590 C   0  0  0  0  0  0
    2.0400    3.7170  -23.7310 C   0  0  0  0  0  0
    1.2100    4.8130  -23.4140 C   0  0  0  0  0  0
    2.9920    5.9990  -22.6770 C   0  0  0  0  0  0
    3.4350    3.9060  -23.3930 C   0  0  0  0  0  0
    1.5090    2.6150  -24.4300 C   0  0  0  0  0  0
   -0.6240    3.4150  -24.3280 C   0  0  0  0  0  0
   -0.1120    4.6220  -23.6890 C   0  0  0  0  0  0
   -2.0720    3.4240  -24.7030 C   0  0  0  0  0  0
    4.0490    1.4040  -23.1600 C   0  0  0  0  0  0
    4.9680    1.0220  -22.0100 C   0  0  2  0  0  0
    6.5610    2.5840  -22.4820 C   0  0  2  0  0  0
    4.9290    1.9910  -20.8170 C   0  0  0  0  0  0
   -2.3780    3.6200  -26.1300 C   0  0  0  0  0  0
   -1.6920    2.7470  -21.7690 C   0  0  0  0  0  0
   -0.6670    2.3910  -21.2580 C   0  0  0  0  0  0
   -0.9630    5.6530  -23.3290 F   0  0  0  0  0  0
   -3.9000    2.9850  -20.2650 F   0  0  0  0  0  0
    1.6730    5.9600  -22.8450 N   0  0  0  0  0  0
    3.8960    5.0460  -22.9110 N   0  0  0  0  0  0
    0.2080    2.5280  -24.7560 N   0  0  0  0  0  0
    4.3610    2.8670  -23.5850 N   0  0  0  0  0  0
    6.3810    1.1080  -22.4700 N   0  0  1  0  0  0
   -3.8800    3.8570  -27.9010 O   0  0  0  0  0  0
   -6.1392    3.5602  -21.2772 H   0  0  0  0  0  0
   -6.5858    3.9418  -23.6653 H   0  0  0  0  0  0
    5.4569    3.9645  -21.2188 H   0  0  0  0  0  0
    6.7058    2.9699  -20.3482 H   0  0  0  0  0  0
    6.2367    2.7682  -24.6064 H   0  0  0  0  0  0
    5.9652    4.2773  -23.6770 H   0  0  0  0  0  0
   -5.7524    4.0736  -26.0142 H   0  0  0  0  0  0
    2.1563    1.7971  -24.7251 H   0  0  0  0  0  0
    3.0017    1.3334  -22.8311 H   0  0  0  0  0  0
    4.2267    0.7287  -24.0099 H   0  0  0  0  0  0
    4.7441   -0.0006  -21.6722 H   0  0  0  0  0  0
    7.6287    2.8474  -22.5072 H   0  0  0  0  0  0
    3.9429    2.4765  -20.7736 H   0  0  0  0  0  0
    5.2186    1.4541  -19.9017 H   0  0  0  0  0  0
   -1.5976    3.6250  -26.8823 H   0  0  0  0  0  0
    0.2358    2.0771  -20.8091 H   0  0  0  0  0  0
    7.0217    0.5946  -21.7683 H   0  0  0  0  0  0
   -3.0288    3.7847  -28.3167 H   0  0  0  0  0  0
    6.7900   11.7070  -22.5080 O   0  5  0  0  0  0
    8.3050   10.4610  -23.6750 O   0  0  0  0  0  0
    4.7830    7.1300  -21.3420 N   0  3  0  0  0  0
    5.2110    8.3150  -20.5140 C   0  0  0  0  0  0
    3.5380    7.3270  -22.1660 C   0  0  0  0  0  0
    5.6180    9.5570  -21.3320 C   0  0  0  0  0  0
    6.9850    9.3780  -22.0180 C   0  0  0  0  0  0
    7.3910   10.6110  -22.7910 C   0  0  0  0  0  0
    4.6610    6.3300  -20.7410 H   0  0  0  0  0  0
    5.5412    6.8539  -21.9461 H   0  0  0  0  0  0
    6.0458    8.0201  -19.8612 H   0  0  0  0  0  0
    4.4024    8.5842  -19.8185 H   0  0  0  0  0  0
    3.7641    7.9833  -23.0193 H   0  0  0  0  0  0
    2.7714    7.8277  -21.5564 H   0  0  0  0  0  0
    5.6530   10.4349  -20.6701 H   0  0  0  0  0  0
    4.8507    9.7608  -22.0933 H   0  0  0  0  0  0
    6.9420    8.5165  -22.7006 H   0  0  0  0  0  0
    7.7490    9.1540  -21.2590 H   0  0  0  0  0  0
  1  2  2  0  0  0
  1  3  1  0  0  0
  1 34  1  0  0  0
  2  6  1  0  0  0
  2 35  1  0  0  0
  3  5  2  0  0  0
  3 27  1  0  0  0
  4  5  1  0  0  0
  4  6  2  0  0  0
  4 18  1  0  0  0
  5 24  1  0  0  0
  6 10  1  0  0  0
  7 10  2  0  0  0
  7 23  1  0  0  0
  7 33  1  0  0  0
  8 21  1  0  0  0
  8 22  1  0  0  0
  8 36  1  0  0  0
  8 37  1  0  0  0
  9 21  1  0  0  0
  9 31  1  0  0  0
  9 38  1  0  0  0
  9 39  1  0  0  0
 10 40  1  0  0  0
 11 12  1  0  0  0
 11 14  2  0  0  0
 11 15  1  0  0  0
 12 17  1  0  0  0
 12 28  2  0  0  0
 13 28  1  0  0  0
 13 29  2  0  0  0
 13 56  1  0  0  0
 14 29  1  0  0  0
 14 31  1  0  0  0
 15 30  2  0  0  0
 15 41  1  0  0  0
 16 17  2  0  0  0
 16 18  1  0  0  0
 16 30  1  0  0  0
 17 26  1  0  0  0
 18 23  2  0  0  0
 19 20  1  0  0  0
 19 31  1  0  0  0
 19 42  1  0  0  0
 19 43  1  0  0  0
 20 22  1  0  0  0
 20 32  1  0  0  0
 20 44  1  0  0  0
 21 32  1  0  0  0
 21 45  1  0  0  0
 22 46  1  0  0  0
 22 47  1  0  0  0
 23 48  1  0  0  0
 24 25  3  0  0  0
 25 49  1  0  0  0
 32 50  1  0  0  0
 33 51  1  0  0  0
 52 59  1  0  0  0
 53 59  2  0  0  0
 54 55  1  0  0  0
 54 56  1  0  0  0
 54 60  1  0  0  0
 54 61  1  0  0  0
 55 57  1  0  0  0
 55 62  1  0  0  0
 55 63  1  0  0  0
 56 64  1  0  0  0
 56 65  1  0  0  0
 57 58  1  0  0  0
 57 66  1  0  0  0
 57 67  1  0  0  0
 58 59  1  0  0  0
 58 68  1  0  0  0
 58 69  1  0  0  0
M  CHG  2  52  -1  54   1
M  END
> <s_m_entry_id>
233

> <s_m_entry_name>
000000233.1

> <s_m_Source_Path>
/Users/zaksoul/Documents/2

> <s_m_Source_File>
000000233.mol2

> <i_m_Source_File_Index>
1

$$$$
No_0_244
                    3D
 Schrodinger Suite 2022-4.
 69 74  0  0  1  0            999 V2000
   -5.3840    3.2890  -22.1750 C   0  0  0  0  0  0
   -5.6250    3.4720  -23.5160 C   0  0  0  0  0  0
   -4.1460    3.0800  -21.8040 C   0  0  0  0  0  0
   -3.2080    3.2460  -23.9480 C   0  0  0  0  0  0
   -3.0730    3.0030  -22.5240 C   0  0  0  0  0  0
   -4.5510    3.4610  -24.5010 C   0  0  0  0  0  0
   -3.7450    3.5160  -26.6800 C   0  0  0  0  0  0
    5.8750    3.1220  -21.1820 C   0  0  0  0  0  0
    5.7930    3.2670  -23.7340 C   0  0  0  0  0  0
   -4.7750    3.5830  -25.8410 C   0  0  0  0  0  0
    1.9920    3.6760  -23.8410 C   0  0  0  0  0  0
    1.1240    4.7530  -23.5600 C   0  0  0  0  0  0
    2.8610    6.0120  -22.8340 C   0  0  0  0  0  0
    3.3770    3.9170  -23.4940 C   0  0  0  0  0  0
    1.5030    2.5420  -24.5180 C   0  0  0  0  0  0
   -0.6550    3.2770  -24.4570 C   0  0  0  0  0  0
   -0.1870    4.5140  -23.8430 C   0  0  0  0  0  0
   -2.0980    3.2310  -24.8470 C   0  0  0  0  0  0
    4.0660    1.4420  -23.1930 C   0  0  0  0  0  0
    4.9840    1.1170  -22.0250 C   0  0  2  0  0  0
    6.5320    2.7170  -22.5190 C   0  0  2  0  0  0
    4.9010    2.1140  -20.8560 C   0  0  0  0  0  0
   -2.3940    3.3830  -26.2820 C   0  0  0  0  0  0
   -1.7290    2.6370  -21.8940 C   0  0  0  0  0  0
   -0.6990    2.3260  -21.3640 C   0  0  0  0  0  0
   -1.0750    5.5260  -23.5170 F   0  0  0  0  0  0
   -3.9600    2.8420  -20.4180 F   0  0  0  0  0  0
    1.5460    5.9270  -23.0140 N   0  0  0  0  0  0
    3.7970    5.0830  -23.0350 N   0  0  0  0  0  0
    0.2090    2.4060  -24.8550 N   0  0  0  0  0  0
    4.3370    2.9040  -23.6510 N   0  0  0  0  0  0
    6.3990    1.2370  -22.4730 N   0  0  1  0  0  0
   -3.8840    3.5290  -28.0730 O   0  0  0  0  0  0
   -6.2048    3.3211  -21.4676 H   0  0  0  0  0  0
   -6.6378    3.6306  -23.8683 H   0  0  0  0  0  0
    5.3715    4.0927  -21.3011 H   0  0  0  0  0  0
    6.6417    3.1593  -20.3941 H   0  0  0  0  0  0
    6.2252    2.8398  -24.6509 H   0  0  0  0  0  0
    5.8969    4.3617  -23.7612 H   0  0  0  0  0  0
   -5.7829    3.7316  -26.2114 H   0  0  0  0  0  0
    2.1787    1.7378  -24.7861 H   0  0  0  0  0  0
    3.0178    1.3472  -22.8732 H   0  0  0  0  0  0
    4.2740    0.7533  -24.0251 H   0  0  0  0  0  0
    4.7882    0.0966  -21.6637 H   0  0  0  0  0  0
    7.5913    3.0126  -22.5392 H   0  0  0  0  0  0
    3.8994    2.5683  -20.8358 H   0  0  0  0  0  0
    5.1978    1.6083  -19.9253 H   0  0  0  0  0  0
   -1.6058    3.3930  -27.0261 H   0  0  0  0  0  0
    0.2081    2.0520  -20.8979 H   0  0  0  0  0  0
    7.0472    0.7610  -21.7521 H   0  0  0  0  0  0
   -3.0268    3.4736  -28.4788 H   0  0  0  0  0  0
    5.9600   12.1270  -23.0390 O   0  5  0  0  0  0
    7.3050   11.1380  -24.5960 O   0  0  0  0  0  0
    4.7690    7.2830  -21.8290 N   0  3  0  0  0  0
    5.2400    8.4670  -21.0230 C   0  0  0  0  0  0
    3.3590    7.3690  -22.3500 C   0  0  0  0  0  0
    5.3180    9.7910  -21.8090 C   0  0  0  0  0  0
    6.5110    9.8160  -22.7840 C   0  0  0  0  0  0
    6.5990   11.1290  -23.5270 C   0  0  0  0  0  0
    4.8701    6.4445  -21.2787 H   0  0  0  0  0  0
    5.3999    7.1340  -22.6009 H   0  0  0  0  0  0
    6.2252    8.2430  -20.5879 H   0  0  0  0  0  0
    4.5811    8.5990  -20.1521 H   0  0  0  0  0  0
    3.3180    8.0914  -23.1785 H   0  0  0  0  0  0
    2.6973    7.7398  -21.5534 H   0  0  0  0  0  0
    5.4030   10.6311  -21.1040 H   0  0  0  0  0  0
    4.3836    9.9379  -22.3706 H   0  0  0  0  0  0
    6.4109    8.9925  -23.5064 H   0  0  0  0  0  0
    7.4434    9.6489  -22.2248 H   0  0  0  0  0  0
  1  2  2  0  0  0
  1  3  1  0  0  0
  1 34  1  0  0  0
  2  6  1  0  0  0
  2 35  1  0  0  0
  3  5  2  0  0  0
  3 27  1  0  0  0
  4  5  1  0  0  0
  4  6  2  0  0  0
  4 18  1  0  0  0
  5 24  1  0  0  0
  6 10  1  0  0  0
  7 10  2  0  0  0
  7 23  1  0  0  0
  7 33  1  0  0  0
  8 21  1  0  0  0
  8 22  1  0  0  0
  8 36  1  0  0  0
  8 37  1  0  0  0
  9 21  1  0  0  0
  9 31  1  0  0  0
  9 38  1  0  0  0
  9 39  1  0  0  0
 10 40  1  0  0  0
 11 12  1  0  0  0
 11 14  2  0  0  0
 11 15  1  0  0  0
 12 17  1  0  0  0
 12 28  2  0  0  0
 13 28  1  0  0  0
 13 29  2  0  0  0
 13 56  1  0  0  0
 14 29  1  0  0  0
 14 31  1  0  0  0
 15 30  2  0  0  0
 15 41  1  0  0  0
 16 17  2  0  0  0
 16 18  1  0  0  0
 16 30  1  0  0  0
 17 26  1  0  0  0
 18 23  2  0  0  0
 19 20  1  0  0  0
 19 31  1  0  0  0
 19 42  1  0  0  0
 19 43  1  0  0  0
 20 22  1  0  0  0
 20 32  1  0  0  0
 20 44  1  0  0  0
 21 32  1  0  0  0
 21 45  1  0  0  0
 22 46  1  0  0  0
 22 47  1  0  0  0
 23 48  1  0  0  0
 24 25  3  0  0  0
 25 49  1  0  0  0
 32 50  1  0  0  0
 33 51  1  0  0  0
 52 59  1  0  0  0
 53 59  2  0  0  0
 54 55  1  0  0  0
 54 56  1  0  0  0
 54 60  1  0  0  0
 54 61  1  0  0  0
 55 57  1  0  0  0
 55 62  1  0  0  0
 55 63  1  0  0  0
 56 64  1  0  0  0
 56 65  1  0  0  0
 57 58  1  0  0  0
 57 66  1  0  0  0
 57 67  1  0  0  0
 58 59  1  0  0  0
 58 68  1  0  0  0
 58 69  1  0  0  0
M  CHG  2  52  -1  54   1
M  END
> <s_m_entry_id>
234

> <s_m_entry_name>
000000234.1

> <s_m_Source_Path>
/Users/zaksoul/Documents/2

> <s_m_Source_File>
000000234.mol2

> <i_m_Source_File_Index>
1

$$$$
No_0_245
                    3D
 Schrodinger Suite 2022-4.
 69 74  0  0  1  0            999 V2000
   -5.3210    3.2450  -22.0620 C   0  0  0  0  0  0
   -5.5650    3.4290  -23.4020 C   0  0  0  0  0  0
   -4.0820    3.0320  -21.6950 C   0  0  0  0  0  0
   -3.1510    3.1950  -23.8420 C   0  0  0  0  0  0
   -3.0120    2.9520  -22.4190 C   0  0  0  0  0  0
   -4.4950    3.4140  -24.3900 C   0  0  0  0  0  0
   -3.6950    3.4680  -26.5720 C   0  0  0  0  0  0
    5.9410    3.0420  -21.1050 C   0  0  0  0  0  0
    5.8510    3.1870  -23.6570 C   0  0  0  0  0  0
   -4.7220    3.5370  -25.7300 C   0  0  0  0  0  0
    2.0510    3.6090  -23.7520 C   0  0  0  0  0  0
    1.1880    4.6880  -23.4680 C   0  0  0  0  0  0
    2.9300    5.9410  -22.7470 C   0  0  0  0  0  0
    3.4370    3.8450  -23.4090 C   0  0  0  0  0  0
    1.5560    2.4760  -24.4270 C   0  0  0  0  0  0
   -0.5990    3.2180  -24.3590 C   0  0  0  0  0  0
   -0.1260    4.4530  -23.7470 C   0  0  0  0  0  0
   -2.0430    3.1770  -24.7440 C   0  0  0  0  0  0
    4.1200    1.3680  -23.1100 C   0  0  0  0  0  0
    5.0410    1.0400  -21.9450 C   0  0  2  0  0  0
    6.5920    2.6340  -22.4450 C   0  0  2  0  0  0
    4.9650    2.0370  -20.7760 C   0  0  0  0  0  0
   -2.3440    3.3290  -26.1780 C   0  0  0  0  0  0
   -1.6670    2.5810  -21.7930 C   0  0  0  0  0  0
   -0.6360    2.2670  -21.2660 C   0  0  0  0  0  0
   -1.0090    5.4690  -23.4170 F   0  0  0  0  0  0
   -3.8930    2.7930  -20.3100 F   0  0  0  0  0  0
    1.6140    5.8610  -22.9230 N   0  0  0  0  0  0
    3.8630    5.0100  -22.9510 N   0  0  0  0  0  0
    0.2600    2.3440  -24.7600 N   0  0  0  0  0  0
    4.3940    2.8290  -23.5690 N   0  0  0  0  0  0
    6.4540    1.1550  -22.3980 N   0  0  1  0  0  0
   -3.8390    3.4810  -27.9650 O   0  0  0  0  0  0
   -6.1389    3.2791  -21.3515 H   0  0  0  0  0  0
   -6.5784    3.5905  -23.7512 H   0  0  0  0  0  0
    5.4394    4.0139  -21.2221 H   0  0  0  0  0  0
    6.7103    3.0763  -20.3195 H   0  0  0  0  0  0
    6.2793    2.7587  -24.5752 H   0  0  0  0  0  0
    5.9579    4.2815  -23.6842 H   0  0  0  0  0  0
   -5.7304    3.6895  -26.0972 H   0  0  0  0  0  0
    2.2284    1.6701  -24.6980 H   0  0  0  0  0  0
    3.0725    1.2762  -22.7871 H   0  0  0  0  0  0
    4.3229    0.6786  -23.9428 H   0  0  0  0  0  0
    4.8423    0.0202  -21.5839 H   0  0  0  0  0  0
    7.6519    2.9275  -22.4682 H   0  0  0  0  0  0
    3.9648    2.4942  -20.7528 H   0  0  0  0  0  0
    5.2628    1.5302  -19.8462 H   0  0  0  0  0  0
   -1.5582    3.3380  -26.9247 H   0  0  0  0  0  0
    0.2716    1.9898  -20.8027 H   0  0  0  0  0  0
    7.1032    0.6770  -21.6793 H   0  0  0  0  0  0
   -2.9829    3.4226  -28.3727 H   0  0  0  0  0  0
    5.4650   12.3060  -23.0800 O   0  5  0  0  0  0
    6.4680   11.5610  -24.9910 O   0  0  0  0  0  0
    4.9300    7.2980  -22.0930 N   0  3  0  0  0  0
    5.4960    8.4540  -21.3080 C   0  0  0  0  0  0
    3.4350    7.2970  -22.2640 C   0  0  0  0  0  0
    5.2940    9.8350  -21.9630 C   0  0  0  0  0  0
    6.2180   10.0410  -23.1780 C   0  0  0  0  0  0
    6.0370   11.4090  -23.7950 C   0  0  0  0  0  0
    5.2159    6.4323  -21.6631 H   0  0  0  0  0  0
    5.3701    7.2640  -22.9992 H   0  0  0  0  0  0
    6.5691    8.2860  -21.1340 H   0  0  0  0  0  0
    5.0543    8.4610  -20.3006 H   0  0  0  0  0  0
    3.1490    8.0731  -22.9891 H   0  0  0  0  0  0
    2.9557    7.5451  -21.3055 H   0  0  0  0  0  0
    5.4859   10.6235  -21.2204 H   0  0  0  0  0  0
    4.2454    9.9410  -22.2779 H   0  0  0  0  0  0
    6.0070    9.2692  -23.9328 H   0  0  0  0  0  0
    7.2655    9.9149  -22.8668 H   0  0  0  0  0  0
  1  2  2  0  0  0
  1  3  1  0  0  0
  1 34  1  0  0  0
  2  6  1  0  0  0
  2 35  1  0  0  0
  3  5  2  0  0  0
  3 27  1  0  0  0
  4  5  1  0  0  0
  4  6  2  0  0  0
  4 18  1  0  0  0
  5 24  1  0  0  0
  6 10  1  0  0  0
  7 10  2  0  0  0
  7 23  1  0  0  0
  7 33  1  0  0  0
  8 21  1  0  0  0
  8 22  1  0  0  0
  8 36  1  0  0  0
  8 37  1  0  0  0
  9 21  1  0  0  0
  9 31  1  0  0  0
  9 38  1  0  0  0
  9 39  1  0  0  0
 10 40  1  0  0  0
 11 12  1  0  0  0
 11 14  2  0  0  0
 11 15  1  0  0  0
 12 17  1  0  0  0
 12 28  2  0  0  0
 13 28  1  0  0  0
 13 29  2  0  0  0
 13 56  1  0  0  0
 14 29  1  0  0  0
 14 31  1  0  0  0
 15 30  2  0  0  0
 15 41  1  0  0  0
 16 17  2  0  0  0
 16 18  1  0  0  0
 16 30  1  0  0  0
 17 26  1  0  0  0
 18 23  2  0  0  0
 19 20  1  0  0  0
 19 31  1  0  0  0
 19 42  1  0  0  0
 19 43  1  0  0  0
 20 22  1  0  0  0
 20 32  1  0  0  0
 20 44  1  0  0  0
 21 32  1  0  0  0
 21 45  1  0  0  0
 22 46  1  0  0  0
 22 47  1  0  0  0
 23 48  1  0  0  0
 24 25  3  0  0  0
 25 49  1  0  0  0
 32 50  1  0  0  0
 33 51  1  0  0  0
 52 59  1  0  0  0
 53 59  2  0  0  0
 54 55  1  0  0  0
 54 56  1  0  0  0
 54 60  1  0  0  0
 54 61  1  0  0  0
 55 57  1  0  0  0
 55 62  1  0  0  0
 55 63  1  0  0  0
 56 64  1  0  0  0
 56 65  1  0  0  0
 57 58  1  0  0  0
 57 66  1  0  0  0
 57 67  1  0  0  0
 58 59  1  0  0  0
 58 68  1  0  0  0
 58 69  1  0  0  0
M  CHG  2  52  -1  54   1
M  END
> <s_m_entry_id>
235

> <s_m_entry_name>
000000235.1

> <s_m_Source_Path>
/Users/zaksoul/Documents/2

> <s_m_Source_File>
000000235.mol2

> <i_m_Source_File_Index>
1

$$$$
No_0_246
                    3D
 Schrodinger Suite 2022-4.
 71 76  0  0  1  0            999 V2000
   -5.1170    3.5200  -22.1020 C   0  0  0  0  0  0
   -5.3650    3.6980  -23.4430 C   0  0  0  0  0  0
   -3.8780    3.3050  -21.7390 C   0  0  0  0  0  0
   -2.9520    3.4540  -23.8880 C   0  0  0  0  0  0
   -2.8100    3.2180  -22.4640 C   0  0  0  0  0  0
   -4.2970    3.6750  -24.4340 C   0  0  0  0  0  0
   -3.5030    3.7160  -26.6180 C   0  0  0  0  0  0
    6.1460    3.2850  -21.1750 C   0  0  0  0  0  0
    6.0500    3.4190  -23.7270 C   0  0  0  0  0  0
   -4.5280    3.7930  -25.7740 C   0  0  0  0  0  0
    2.2510    3.8520  -23.8140 C   0  0  0  0  0  0
    1.3920    4.9360  -23.5330 C   0  0  0  0  0  0
    3.1410    6.1870  -22.8230 C   0  0  0  0  0  0
    3.6390    4.0860  -23.4760 C   0  0  0  0  0  0
    1.7510    2.7180  -24.4830 C   0  0  0  0  0  0
   -0.4010    3.4670  -24.4130 C   0  0  0  0  0  0
    0.0770    4.7030  -23.8070 C   0  0  0  0  0  0
   -1.8470    3.4280  -24.7930 C   0  0  0  0  0  0
    4.3150    1.6080  -23.1670 C   0  0  0  0  0  0
    5.2370    1.2820  -22.0030 C   0  0  2  0  0  0
    6.7930    2.8700  -22.5140 C   0  0  2  0  0  0
    5.1680    2.2850  -20.8390 C   0  0  0  0  0  0
   -2.1510    3.5750  -26.2270 C   0  0  0  0  0  0
   -1.4650    2.8460  -21.8400 C   0  0  0  0  0  0
   -0.4340    2.5310  -21.3150 C   0  0  0  0  0  0
   -0.8020    5.7230  -23.4800 F   0  0  0  0  0  0
   -3.6860    3.0720  -20.3520 F   0  0  0  0  0  0
    1.8240    6.1100  -22.9950 N   0  0  0  0  0  0
    4.0690    5.2510  -23.0250 N   0  0  0  0  0  0
    0.4540    2.5880  -24.8110 N   0  0  0  0  0  0
    4.5920    3.0660  -23.6340 N   0  0  0  0  0  0
    6.6500    1.3910  -22.4600 N   0  0  1  0  0  0
   -3.6510    3.7230  -28.0110 O   0  0  0  0  0  0
   -5.9338    3.5601  -21.3905 H   0  0  0  0  0  0
   -6.3787    3.8616  -23.7903 H   0  0  0  0  0  0
    5.6477    4.2583  -21.2950 H   0  0  0  0  0  0
    6.9173    3.3213  -20.3916 H   0  0  0  0  0  0
    6.4739    2.9850  -24.6445 H   0  0  0  0  0  0
    6.1600    4.5130  -23.7593 H   0  0  0  0  0  0
   -5.5369    3.9466  -26.1394 H   0  0  0  0  0  0
    2.4196    1.9079  -24.7510 H   0  0  0  0  0  0
    3.2680    1.5202  -22.8412 H   0  0  0  0  0  0
    4.5127    0.9140  -23.9972 H   0  0  0  0  0  0
    5.0371    0.2643  -21.6365 H   0  0  0  0  0  0
    7.8541    3.1587  -22.5423 H   0  0  0  0  0  0
    4.1697    2.7463  -20.8138 H   0  0  0  0  0  0
    5.4668    1.7823  -19.9073 H   0  0  0  0  0  0
   -1.3676    3.5770  -26.9763 H   0  0  0  0  0  0
    0.4740    2.2530  -20.8530 H   0  0  0  0  0  0
    7.2990    0.9141  -21.7404 H   0  0  0  0  0  0
   -2.7962    3.6597  -28.4206 H   0  0  0  0  0  0
    8.5010    9.3480  -20.6140 O   0  0  0  0  0  0
    4.2990    7.4490  -20.9890 N   0  3  0  0  0  0
    6.0930    9.2460  -20.9680 C   0  0  0  0  0  0
    3.6510    7.5430  -22.3480 C   0  0  0  0  0  0
    4.7450    8.7580  -20.3930 C   0  0  0  0  0  0
    7.2680    8.8740  -20.0470 C   0  0  0  0  0  0
    9.6210    9.0970  -19.7500 C   0  0  0  0  0  0
    5.0851    6.8199  -21.0380 H   0  0  0  0  0  0
    3.6686    6.9895  -20.3506 H   0  0  0  0  0  0
    6.0610   10.3378  -21.0980 H   0  0  0  0  0  0
    6.2500    8.7999  -21.9612 H   0  0  0  0  0  0
    4.3782    7.9351  -23.0742 H   0  0  0  0  0  0
    2.8134    8.2547  -22.3050 H   0  0  0  0  0  0
    4.8300    8.6520  -19.3014 H   0  0  0  0  0  0
    3.9733    9.5217  -20.5699 H   0  0  0  0  0  0
    7.1190    9.3340  -19.0590 H   0  0  0  0  0  0
    7.3130    7.7809  -19.9330 H   0  0  0  0  0  0
   10.5406    9.4742  -20.2213 H   0  0  0  0  0  0
    9.4650    9.6090  -18.7890 H   0  0  0  0  0  0
    9.7160    8.0150  -19.5760 H   0  0  0  0  0  0
  1  2  2  0  0  0
  1  3  1  0  0  0
  1 34  1  0  0  0
  2  6  1  0  0  0
  2 35  1  0  0  0
  3  5  2  0  0  0
  3 27  1  0  0  0
  4  5  1  0  0  0
  4  6  2  0  0  0
  4 18  1  0  0  0
  5 24  1  0  0  0
  6 10  1  0  0  0
  7 10  2  0  0  0
  7 23  1  0  0  0
  7 33  1  0  0  0
  8 21  1  0  0  0
  8 22  1  0  0  0
  8 36  1  0  0  0
  8 37  1  0  0  0
  9 21  1  0  0  0
  9 31  1  0  0  0
  9 38  1  0  0  0
  9 39  1  0  0  0
 10 40  1  0  0  0
 11 12  1  0  0  0
 11 14  2  0  0  0
 11 15  1  0  0  0
 12 17  1  0  0  0
 12 28  2  0  0  0
 13 28  1  0  0  0
 13 29  2  0  0  0
 13 55  1  0  0  0
 14 29  1  0  0  0
 14 31  1  0  0  0
 15 30  2  0  0  0
 15 41  1  0  0  0
 16 17  2  0  0  0
 16 18  1  0  0  0
 16 30  1  0  0  0
 17 26  1  0  0  0
 18 23  2  0  0  0
 19 20  1  0  0  0
 19 31  1  0  0  0
 19 42  1  0  0  0
 19 43  1  0  0  0
 20 22  1  0  0  0
 20 32  1  0  0  0
 20 44  1  0  0  0
 21 32  1  0  0  0
 21 45  1  0  0  0
 22 46  1  0  0  0
 22 47  1  0  0  0
 23 48  1  0  0  0
 24 25  3  0  0  0
 25 49  1  0  0  0
 32 50  1  0  0  0
 33 51  1  0  0  0
 52 57  1  0  0  0
 52 58  1  0  0  0
 53 55  1  0  0  0
 53 56  1  0  0  0
 53 59  1  0  0  0
 53 60  1  0  0  0
 54 56  1  0  0  0
 54 57  1  0  0  0
 54 61  1  0  0  0
 54 62  1  0  0  0
 55 63  1  0  0  0
 55 64  1  0  0  0
 56 65  1  0  0  0
 56 66  1  0  0  0
 57 67  1  0  0  0
 57 68  1  0  0  0
 58 69  1  0  0  0
 58 70  1  0  0  0
 58 71  1  0  0  0
M  CHG  1  53   1
M  END
> <s_m_entry_id>
236

> <s_m_entry_name>
000000236.1

> <s_m_Source_Path>
/Users/zaksoul/Documents/2

> <s_m_Source_File>
000000236.mol2

> <i_m_Source_File_Index>
1

$$$$
No_0_247
                    3D
 Schrodinger Suite 2022-4.
 71 76  0  0  1  0            999 V2000
   -5.1320    3.1240  -21.8040 C   0  0  0  0  0  0
   -5.4210    3.3210  -23.1340 C   0  0  0  0  0  0
   -3.8780    2.9350  -21.4780 C   0  0  0  0  0  0
   -3.0160    3.1480  -23.6490 C   0  0  0  0  0  0
   -2.8280    2.8890  -22.2340 C   0  0  0  0  0  0
   -4.3810    3.3440  -24.1540 C   0  0  0  0  0  0
   -3.6490    3.4460  -26.3570 C   0  0  0  0  0  0
    6.1550    3.1660  -21.1880 C   0  0  0  0  0  0
    5.9850    3.3440  -23.7330 C   0  0  0  0  0  0
   -4.6510    3.4800  -25.4840 C   0  0  0  0  0  0
    2.1760    3.6800  -23.7090 C   0  0  0  0  0  0
    1.2970    4.7360  -23.3830 C   0  0  0  0  0  0
    3.0320    6.0180  -22.6970 C   0  0  0  0  0  0
    3.5660    3.9430  -23.4040 C   0  0  0  0  0  0
    1.6860    2.5460  -24.3850 C   0  0  0  0  0  0
   -0.4820    3.2370  -24.2420 C   0  0  0  0  0  0
   -0.0180    4.4740  -23.6260 C   0  0  0  0  0  0
   -1.9360    3.1680  -24.5840 C   0  0  0  0  0  0
    4.3130    1.4790  -23.1620 C   0  0  0  0  0  0
    5.2750    1.1560  -22.0300 C   0  0  2  0  0  0
    6.7750    2.7920  -22.5520 C   0  0  2  0  0  0
    5.2130    2.1340  -20.8450 C   0  0  0  0  0  0
   -2.2840    3.3340  -26.0060 C   0  0  0  0  0  0
   -1.4580    2.5410  -21.6540 C   0  0  0  0  0  0
   -0.4040    2.2430  -21.1640 C   0  0  0  0  0  0
   -0.9140    5.4640  -23.2560 F   0  0  0  0  0  0
   -3.6420    2.6810  -20.1020 F   0  0  0  0  0  0
    1.7140    5.9100  -22.8350 N   0  0  0  0  0  0
    3.9790    5.1110  -22.9420 N   0  0  0  0  0  0
    0.3840    2.3890  -24.6810 N   0  0  0  0  0  0
    4.5390    2.9520  -23.6080 N   0  0  0  0  0  0
    6.6720    1.3100  -22.5230 N   0  0  1  0  0  0
   -3.8350    3.4750  -27.7450 O   0  0  0  0  0  0
   -5.9290    3.1300  -21.0693 H   0  0  0  0  0  0
   -6.4479    3.4645  -23.4502 H   0  0  0  0  0  0
    5.6290    4.1281  -21.2758 H   0  0  0  0  0  0
    6.9468    3.2074  -20.4255 H   0  0  0  0  0  0
    6.3945    2.9385  -24.6700 H   0  0  0  0  0  0
    6.0667    4.4409  -23.7481 H   0  0  0  0  0  0
   -5.6734    3.6144  -25.8181 H   0  0  0  0  0  0
    2.3675    1.7591  -24.6871 H   0  0  0  0  0  0
    3.2782    1.3580  -22.8090 H   0  0  0  0  0  0
    4.5057    0.8049  -24.0096 H   0  0  0  0  0  0
    5.1115    0.1268  -21.6778 H   0  0  0  0  0  0
    7.8268    3.1100  -22.6035 H   0  0  0  0  0  0
    4.2040    2.5679  -20.7845 H   0  0  0  0  0  0
    5.5501    1.6222  -19.9315 H   0  0  0  0  0  0
   -1.5214    3.3701  -26.7756 H   0  0  0  0  0  0
    0.5226    1.9801  -20.7312 H   0  0  0  0  0  0
    7.3523    0.8361  -21.8309 H   0  0  0  0  0  0
   -2.9908    3.4414  -28.1795 H   0  0  0  0  0  0
    8.4670    9.5210  -21.3570 O   0  0  0  0  0  0
    4.4520    7.2450  -21.0310 N   0  3  0  0  0  0
    6.0560    9.2060  -21.2100 C   0  0  0  0  0  0
    3.5200    7.3780  -22.2100 C   0  0  0  0  0  0
    4.9080    8.5430  -20.4170 C   0  0  0  0  0  0
    7.4290    8.8840  -20.5940 C   0  0  0  0  0  0
    9.7640    9.3180  -20.7720 C   0  0  0  0  0  0
    5.2579    6.7041  -21.3030 H   0  0  0  0  0  0
    4.0139    6.6769  -20.3229 H   0  0  0  0  0  0
    5.9080   10.2959  -21.2260 H   0  0  0  0  0  0
    6.0310    8.8561  -22.2526 H   0  0  0  0  0  0
    4.0390    7.8960  -23.0300 H   0  0  0  0  0  0
    2.6565    7.9974  -21.9258 H   0  0  0  0  0  0
    5.2352    8.3629  -19.3824 H   0  0  0  0  0  0
    4.0568    9.2371  -20.3560 H   0  0  0  0  0  0
    7.4590    9.2491  -19.5568 H   0  0  0  0  0  0
    7.5861    7.7953  -20.5980 H   0  0  0  0  0  0
   10.5258    9.8209  -21.3858 H   0  0  0  0  0  0
    9.7780    9.7370  -19.7550 H   0  0  0  0  0  0
    9.9811    8.2406  -20.7270 H   0  0  0  0  0  0
  1  2  2  0  0  0
  1  3  1  0  0  0
  1 34  1  0  0  0
  2  6  1  0  0  0
  2 35  1  0  0  0
  3  5  2  0  0  0
  3 27  1  0  0  0
  4  5  1  0  0  0
  4  6  2  0  0  0
  4 18  1  0  0  0
  5 24  1  0  0  0
  6 10  1  0  0  0
  7 10  2  0  0  0
  7 23  1  0  0  0
  7 33  1  0  0  0
  8 21  1  0  0  0
  8 22  1  0  0  0
  8 36  1  0  0  0
  8 37  1  0  0  0
  9 21  1  0  0  0
  9 31  1  0  0  0
  9 38  1  0  0  0
  9 39  1  0  0  0
 10 40  1  0  0  0
 11 12  1  0  0  0
 11 14  2  0  0  0
 11 15  1  0  0  0
 12 17  1  0  0  0
 12 28  2  0  0  0
 13 28  1  0  0  0
 13 29  2  0  0  0
 13 55  1  0  0  0
 14 29  1  0  0  0
 14 31  1  0  0  0
 15 30  2  0  0  0
 15 41  1  0  0  0
 16 17  2  0  0  0
 16 18  1  0  0  0
 16 30  1  0  0  0
 17 26  1  0  0  0
 18 23  2  0  0  0
 19 20  1  0  0  0
 19 31  1  0  0  0
 19 42  1  0  0  0
 19 43  1  0  0  0
 20 22  1  0  0  0
 20 32  1  0  0  0
 20 44  1  0  0  0
 21 32  1  0  0  0
 21 45  1  0  0  0
 22 46  1  0  0  0
 22 47  1  0  0  0
 23 48  1  0  0  0
 24 25  3  0  0  0
 25 49  1  0  0  0
 32 50  1  0  0  0
 33 51  1  0  0  0
 52 57  1  0  0  0
 52 58  1  0  0  0
 53 55  1  0  0  0
 53 56  1  0  0  0
 53 59  1  0  0  0
 53 60  1  0  0  0
 54 56  1  0  0  0
 54 57  1  0  0  0
 54 61  1  0  0  0
 54 62  1  0  0  0
 55 63  1  0  0  0
 55 64  1  0  0  0
 56 65  1  0  0  0
 56 66  1  0  0  0
 57 67  1  0  0  0
 57 68  1  0  0  0
 58 69  1  0  0  0
 58 70  1  0  0  0
 58 71  1  0  0  0
M  CHG  1  53   1
M  END
> <s_m_entry_id>
237

> <s_m_entry_name>
000000237.1

> <s_m_Source_Path>
/Users/zaksoul/Documents/2

> <s_m_Source_File>
000000237.mol2

> <i_m_Source_File_Index>
1

$$$$
No_0_248
                    3D
 Schrodinger Suite 2022-4.
 71 76  0  0  1  0            999 V2000
   -5.4380    3.3790  -22.2290 C   0  0  0  0  0  0
   -5.6640    3.5740  -23.5710 C   0  0  0  0  0  0
   -4.2060    3.1500  -21.8500 C   0  0  0  0  0  0
   -3.2480    3.3160  -23.9840 C   0  0  0  0  0  0
   -3.1280    3.0620  -22.5610 C   0  0  0  0  0  0
   -4.5830    3.5530  -24.5470 C   0  0  0  0  0  0
   -3.7570    3.6120  -26.7190 C   0  0  0  0  0  0
    5.8090    3.0440  -21.1440 C   0  0  0  0  0  0
    5.7500    3.2070  -23.6960 C   0  0  0  0  0  0
   -4.7930    3.6870  -25.8890 C   0  0  0  0  0  0
    1.9570    3.6710  -23.8320 C   0  0  0  0  0  0
    1.1020    4.7590  -23.5510 C   0  0  0  0  0  0
    2.8500    5.9880  -22.8030 C   0  0  0  0  0  0
    3.3420    3.8900  -23.4720 C   0  0  0  0  0  0
    1.4580    2.5480  -24.5200 C   0  0  0  0  0  0
   -0.6900    3.3140  -24.4730 C   0  0  0  0  0  0
   -0.2100    4.5400  -23.8470 C   0  0  0  0  0  0
   -2.1300    3.2910  -24.8740 C   0  0  0  0  0  0
    3.9930    1.4040  -23.1810 C   0  0  0  0  0  0
    4.8970    1.0580  -22.0070 C   0  0  2  0  0  0
    6.4720    2.6380  -22.4790 C   0  0  2  0  0  0
    4.8190    2.0480  -20.8330 C   0  0  0  0  0  0
   -2.4130    3.4560  -26.3110 C   0  0  0  0  0  0
   -1.7950    2.6730  -21.9230 C   0  0  0  0  0  0
   -0.7740    2.3440  -21.3860 C   0  0  0  0  0  0
   -1.0860    5.5630  -23.5210 F   0  0  0  0  0  0
   -4.0350    2.9000  -20.4640 F   0  0  0  0  0  0
    1.5360    5.9230  -22.9940 N   0  0  0  0  0  0
    3.7750    5.0470  -23.0010 N   0  0  0  0  0  0
    0.1640    2.4330  -24.8690 N   0  0  0  0  0  0
    4.2880    2.8640  -23.6270 N   0  0  0  0  0  0
    6.3170    1.1610  -22.4430 N   0  0  1  0  0  0
   -3.8850    3.6350  -28.1130 O   0  0  0  0  0  0
   -6.2642    3.4182  -21.5283 H   0  0  0  0  0  0
   -6.6715    3.7496  -23.9303 H   0  0  0  0  0  0
    5.3207    4.0227  -21.2610 H   0  0  0  0  0  0
    6.5698    3.0652  -20.3499 H   0  0  0  0  0  0
    6.1849    2.7791  -24.6113 H   0  0  0  0  0  0
    5.8701    4.3003  -23.7152 H   0  0  0  0  0  0
   -5.7956    3.8526  -26.2664 H   0  0  0  0  0  0
    2.1238    1.7356  -24.7881 H   0  0  0  0  0  0
    2.9411    1.3212  -22.8701 H   0  0  0  0  0  0
    4.1978    0.7170  -24.0153 H   0  0  0  0  0  0
    4.6831    0.0381  -21.6549 H   0  0  0  0  0  0
    7.5353    2.9197  -22.4881 H   0  0  0  0  0  0
    3.8238    2.5163  -20.8179 H   0  0  0  0  0  0
    5.1006    1.5333  -19.9025 H   0  0  0  0  0  0
   -1.6184    3.4600  -27.0484 H   0  0  0  0  0  0
    0.1250    2.0540  -20.9140 H   0  0  0  0  0  0
    6.9520    0.6703  -21.7203 H   0  0  0  0  0  0
   -3.0252    3.5697  -28.5117 H   0  0  0  0  0  0
    8.3500    9.4570  -21.6500 O   0  0  0  0  0  0
    4.3550    7.1710  -21.1800 N   0  3  0  0  0  0
    5.9490    9.1370  -21.3890 C   0  0  0  0  0  0
    3.3640    7.3340  -22.3050 C   0  0  0  0  0  0
    4.8430    8.4520  -20.5560 C   0  0  0  0  0  0
    7.3510    8.7990  -20.8530 C   0  0  0  0  0  0
    9.6750    9.2390  -21.1390 C   0  0  0  0  0  0
    5.1453    6.6374  -21.5067 H   0  0  0  0  0  0
    3.9541    6.5842  -20.4652 H   0  0  0  0  0  0
    5.8010   10.2268  -21.3680 H   0  0  0  0  0  0
    5.8700    8.8138  -22.4375 H   0  0  0  0  0  0
    3.8407    7.8737  -23.1365 H   0  0  0  0  0  0
    2.5167    7.9452  -21.9609 H   0  0  0  0  0  0
    5.2218    8.2441  -19.5444 H   0  0  0  0  0  0
    3.9970    9.1440  -20.4320 H   0  0  0  0  0  0
    7.4360    9.1368  -19.8096 H   0  0  0  0  0  0
    7.5080    7.7110  -20.8940 H   0  0  0  0  0  0
   10.4048    9.7579  -21.7778 H   0  0  0  0  0  0
    9.7410    9.6309  -20.1133 H   0  0  0  0  0  0
    9.8940    8.1610  -21.1340 H   0  0  0  0  0  0
  1  2  2  0  0  0
  1  3  1  0  0  0
  1 34  1  0  0  0
  2  6  1  0  0  0
  2 35  1  0  0  0
  3  5  2  0  0  0
  3 27  1  0  0  0
  4  5  1  0  0  0
  4  6  2  0  0  0
  4 18  1  0  0  0
  5 24  1  0  0  0
  6 10  1  0  0  0
  7 10  2  0  0  0
  7 23  1  0  0  0
  7 33  1  0  0  0
  8 21  1  0  0  0
  8 22  1  0  0  0
  8 36  1  0  0  0
  8 37  1  0  0  0
  9 21  1  0  0  0
  9 31  1  0  0  0
  9 38  1  0  0  0
  9 39  1  0  0  0
 10 40  1  0  0  0
 11 12  1  0  0  0
 11 14  2  0  0  0
 11 15  1  0  0  0
 12 17  1  0  0  0
 12 28  2  0  0  0
 13 28  1  0  0  0
 13 29  2  0  0  0
 13 55  1  0  0  0
 14 29  1  0  0  0
 14 31  1  0  0  0
 15 30  2  0  0  0
 15 41  1  0  0  0
 16 17  2  0  0  0
 16 18  1  0  0  0
 16 30  1  0  0  0
 17 26  1  0  0  0
 18 23  2  0  0  0
 19 20  1  0  0  0
 19 31  1  0  0  0
 19 42  1  0  0  0
 19 43  1  0  0  0
 20 22  1  0  0  0
 20 32  1  0  0  0
 20 44  1  0  0  0
 21 32  1  0  0  0
 21 45  1  0  0  0
 22 46  1  0  0  0
 22 47  1  0  0  0
 23 48  1  0  0  0
 24 25  3  0  0  0
 25 49  1  0  0  0
 32 50  1  0  0  0
 33 51  1  0  0  0
 52 57  1  0  0  0
 52 58  1  0  0  0
 53 55  1  0  0  0
 53 56  1  0  0  0
 53 59  1  0  0  0
 53 60  1  0  0  0
 54 56  1  0  0  0
 54 57  1  0  0  0
 54 61  1  0  0  0
 54 62  1  0  0  0
 55 63  1  0  0  0
 55 64  1  0  0  0
 56 65  1  0  0  0
 56 66  1  0  0  0
 57 67  1  0  0  0
 57 68  1  0  0  0
 58 69  1  0  0  0
 58 70  1  0  0  0
 58 71  1  0  0  0
M  CHG  1  53   1
M  END
> <s_m_entry_id>
238

> <s_m_entry_name>
000000238.1

> <s_m_Source_Path>
/Users/zaksoul/Documents/2

> <s_m_Source_File>
000000238.mol2

> <i_m_Source_File_Index>
1

$$$$
No_0_249
                    3D
 Schrodinger Suite 2022-4.
 70 75  0  0  1  0            999 V2000
   -5.1770    3.2960  -21.9860 C   0  0  0  0  0  0
   -5.4390    3.4750  -23.3240 C   0  0  0  0  0  0
   -3.9360    3.0690  -21.6370 C   0  0  0  0  0  0
   -3.0340    3.2060  -23.7970 C   0  0  0  0  0  0
   -2.8770    2.9700  -22.3750 C   0  0  0  0  0  0
   -4.3830    3.4400  -24.3270 C   0  0  0  0  0  0
   -3.6150    3.4700  -26.5210 C   0  0  0  0  0  0
    6.0940    2.9500  -21.1930 C   0  0  0  0  0  0
    5.9680    3.0810  -23.7440 C   0  0  0  0  0  0
   -4.6290    3.5580  -25.6650 C   0  0  0  0  0  0
    2.1730    3.5520  -23.7860 C   0  0  0  0  0  0
    1.3280    4.6450  -23.4960 C   0  0  0  0  0  0
    3.0980    5.8790  -22.8090 C   0  0  0  0  0  0
    3.5680    3.7720  -23.4650 C   0  0  0  0  0  0
    1.6540    2.4220  -24.4470 C   0  0  0  0  0  0
   -0.4900    3.1920  -24.3520 C   0  0  0  0  0  0
    0.0080    4.4250  -23.7540 C   0  0  0  0  0  0
   -1.9410    3.1680  -24.7160 C   0  0  0  0  0  0
    4.2220    1.2880  -23.1610 C   0  0  0  0  0  0
    5.1550    0.9550  -22.0080 C   0  0  2  0  0  0
    6.7200    2.5260  -22.5390 C   0  0  2  0  0  0
    5.1100    1.9590  -20.8440 C   0  0  0  0  0  0
   -2.2600    3.3160  -26.1460 C   0  0  0  0  0  0
   -1.5290    2.5860  -21.7670 C   0  0  0  0  0  0
   -0.4940    2.2600  -21.2530 C   0  0  0  0  0  0
   -0.8570    5.4540  -23.4180 F   0  0  0  0  0  0
   -3.7300    2.8350  -20.2520 F   0  0  0  0  0  0
    1.7780    5.8150  -22.9650 N   0  0  0  0  0  0
    4.0150    4.9340  -23.0200 N   0  0  0  0  0  0
    0.3510    2.3050  -24.7600 N   0  0  0  0  0  0
    4.5080    2.7430  -23.6330 N   0  0  0  0  0  0
    6.5630    1.0490  -22.4820 N   0  0  1  0  0  0
   -3.7800    3.4770  -27.9120 O   0  0  0  0  0  0
   -5.9846    3.3452  -21.2646 H   0  0  0  0  0  0
   -6.4552    3.6477  -23.6594 H   0  0  0  0  0  0
    5.6036    3.9278  -21.3090 H   0  0  0  0  0  0
    6.8751    2.9783  -20.4190 H   0  0  0  0  0  0
    6.3769    2.6418  -24.6659 H   0  0  0  0  0  0
    6.0891    4.1737  -23.7793 H   0  0  0  0  0  0
   -5.6410    3.7216  -26.0174 H   0  0  0  0  0  0
    2.3113    1.6051  -24.7220 H   0  0  0  0  0  0
    3.1784    1.2113  -22.8219 H   0  0  0  0  0  0
    4.4036    0.5909  -23.9923 H   0  0  0  0  0  0
    4.9491   -0.0601  -21.6377 H   0  0  0  0  0  0
    7.7834    2.8045  -22.5804 H   0  0  0  0  0  0
    4.1166    2.4300  -20.8077 H   0  0  0  0  0  0
    5.4148    1.4543  -19.9154 H   0  0  0  0  0  0
   -1.4860    3.3100  -26.9049 H   0  0  0  0  0  0
    0.4164    1.9739  -20.8008 H   0  0  0  0  0  0
    7.2163    0.5668  -21.7699 H   0  0  0  0  0  0
   -2.9308    3.4047  -28.3317 H   0  0  0  0  0  0
    5.9090   10.7820  -21.2430 O   0  0  0  0  0  0
    6.6130    8.8460  -22.1470 O   0  0  0  0  0  0
    3.2710    7.4660  -20.8980 N   0  3  0  0  0  0
    3.6270    7.2310  -22.3420 C   0  0  0  0  0  0
    3.7570    8.7620  -20.3010 C   0  0  0  0  0  0
    5.2890    8.8040  -20.1050 C   0  0  0  0  0  0
    6.0000    9.4400  -21.2790 C   0  0  0  0  0  0
    6.5920   11.5090  -22.2780 C   0  0  0  0  0  0
    3.6099    6.6963  -20.3422 H   0  0  0  0  0  0
    2.2711    7.4030  -20.7870 H   0  0  0  0  0  0
    4.7206    7.2560  -22.4581 H   0  0  0  0  0  0
    3.1907    8.0285  -22.9614 H   0  0  0  0  0  0
    3.2603    8.9269  -19.3335 H   0  0  0  0  0  0
    3.4470    9.5990  -20.9440 H   0  0  0  0  0  0
    5.6681    7.7818  -19.9590 H   0  0  0  0  0  0
    5.5251    9.3632  -19.1876 H   0  0  0  0  0  0
    6.4380   12.5883  -22.1320 H   0  0  0  0  0  0
    7.6681   11.2850  -22.2360 H   0  0  0  0  0  0
    6.1942   11.2121  -23.2596 H   0  0  0  0  0  0
  1  2  2  0  0  0
  1  3  1  0  0  0
  1 34  1  0  0  0
  2  6  1  0  0  0
  2 35  1  0  0  0
  3  5  2  0  0  0
  3 27  1  0  0  0
  4  5  1  0  0  0
  4  6  2  0  0  0
  4 18  1  0  0  0
  5 24  1  0  0  0
  6 10  1  0  0  0
  7 10  2  0  0  0
  7 23  1  0  0  0
  7 33  1  0  0  0
  8 21  1  0  0  0
  8 22  1  0  0  0
  8 36  1  0  0  0
  8 37  1  0  0  0
  9 21  1  0  0  0
  9 31  1  0  0  0
  9 38  1  0  0  0
  9 39  1  0  0  0
 10 40  1  0  0  0
 11 12  1  0  0  0
 11 14  2  0  0  0
 11 15  1  0  0  0
 12 17  1  0  0  0
 12 28  2  0  0  0
 13 28  1  0  0  0
 13 29  2  0  0  0
 13 55  1  0  0  0
 14 29  1  0  0  0
 14 31  1  0  0  0
 15 30  2  0  0  0
 15 41  1  0  0  0
 16 17  2  0  0  0
 16 18  1  0  0  0
 16 30  1  0  0  0
 17 26  1  0  0  0
 18 23  2  0  0  0
 19 20  1  0  0  0
 19 31  1  0  0  0
 19 42  1  0  0  0
 19 43  1  0  0  0
 20 22  1  0  0  0
 20 32  1  0  0  0
 20 44  1  0  0  0
 21 32  1  0  0  0
 21 45  1  0  0  0
 22 46  1  0  0  0
 22 47  1  0  0  0
 23 48  1  0  0  0
 24 25  3  0  0  0
 25 49  1  0  0  0
 32 50  1  0  0  0
 33 51  1  0  0  0
 52 58  1  0  0  0
 52 59  1  0  0  0
 53 58  2  0  0  0
 54 55  1  0  0  0
 54 56  1  0  0  0
 54 60  1  0  0  0
 54 61  1  0  0  0
 55 62  1  0  0  0
 55 63  1  0  0  0
 56 57  1  0  0  0
 56 64  1  0  0  0
 56 65  1  0  0  0
 57 58  1  0  0  0
 57 66  1  0  0  0
 57 67  1  0  0  0
 59 68  1  0  0  0
 59 69  1  0  0  0
 59 70  1  0  0  0
M  CHG  1  54   1
M  END
> <s_m_entry_id>
239

> <s_m_entry_name>
000000239.1

> <s_m_Source_Path>
/Users/zaksoul/Documents/2

> <s_m_Source_File>
000000239.mol2

> <i_m_Source_File_Index>
1

$$$$
No_0_250
                    3D
 Schrodinger Suite 2022-4.
 70 75  0  0  1  0            999 V2000
   -5.3670    3.3550  -22.3160 C   0  0  0  0  0  0
   -5.5750    3.5750  -23.6570 C   0  0  0  0  0  0
   -4.1400    3.1170  -21.9250 C   0  0  0  0  0  0
   -3.1530    3.3210  -24.0420 C   0  0  0  0  0  0
   -3.0530    3.0410  -22.6230 C   0  0  0  0  0  0
   -4.4800    3.5710  -24.6180 C   0  0  0  0  0  0
   -3.6250    3.6690  -26.7780 C   0  0  0  0  0  0
    5.8640    2.9840  -21.0850 C   0  0  0  0  0  0
    5.8400    3.1940  -23.6330 C   0  0  0  0  0  0
   -4.6720    3.7300  -25.9600 C   0  0  0  0  0  0
    2.0500    3.6660  -23.8130 C   0  0  0  0  0  0
    1.1920    4.7490  -23.5230 C   0  0  0  0  0  0
    2.9310    5.9620  -22.7280 C   0  0  0  0  0  0
    3.4300    3.8760  -23.4290 C   0  0  0  0  0  0
    1.5580    2.5570  -24.5280 C   0  0  0  0  0  0
   -0.5890    3.3240  -24.4960 C   0  0  0  0  0  0
   -0.1160    4.5380  -23.8400 C   0  0  0  0  0  0
   -2.0240    3.3110  -24.9170 C   0  0  0  0  0  0
    4.0740    1.3840  -23.1760 C   0  0  0  0  0  0
    4.9610    1.0150  -21.9970 C   0  0  2  0  0  0
    6.5440    2.6020  -22.4170 C   0  0  2  0  0  0
    4.8680    1.9830  -20.8060 C   0  0  0  0  0  0
   -2.2860    3.5040  -26.3540 C   0  0  0  0  0  0
   -1.7290    2.6380  -21.9730 C   0  0  0  0  0  0
   -0.7160    2.2970  -21.4290 C   0  0  0  0  0  0
   -0.9950    5.5560  -23.5080 F   0  0  0  0  0  0
   -3.9890    2.8410  -20.5410 F   0  0  0  0  0  0
    1.6200    5.9030  -22.9390 N   0  0  0  0  0  0
    3.8570    5.0230  -22.9320 N   0  0  0  0  0  0
    0.2700    2.4500  -24.8970 N   0  0  0  0  0  0
    4.3770    2.8520  -23.5910 N   0  0  0  0  0  0
    6.3870    1.1240  -22.4120 N   0  0  1  0  0  0
   -3.7340    3.7180  -28.1730 O   0  0  0  0  0  0
   -6.2026    3.3821  -21.6260 H   0  0  0  0  0  0
   -6.5770    3.7587  -24.0275 H   0  0  0  0  0  0
    5.3775    3.9650  -21.1900 H   0  0  0  0  0  0
    6.6136    2.9880  -20.2799 H   0  0  0  0  0  0
    6.2859    2.7834  -24.5510 H   0  0  0  0  0  0
    5.9611    4.2873  -23.6300 H   0  0  0  0  0  0
   -5.6690    3.9045  -26.3482 H   0  0  0  0  0  0
    2.2272    1.7494  -24.8019 H   0  0  0  0  0  0
    3.0177    1.2972  -22.8814 H   0  0  0  0  0  0
    4.2889    0.7129  -24.0207 H   0  0  0  0  0  0
    4.7420   -0.0112  -21.6670 H   0  0  0  0  0  0
    7.6078    2.8816  -22.4079 H   0  0  0  0  0  0
    3.8735    2.4530  -20.7949 H   0  0  0  0  0  0
    5.1364    1.4503  -19.8818 H   0  0  0  0  0  0
   -1.4819    3.5201  -27.0808 H   0  0  0  0  0  0
    0.1764    1.9969  -20.9508 H   0  0  0  0  0  0
    7.0113    0.6195  -21.6894 H   0  0  0  0  0  0
   -2.8688    3.6596  -28.5610 H   0  0  0  0  0  0
    5.6230   10.9100  -21.0970 O   0  0  0  0  0  0
    6.2790    9.1630  -22.3530 O   0  0  0  0  0  0
    3.3550    7.3370  -20.6960 N   0  3  0  0  0  0
    3.4400    7.2980  -22.1980 C   0  0  0  0  0  0
    3.8500    8.6000  -20.0390 C   0  0  0  0  0  0
    5.3840    8.7680  -20.1250 C   0  0  0  0  0  0
    5.8040    9.5950  -21.3190 C   0  0  0  0  0  0
    6.0370   11.8100  -22.1390 C   0  0  0  0  0  0
    3.8518    6.5474  -20.3142 H   0  0  0  0  0  0
    2.4031    7.1660  -20.4120 H   0  0  0  0  0  0
    4.4850    7.4420  -22.5100 H   0  0  0  0  0  0
    2.8352    8.1137  -22.6209 H   0  0  0  0  0  0
    3.5408    8.6090  -18.9834 H   0  0  0  0  0  0
    3.3609    9.4692  -20.5031 H   0  0  0  0  0  0
    5.8580    7.7770  -20.1820 H   0  0  0  0  0  0
    5.7518    9.2428  -19.2034 H   0  0  0  0  0  0
    5.8341   12.8464  -21.8312 H   0  0  0  0  0  0
    7.1142   11.6870  -22.3250 H   0  0  0  0  0  0
    5.4794   11.5862  -23.0604 H   0  0  0  0  0  0
  1  2  2  0  0  0
  1  3  1  0  0  0
  1 34  1  0  0  0
  2  6  1  0  0  0
  2 35  1  0  0  0
  3  5  2  0  0  0
  3 27  1  0  0  0
  4  5  1  0  0  0
  4  6  2  0  0  0
  4 18  1  0  0  0
  5 24  1  0  0  0
  6 10  1  0  0  0
  7 10  2  0  0  0
  7 23  1  0  0  0
  7 33  1  0  0  0
  8 21  1  0  0  0
  8 22  1  0  0  0
  8 36  1  0  0  0
  8 37  1  0  0  0
  9 21  1  0  0  0
  9 31  1  0  0  0
  9 38  1  0  0  0
  9 39  1  0  0  0
 10 40  1  0  0  0
 11 12  1  0  0  0
 11 14  2  0  0  0
 11 15  1  0  0  0
 12 17  1  0  0  0
 12 28  2  0  0  0
 13 28  1  0  0  0
 13 29  2  0  0  0
 13 55  1  0  0  0
 14 29  1  0  0  0
 14 31  1  0  0  0
 15 30  2  0  0  0
 15 41  1  0  0  0
 16 17  2  0  0  0
 16 18  1  0  0  0
 16 30  1  0  0  0
 17 26  1  0  0  0
 18 23  2  0  0  0
 19 20  1  0  0  0
 19 31  1  0  0  0
 19 42  1  0  0  0
 19 43  1  0  0  0
 20 22  1  0  0  0
 20 32  1  0  0  0
 20 44  1  0  0  0
 21 32  1  0  0  0
 21 45  1  0  0  0
 22 46  1  0  0  0
 22 47  1  0  0  0
 23 48  1  0  0  0
 24 25  3  0  0  0
 25 49  1  0  0  0
 32 50  1  0  0  0
 33 51  1  0  0  0
 52 58  1  0  0  0
 52 59  1  0  0  0
 53 58  2  0  0  0
 54 55  1  0  0  0
 54 56  1  0  0  0
 54 60  1  0  0  0
 54 61  1  0  0  0
 55 62  1  0  0  0
 55 63  1  0  0  0
 56 57  1  0  0  0
 56 64  1  0  0  0
 56 65  1  0  0  0
 57 58  1  0  0  0
 57 66  1  0  0  0
 57 67  1  0  0  0
 59 68  1  0  0  0
 59 69  1  0  0  0
 59 70  1  0  0  0
M  CHG  1  54   1
M  END
> <s_m_entry_id>
240

> <s_m_entry_name>
000000240.1

> <s_m_Source_Path>
/Users/zaksoul/Documents/2

> <s_m_Source_File>
000000240.mol2

> <i_m_Source_File_Index>
1

$$$$
No_0_251
                    3D
 Schrodinger Suite 2022-4.
 66 71  0  0  1  0            999 V2000
   -5.1100    3.4210  -22.2510 C   0  0  0  0  0  0
   -5.3520    3.6230  -23.5890 C   0  0  0  0  0  0
   -3.8800    3.1540  -21.8920 C   0  0  0  0  0  0
   -2.9510    3.2910  -24.0410 C   0  0  0  0  0  0
   -2.8160    3.0330  -22.6200 C   0  0  0  0  0  0
   -4.2880    3.5690  -24.5820 C   0  0  0  0  0  0
   -3.4960    3.6030  -26.7670 C   0  0  0  0  0  0
    6.1380    2.7430  -21.3490 C   0  0  0  0  0  0
    6.0430    2.9080  -23.8990 C   0  0  0  0  0  0
   -4.5160    3.7100  -25.9200 C   0  0  0  0  0  0
    2.2630    3.4880  -23.9740 C   0  0  0  0  0  0
    1.4470    4.6010  -23.6790 C   0  0  0  0  0  0
    3.2430    5.7750  -22.9590 C   0  0  0  0  0  0
    3.6600    3.6640  -23.6360 C   0  0  0  0  0  0
    1.7190    2.3810  -24.6530 C   0  0  0  0  0  0
   -0.4030    3.2110  -24.5710 C   0  0  0  0  0  0
    0.1240    4.4220  -23.9530 C   0  0  0  0  0  0
   -1.8500    3.2320  -24.9490 C   0  0  0  0  0  0
    4.2400    1.1590  -23.3550 C   0  0  0  0  0  0
    5.1510    0.7860  -22.1960 C   0  0  2  0  0  0
    6.7660    2.3170  -22.6940 C   0  0  2  0  0  0
    5.1230    1.7770  -21.0210 C   0  0  0  0  0  0
   -2.1500    3.4060  -26.3810 C   0  0  0  0  0  0
   -1.4860    2.6040  -22.0030 C   0  0  0  0  0  0
   -0.4660    2.2430  -21.4830 C   0  0  0  0  0  0
   -0.7150    5.4710  -23.6130 F   0  0  0  0  0  0
   -3.6940    2.8980  -20.5080 F   0  0  0  0  0  0
    1.9250    5.7510  -23.1300 N   0  0  0  0  0  0
    4.1350    4.8070  -23.1730 N   0  0  0  0  0  0
    0.4170    2.3050  -24.9810 N   0  0  0  0  0  0
    4.5720    2.6100  -23.8070 N   0  0  0  0  0  0
    6.5660    0.8450  -22.6550 N   0  0  1  0  0  0
   -3.6460    3.6310  -28.1590 O   0  0  0  0  0  0
   -5.9228    3.4842  -21.5366 H   0  0  0  0  0  0
   -6.3595    3.8287  -23.9322 H   0  0  0  0  0  0
    5.6769    3.7357  -21.4580 H   0  0  0  0  0  0
    6.9113    2.7400  -20.5667 H   0  0  0  0  0  0
    6.4489    2.4678  -24.8218 H   0  0  0  0  0  0
    6.1954    3.9972  -23.9202 H   0  0  0  0  0  0
   -5.5189    3.9068  -26.2814 H   0  0  0  0  0  0
    2.3553    1.5490  -24.9320 H   0  0  0  0  0  0
    3.1913    1.1085  -23.0270 H   0  0  0  0  0  0
    4.4096    0.4666  -24.1927 H   0  0  0  0  0  0
    4.9128   -0.2274  -21.8407 H   0  0  0  0  0  0
    7.8370    2.5663  -22.7202 H   0  0  0  0  0  0
    4.1428    2.2752  -20.9897 H   0  0  0  0  0  0
    5.4036    1.2531  -20.0954 H   0  0  0  0  0  0
   -1.3682    3.3869  -27.1317 H   0  0  0  0  0  0
    0.4315    1.9258  -21.0258 H   0  0  0  0  0  0
    7.1982    0.3358  -21.9426 H   0  0  0  0  0  0
   -2.7952    3.5390  -28.5715 H   0  0  0  0  0  0
    4.0800   10.6920  -23.1940 O   0  5  0  0  0  0
    5.8560    9.4490  -22.4770 O   0  0  0  0  0  0
    3.4640    7.3740  -21.0280 N   0  3  0  0  0  0
    3.8060    7.1060  -22.4700 C   0  0  0  0  0  0
    4.0460    9.8490  -20.9720 C   0  0  0  0  0  0
    4.2720    8.4540  -20.3570 C   0  0  0  0  0  0
    4.7140   10.0080  -22.3160 C   0  0  0  0  0  0
    3.5490    6.5182  -20.5021 H   0  0  0  0  0  0
    2.4838    7.5971  -20.9540 H   0  0  0  0  0  0
    4.8990    7.1080  -22.5940 H   0  0  0  0  0  0
    3.4142    7.9207  -23.0967 H   0  0  0  0  0  0
    4.4239   10.6179  -20.2821 H   0  0  0  0  0  0
    2.9663   10.0319  -21.0760 H   0  0  0  0  0  0
    5.3406    8.1991  -20.4130 H   0  0  0  0  0  0
    4.0242    8.4820  -19.2857 H   0  0  0  0  0  0
  1  2  2  0  0  0
  1  3  1  0  0  0
  1 34  1  0  0  0
  2  6  1  0  0  0
  2 35  1  0  0  0
  3  5  2  0  0  0
  3 27  1  0  0  0
  4  5  1  0  0  0
  4  6  2  0  0  0
  4 18  1  0  0  0
  5 24  1  0  0  0
  6 10  1  0  0  0
  7 10  2  0  0  0
  7 23  1  0  0  0
  7 33  1  0  0  0
  8 21  1  0  0  0
  8 22  1  0  0  0
  8 36  1  0  0  0
  8 37  1  0  0  0
  9 21  1  0  0  0
  9 31  1  0  0  0
  9 38  1  0  0  0
  9 39  1  0  0  0
 10 40  1  0  0  0
 11 12  1  0  0  0
 11 14  2  0  0  0
 11 15  1  0  0  0
 12 17  1  0  0  0
 12 28  2  0  0  0
 13 28  1  0  0  0
 13 29  2  0  0  0
 13 55  1  0  0  0
 14 29  1  0  0  0
 14 31  1  0  0  0
 15 30  2  0  0  0
 15 41  1  0  0  0
 16 17  2  0  0  0
 16 18  1  0  0  0
 16 30  1  0  0  0
 17 26  1  0  0  0
 18 23  2  0  0  0
 19 20  1  0  0  0
 19 31  1  0  0  0
 19 42  1  0  0  0
 19 43  1  0  0  0
 20 22  1  0  0  0
 20 32  1  0  0  0
 20 44  1  0  0  0
 21 32  1  0  0  0
 21 45  1  0  0  0
 22 46  1  0  0  0
 22 47  1  0  0  0
 23 48  1  0  0  0
 24 25  3  0  0  0
 25 49  1  0  0  0
 32 50  1  0  0  0
 33 51  1  0  0  0
 52 58  1  0  0  0
 53 58  2  0  0  0
 54 55  1  0  0  0
 54 57  1  0  0  0
 54 59  1  0  0  0
 54 60  1  0  0  0
 55 61  1  0  0  0
 55 62  1  0  0  0
 56 57  1  0  0  0
 56 58  1  0  0  0
 56 63  1  0  0  0
 56 64  1  0  0  0
 57 65  1  0  0  0
 57 66  1  0  0  0
M  CHG  2  52  -1  54   1
M  END
> <s_m_entry_id>
241

> <s_m_entry_name>
000000241.1

> <s_m_Source_Path>
/Users/zaksoul/Documents/2

> <s_m_Source_File>
000000241.mol2

> <i_m_Source_File_Index>
1

$$$$
No_0_252
                    3D
 Schrodinger Suite 2022-4.
 66 71  0  0  1  0            999 V2000
   -5.3310    3.4630  -22.0710 C   0  0  0  0  0  0
   -5.5900    3.6460  -23.4080 C   0  0  0  0  0  0
   -4.0940    3.2110  -21.7230 C   0  0  0  0  0  0
   -3.1920    3.3290  -23.8850 C   0  0  0  0  0  0
   -3.0380    3.0900  -22.4620 C   0  0  0  0  0  0
   -4.5370    3.5900  -24.4130 C   0  0  0  0  0  0
   -3.7710    3.6030  -26.6080 C   0  0  0  0  0  0
    5.9320    2.8900  -21.2910 C   0  0  0  0  0  0
    5.8060    3.0220  -23.8420 C   0  0  0  0  0  0
   -4.7810    3.7120  -25.7500 C   0  0  0  0  0  0
    2.0220    3.5700  -23.8800 C   0  0  0  0  0  0
    1.1990    4.6790  -23.5890 C   0  0  0  0  0  0
    2.9940    5.8780  -22.9050 C   0  0  0  0  0  0
    3.4200    3.7620  -23.5610 C   0  0  0  0  0  0
    1.4790    2.4500  -24.5400 C   0  0  0  0  0  0
   -0.6490    3.2640  -24.4430 C   0  0  0  0  0  0
   -0.1260    4.4860  -23.8460 C   0  0  0  0  0  0
   -2.1000    3.2680  -24.8040 C   0  0  0  0  0  0
    4.0250    1.2650  -23.2560 C   0  0  0  0  0  0
    4.9530    0.9140  -22.1030 C   0  0  2  0  0  0
    6.5480    2.4530  -22.6380 C   0  0  2  0  0  0
    4.9290    1.9200  -20.9400 C   0  0  0  0  0  0
   -2.4190    3.4220  -26.2350 C   0  0  0  0  0  0
   -1.6970    2.6790  -21.8550 C   0  0  0  0  0  0
   -0.6690    2.3340  -21.3430 C   0  0  0  0  0  0
   -0.9690    5.5330  -23.5100 F   0  0  0  0  0  0
   -3.8900    2.9740  -20.3390 F   0  0  0  0  0  0
    1.6730    5.8410  -23.0600 N   0  0  0  0  0  0
    3.8910    4.9150  -23.1170 N   0  0  0  0  0  0
    0.1740    2.3590  -24.8510 N   0  0  0  0  0  0
    4.3390    2.7140  -23.7290 N   0  0  0  0  0  0
    6.3620    0.9800  -22.5790 N   0  0  1  0  0  0
   -3.9370    3.6120  -27.9980 O   0  0  0  0  0  0
   -6.1362    3.5283  -21.3482 H   0  0  0  0  0  0
   -6.6028    3.8397  -23.7423 H   0  0  0  0  0  0
    5.4619    3.8777  -21.4070 H   0  0  0  0  0  0
    6.7143    2.9031  -20.5178 H   0  0  0  0  0  0
    6.2057    2.5738  -24.7636 H   0  0  0  0  0  0
    5.9492    4.1120  -23.8783 H   0  0  0  0  0  0
   -5.7896    3.8957  -26.1023 H   0  0  0  0  0  0
    2.1195    1.6198  -24.8151 H   0  0  0  0  0  0
    2.9803    1.2105  -22.9159 H   0  0  0  0  0  0
    4.1915    0.5646  -24.0877 H   0  0  0  0  0  0
    4.7268   -0.0967  -21.7324 H   0  0  0  0  0  0
    7.6166    2.7103  -22.6804 H   0  0  0  0  0  0
    3.9451    2.4105  -20.9037 H   0  0  0  0  0  0
    5.2247    1.4094  -20.0116 H   0  0  0  0  0  0
   -1.6452    3.3999  -26.9938 H   0  0  0  0  0  0
    0.2359    2.0290  -20.8921 H   0  0  0  0  0  0
    7.0061    0.4846  -21.8675 H   0  0  0  0  0  0
   -3.0902    3.5230  -28.4194 H   0  0  0  0  0  0
    3.3570   10.8570  -22.8680 O   0  5  0  0  0  0
    5.3460    9.7490  -22.7060 O   0  0  0  0  0  0
    3.5470    7.3470  -20.9380 N   0  3  0  0  0  0
    3.5510    7.2190  -22.4390 C   0  0  0  0  0  0
    3.9280    9.8570  -20.7880 C   0  0  0  0  0  0
    4.4050    8.4510  -20.3760 C   0  0  0  0  0  0
    4.2360   10.1780  -22.2300 C   0  0  0  0  0  0
    3.8242    6.4685  -20.5288 H   0  0  0  0  0  0
    2.5992    7.4660  -20.6161 H   0  0  0  0  0  0
    4.5781    7.3390  -22.8140 H   0  0  0  0  0  0
    2.9560    8.0340  -22.8770 H   0  0  0  0  0  0
    4.3991   10.6081  -20.1369 H   0  0  0  0  0  0
    2.8442    9.9390  -20.6190 H   0  0  0  0  0  0
    5.4450    8.3081  -20.7047 H   0  0  0  0  0  0
    4.4230    8.3770  -19.2786 H   0  0  0  0  0  0
  1  2  2  0  0  0
  1  3  1  0  0  0
  1 34  1  0  0  0
  2  6  1  0  0  0
  2 35  1  0  0  0
  3  5  2  0  0  0
  3 27  1  0  0  0
  4  5  1  0  0  0
  4  6  2  0  0  0
  4 18  1  0  0  0
  5 24  1  0  0  0
  6 10  1  0  0  0
  7 10  2  0  0  0
  7 23  1  0  0  0
  7 33  1  0  0  0
  8 21  1  0  0  0
  8 22  1  0  0  0
  8 36  1  0  0  0
  8 37  1  0  0  0
  9 21  1  0  0  0
  9 31  1  0  0  0
  9 38  1  0  0  0
  9 39  1  0  0  0
 10 40  1  0  0  0
 11 12  1  0  0  0
 11 14  2  0  0  0
 11 15  1  0  0  0
 12 17  1  0  0  0
 12 28  2  0  0  0
 13 28  1  0  0  0
 13 29  2  0  0  0
 13 55  1  0  0  0
 14 29  1  0  0  0
 14 31  1  0  0  0
 15 30  2  0  0  0
 15 41  1  0  0  0
 16 17  2  0  0  0
 16 18  1  0  0  0
 16 30  1  0  0  0
 17 26  1  0  0  0
 18 23  2  0  0  0
 19 20  1  0  0  0
 19 31  1  0  0  0
 19 42  1  0  0  0
 19 43  1  0  0  0
 20 22  1  0  0  0
 20 32  1  0  0  0
 20 44  1  0  0  0
 21 32  1  0  0  0
 21 45  1  0  0  0
 22 46  1  0  0  0
 22 47  1  0  0  0
 23 48  1  0  0  0
 24 25  3  0  0  0
 25 49  1  0  0  0
 32 50  1  0  0  0
 33 51  1  0  0  0
 52 58  1  0  0  0
 53 58  2  0  0  0
 54 55  1  0  0  0
 54 57  1  0  0  0
 54 59  1  0  0  0
 54 60  1  0  0  0
 55 61  1  0  0  0
 55 62  1  0  0  0
 56 57  1  0  0  0
 56 58  1  0  0  0
 56 63  1  0  0  0
 56 64  1  0  0  0
 57 65  1  0  0  0
 57 66  1  0  0  0
M  CHG  2  52  -1  54   1
M  END
> <s_m_entry_id>
242

> <s_m_entry_name>
000000242.1

> <s_m_Source_Path>
/Users/zaksoul/Documents/2

> <s_m_Source_File>
000000242.mol2

> <i_m_Source_File_Index>
1

$$$$
No_0_253
                    3D
 Schrodinger Suite 2022-4.
 66 71  0  0  1  0            999 V2000
   -5.0260    3.4600  -22.2030 C   0  0  0  0  0  0
   -5.3010    3.6120  -23.5410 C   0  0  0  0  0  0
   -3.7810    3.2460  -21.8610 C   0  0  0  0  0  0
   -2.9000    3.3460  -24.0320 C   0  0  0  0  0  0
   -2.7280    3.1380  -22.6070 C   0  0  0  0  0  0
   -4.2550    3.5630  -24.5540 C   0  0  0  0  0  0
   -3.5070    3.5540  -26.7550 C   0  0  0  0  0  0
    6.2530    3.1840  -21.5100 C   0  0  0  0  0  0
    6.1030    3.2660  -24.0610 C   0  0  0  0  0  0
   -4.5130    3.6540  -25.8910 C   0  0  0  0  0  0
    2.3060    3.7170  -24.0770 C   0  0  0  0  0  0
    1.4580    4.8110  -23.8000 C   0  0  0  0  0  0
    3.2280    6.0670  -23.1530 C   0  0  0  0  0  0
    3.7020    3.9500  -23.7730 C   0  0  0  0  0  0
    1.7860    2.5720  -24.7110 C   0  0  0  0  0  0
   -0.3610    3.3340  -24.6110 C   0  0  0  0  0  0
    0.1370    4.5800  -24.0410 C   0  0  0  0  0  0
   -1.8150    3.2950  -24.9600 C   0  0  0  0  0  0
    4.3720    1.4760  -23.4280 C   0  0  0  0  0  0
    5.3170    1.1690  -22.2770 C   0  0  2  0  0  0
    6.8690    2.7370  -22.8540 C   0  0  2  0  0  0
    5.2780    2.1960  -21.1320 C   0  0  0  0  0  0
   -2.1480    3.4150  -26.3900 C   0  0  0  0  0  0
   -1.3720    2.7720  -22.0040 C   0  0  0  0  0  0
   -0.3310    2.4620  -21.4940 C   0  0  0  0  0  0
   -0.7300    5.6110  -23.7170 F   0  0  0  0  0  0
   -3.5600    3.0400  -20.4740 F   0  0  0  0  0  0
    1.9070    5.9940  -23.2960 N   0  0  0  0  0  0
    4.1470    5.1220  -23.3550 N   0  0  0  0  0  0
    0.4810    2.4430  -25.0090 N   0  0  0  0  0  0
    4.6460    2.9220  -23.9300 N   0  0  0  0  0  0
    6.7210    1.2610  -22.7660 N   0  0  1  0  0  0
   -3.6850    3.5340  -28.1440 O   0  0  0  0  0  0
   -5.8266    3.5192  -21.4746 H   0  0  0  0  0  0
   -6.3210    3.7736  -23.8703 H   0  0  0  0  0  0
    5.7573    4.1573  -21.6402 H   0  0  0  0  0  0
    7.0411    3.2314  -20.7441 H   0  0  0  0  0  0
    6.5055    2.8110  -24.9780 H   0  0  0  0  0  0
    6.2191    4.3583  -24.1196 H   0  0  0  0  0  0
   -5.5291    3.8055  -26.2370 H   0  0  0  0  0  0
    2.4455    1.7539  -24.9770 H   0  0  0  0  0  0
    3.3322    1.4014  -23.0770 H   0  0  0  0  0  0
    4.5486    0.7636  -24.2473 H   0  0  0  0  0  0
    5.1201    0.1602  -21.8852 H   0  0  0  0  0  0
    7.9304    3.0205  -22.9095 H   0  0  0  0  0  0
    4.2823    2.6621  -21.0957 H   0  0  0  0  0  0
    5.5940    1.7103  -20.1970 H   0  0  0  0  0  0
   -1.3806    3.3969  -27.1554 H   0  0  0  0  0  0
    0.5853    2.1889  -21.0458 H   0  0  0  0  0  0
    7.3830    0.7958  -22.0506 H   0  0  0  0  0  0
   -2.8395    3.4569  -28.5702 H   0  0  0  0  0  0
    2.8310   10.8990  -21.9600 O   0  5  0  0  0  0
    4.6670   10.3660  -23.2080 O   0  0  0  0  0  0
    4.6170    7.3400  -21.4860 N   0  3  0  0  0  0
    3.7550    7.4300  -22.7170 C   0  0  0  0  0  0
    4.6520    9.8110  -20.8860 C   0  0  0  0  0  0
    5.4740    8.5460  -21.2010 C   0  0  0  0  0  0
    4.0020   10.4040  -22.1130 C   0  0  0  0  0  0
    5.2035    6.5226  -21.5490 H   0  0  0  0  0  0
    4.0360    7.1480  -20.6850 H   0  0  0  0  0  0
    4.3340    7.8780  -23.5380 H   0  0  0  0  0  0
    2.9079    8.1041  -22.5220 H   0  0  0  0  0  0
    5.3041   10.5631  -20.4179 H   0  0  0  0  0  0
    3.8776    9.5679  -20.1436 H   0  0  0  0  0  0
    6.1290    8.7410  -22.0630 H   0  0  0  0  0  0
    6.1449    8.3270  -20.3572 H   0  0  0  0  0  0
  1  2  2  0  0  0
  1  3  1  0  0  0
  1 34  1  0  0  0
  2  6  1  0  0  0
  2 35  1  0  0  0
  3  5  2  0  0  0
  3 27  1  0  0  0
  4  5  1  0  0  0
  4  6  2  0  0  0
  4 18  1  0  0  0
  5 24  1  0  0  0
  6 10  1  0  0  0
  7 10  2  0  0  0
  7 23  1  0  0  0
  7 33  1  0  0  0
  8 21  1  0  0  0
  8 22  1  0  0  0
  8 36  1  0  0  0
  8 37  1  0  0  0
  9 21  1  0  0  0
  9 31  1  0  0  0
  9 38  1  0  0  0
  9 39  1  0  0  0
 10 40  1  0  0  0
 11 12  1  0  0  0
 11 14  2  0  0  0
 11 15  1  0  0  0
 12 17  1  0  0  0
 12 28  2  0  0  0
 13 28  1  0  0  0
 13 29  2  0  0  0
 13 55  1  0  0  0
 14 29  1  0  0  0
 14 31  1  0  0  0
 15 30  2  0  0  0
 15 41  1  0  0  0
 16 17  2  0  0  0
 16 18  1  0  0  0
 16 30  1  0  0  0
 17 26  1  0  0  0
 18 23  2  0  0  0
 19 20  1  0  0  0
 19 31  1  0  0  0
 19 42  1  0  0  0
 19 43  1  0  0  0
 20 22  1  0  0  0
 20 32  1  0  0  0
 20 44  1  0  0  0
 21 32  1  0  0  0
 21 45  1  0  0  0
 22 46  1  0  0  0
 22 47  1  0  0  0
 23 48  1  0  0  0
 24 25  3  0  0  0
 25 49  1  0  0  0
 32 50  1  0  0  0
 33 51  1  0  0  0
 52 58  1  0  0  0
 53 58  2  0  0  0
 54 55  1  0  0  0
 54 57  1  0  0  0
 54 59  1  0  0  0
 54 60  1  0  0  0
 55 61  1  0  0  0
 55 62  1  0  0  0
 56 57  1  0  0  0
 56 58  1  0  0  0
 56 63  1  0  0  0
 56 64  1  0  0  0
 57 65  1  0  0  0
 57 66  1  0  0  0
M  CHG  2  52  -1  54   1
M  END
> <s_m_entry_id>
243

> <s_m_entry_name>
000000243.1

> <s_m_Source_Path>
/Users/zaksoul/Documents/2

> <s_m_Source_File>
000000243.mol2

> <i_m_Source_File_Index>
1

$$$$
No_0_254
                    3D
 Schrodinger Suite 2022-4.
 66 71  0  0  1  0            999 V2000
   -5.3980    3.2450  -21.8800 C   0  0  0  0  0  0
   -5.6280    3.4860  -23.2140 C   0  0  0  0  0  0
   -4.1700    2.9750  -21.5170 C   0  0  0  0  0  0
   -3.2210    3.1810  -23.6520 C   0  0  0  0  0  0
   -3.0990    2.8820  -22.2380 C   0  0  0  0  0  0
   -4.5540    3.4680  -24.1980 C   0  0  0  0  0  0
   -3.7410    3.5720  -26.3730 C   0  0  0  0  0  0
    5.8430    2.6000  -20.8840 C   0  0  0  0  0  0
    5.7730    2.8410  -23.4290 C   0  0  0  0  0  0
   -4.7690    3.6480  -25.5330 C   0  0  0  0  0  0
    1.9910    3.4030  -23.5250 C   0  0  0  0  0  0
    1.1660    4.5020  -23.2050 C   0  0  0  0  0  0
    2.9480    5.6650  -22.4330 C   0  0  0  0  0  0
    3.3840    3.5770  -23.1680 C   0  0  0  0  0  0
    1.4600    2.3140  -24.2430 C   0  0  0  0  0  0
   -0.6670    3.1300  -24.1580 C   0  0  0  0  0  0
   -0.1540    4.3250  -23.4980 C   0  0  0  0  0  0
   -2.1100    3.1550  -24.5500 C   0  0  0  0  0  0
    3.9750    1.0670  -22.9570 C   0  0  0  0  0  0
    4.8770    0.6640  -21.8000 C   0  0  2  0  0  0
    6.4870    2.2190  -22.2350 C   0  0  2  0  0  0
    4.8300    1.6200  -20.5960 C   0  0  0  0  0  0
   -2.3970    3.3710  -25.9790 C   0  0  0  0  0  0
   -1.7720    2.4410  -21.6200 C   0  0  0  0  0  0
   -0.7560    2.0700  -21.1010 C   0  0  0  0  0  0
   -1.0010    5.3590  -23.1360 F   0  0  0  0  0  0
   -3.9970    2.6790  -20.1400 F   0  0  0  0  0  0
    1.6320    5.6380  -22.6170 N   0  0  0  0  0  0
    3.8480    4.7080  -22.6660 N   0  0  0  0  0  0
    0.1620    2.2410  -24.5860 N   0  0  0  0  0  0
    4.3030    2.5330  -23.3610 N   0  0  0  0  0  0
    6.2960    0.7450  -22.2430 N   0  0  1  0  0  0
   -3.8760    3.6410  -27.7650 O   0  0  0  0  0  0
   -6.2191    3.2831  -21.1733 H   0  0  0  0  0  0
   -6.6328    3.6978  -23.5613 H   0  0  0  0  0  0
    5.3789    3.5938  -20.9677 H   0  0  0  0  0  0
    6.6090    2.5788  -20.0948 H   0  0  0  0  0  0
    6.1908    2.4313  -24.3604 H   0  0  0  0  0  0
    5.9194    3.9311  -23.4159 H   0  0  0  0  0  0
   -5.7695    3.8497  -25.8983 H   0  0  0  0  0  0
    2.1046    1.4947  -24.5402 H   0  0  0  0  0  0
    2.9233    1.0015  -22.6414 H   0  0  0  0  0  0
    4.1567    0.4007  -23.8131 H   0  0  0  0  0  0
    4.6398   -0.3604  -21.4770 H   0  0  0  0  0  0
    7.5572    2.4732  -22.2431 H   0  0  0  0  0  0
    3.8471    2.1125  -20.5597 H   0  0  0  0  0  0
    5.1045    1.0700  -19.6838 H   0  0  0  0  0  0
   -1.6073    3.3780  -26.7215 H   0  0  0  0  0  0
    0.1383    1.7439  -20.6438 H   0  0  0  0  0  0
    6.9231    0.2183  -21.5389 H   0  0  0  0  0  0
   -3.0204    3.5657  -28.1710 H   0  0  0  0  0  0
    3.3550    9.3910  -19.1350 O   0  5  0  0  0  0
    3.3740   10.0400  -21.3240 O   0  0  0  0  0  0
    5.0040    7.0210  -21.9180 N   0  3  0  0  0  0
    3.4990    6.9830  -21.8980 C   0  0  0  0  0  0
    5.3350    9.0370  -20.4030 C   0  0  0  0  0  0
    5.6230    8.3870  -21.7700 C   0  0  0  0  0  0
    3.9120    9.5280  -20.2800 C   0  0  0  0  0  0
    5.3372    6.5947  -22.7685 H   0  0  0  0  0  0
    5.3619    6.4141  -21.1971 H   0  0  0  0  0  0
    3.1041    7.8148  -22.4998 H   0  0  0  0  0  0
    3.1417    7.1381  -20.8693 H   0  0  0  0  0  0
    6.0271    9.8771  -20.2440 H   0  0  0  0  0  0
    5.5409    8.3113  -19.6024 H   0  0  0  0  0  0
    5.2548    9.0433  -22.5723 H   0  0  0  0  0  0
    6.7106    8.3130  -21.9170 H   0  0  0  0  0  0
  1  2  2  0  0  0
  1  3  1  0  0  0
  1 34  1  0  0  0
  2  6  1  0  0  0
  2 35  1  0  0  0
  3  5  2  0  0  0
  3 27  1  0  0  0
  4  5  1  0  0  0
  4  6  2  0  0  0
  4 18  1  0  0  0
  5 24  1  0  0  0
  6 10  1  0  0  0
  7 10  2  0  0  0
  7 23  1  0  0  0
  7 33  1  0  0  0
  8 21  1  0  0  0
  8 22  1  0  0  0
  8 36  1  0  0  0
  8 37  1  0  0  0
  9 21  1  0  0  0
  9 31  1  0  0  0
  9 38  1  0  0  0
  9 39  1  0  0  0
 10 40  1  0  0  0
 11 12  1  0  0  0
 11 14  2  0  0  0
 11 15  1  0  0  0
 12 17  1  0  0  0
 12 28  2  0  0  0
 13 28  1  0  0  0
 13 29  2  0  0  0
 13 55  1  0  0  0
 14 29  1  0  0  0
 14 31  1  0  0  0
 15 30  2  0  0  0
 15 41  1  0  0  0
 16 17  2  0  0  0
 16 18  1  0  0  0
 16 30  1  0  0  0
 17 26  1  0  0  0
 18 23  2  0  0  0
 19 20  1  0  0  0
 19 31  1  0  0  0
 19 42  1  0  0  0
 19 43  1  0  0  0
 20 22  1  0  0  0
 20 32  1  0  0  0
 20 44  1  0  0  0
 21 32  1  0  0  0
 21 45  1  0  0  0
 22 46  1  0  0  0
 22 47  1  0  0  0
 23 48  1  0  0  0
 24 25  3  0  0  0
 25 49  1  0  0  0
 32 50  1  0  0  0
 33 51  1  0  0  0
 52 58  1  0  0  0
 53 58  2  0  0  0
 54 55  1  0  0  0
 54 57  1  0  0  0
 54 59  1  0  0  0
 54 60  1  0  0  0
 55 61  1  0  0  0
 55 62  1  0  0  0
 56 57  1  0  0  0
 56 58  1  0  0  0
 56 63  1  0  0  0
 56 64  1  0  0  0
 57 65  1  0  0  0
 57 66  1  0  0  0
M  CHG  2  52  -1  54   1
M  END
> <s_m_entry_id>
244

> <s_m_entry_name>
000000244.1

> <s_m_Source_Path>
/Users/zaksoul/Documents/2

> <s_m_Source_File>
000000244.mol2

> <i_m_Source_File_Index>
1

$$$$
No_0_255
                    3D
 Schrodinger Suite 2022-4.
 66 71  0  0  1  0            999 V2000
   -5.3650    3.3290  -21.7820 C   0  0  0  0  0  0
   -5.6090    3.5140  -23.1220 C   0  0  0  0  0  0
   -4.1290    3.0980  -21.4170 C   0  0  0  0  0  0
   -3.1990    3.2410  -23.5650 C   0  0  0  0  0  0
   -3.0610    2.9990  -22.1420 C   0  0  0  0  0  0
   -4.5400    3.4800  -24.1120 C   0  0  0  0  0  0
   -3.7430    3.5160  -26.2950 C   0  0  0  0  0  0
    5.8930    2.9510  -20.8420 C   0  0  0  0  0  0
    5.8020    3.0930  -23.3930 C   0  0  0  0  0  0
   -4.7680    3.6030  -25.4520 C   0  0  0  0  0  0
    2.0090    3.5730  -23.4840 C   0  0  0  0  0  0
    1.1630    4.6670  -23.2010 C   0  0  0  0  0  0
    2.9260    5.8940  -22.4860 C   0  0  0  0  0  0
    3.4000    3.7890  -23.1440 C   0  0  0  0  0  0
    1.4960    2.4470  -24.1560 C   0  0  0  0  0  0
   -0.6470    3.2230  -24.0870 C   0  0  0  0  0  0
   -0.1540    4.4520  -23.4770 C   0  0  0  0  0  0
   -2.0930    3.2030  -24.4690 C   0  0  0  0  0  0
    4.0440    1.3020  -22.8400 C   0  0  0  0  0  0
    4.9610    0.9620  -21.6760 C   0  0  2  0  0  0
    6.5360    2.5310  -22.1810 C   0  0  2  0  0  0
    4.9030    1.9620  -20.5090 C   0  0  0  0  0  0
   -2.3940    3.3570  -25.9030 C   0  0  0  0  0  0
   -1.7220    2.6090  -21.5170 C   0  0  0  0  0  0
   -0.6950    2.2790  -20.9910 C   0  0  0  0  0  0
   -1.0210    5.4820  -23.1490 F   0  0  0  0  0  0
   -3.9420    2.8580  -20.0310 F   0  0  0  0  0  0
    1.6090    5.8340  -22.6600 N   0  0  0  0  0  0
    3.8440    4.9480  -22.6890 N   0  0  0  0  0  0
    0.1970    2.3350  -24.4860 N   0  0  0  0  0  0
    4.3390    2.7570  -23.3030 N   0  0  0  0  0  0
    6.3750    1.0540  -22.1310 N   0  0  1  0  0  0
   -3.8890    3.5280  -27.6880 O   0  0  0  0  0  0
   -6.1821    3.3772  -21.0713 H   0  0  0  0  0  0
   -6.6201    3.6907  -23.4704 H   0  0  0  0  0  0
    5.4075    3.9310  -20.9601 H   0  0  0  0  0  0
    6.6635    2.9752  -20.0573 H   0  0  0  0  0  0
    6.2216    2.6553  -24.3108 H   0  0  0  0  0  0
    5.9262    4.1855  -23.4233 H   0  0  0  0  0  0
   -5.7747    3.7706  -25.8173 H   0  0  0  0  0  0
    2.1547    1.6296  -24.4261 H   0  0  0  0  0  0
    2.9957    1.2273  -22.5151 H   0  0  0  0  0  0
    4.2338    0.6076  -23.6717 H   0  0  0  0  0  0
    4.7471   -0.0540  -21.3128 H   0  0  0  0  0  0
    7.6004    2.8074  -22.2072 H   0  0  0  0  0  0
    3.9103    2.4352  -20.4848 H   0  0  0  0  0  0
    5.1938    1.4532  -19.5781 H   0  0  0  0  0  0
   -1.6092    3.3520  -26.6507 H   0  0  0  0  0  0
    0.2092    1.9890  -20.5289 H   0  0  0  0  0  0
    7.0177    0.5674  -21.4123 H   0  0  0  0  0  0
   -3.0346    3.4557  -28.0969 H   0  0  0  0  0  0
    6.1780    8.9370  -20.2290 O   0  5  0  0  0  0
    3.9810    9.4410  -19.8660 O   0  0  0  0  0  0
    3.4640    8.2730  -23.1060 N   0  3  0  0  0  0
    3.4530    7.2430  -22.0070 C   0  0  0  0  0  0
    4.9560    9.9930  -21.9740 C   0  0  0  0  0  0
    3.6050    9.7040  -22.6560 C   0  0  0  0  0  0
    5.0430    9.4130  -20.5830 C   0  0  0  0  0  0
    2.6263    8.1790  -23.6588 H   0  0  0  0  0  0
    4.2006    8.0548  -23.7586 H   0  0  0  0  0  0
    2.8311    7.6029  -21.1741 H   0  0  0  0  0  0
    4.4720    7.1180  -21.6120 H   0  0  0  0  0  0
    5.1170   11.0802  -21.9280 H   0  0  0  0  0  0
    5.7711    9.5870  -22.5911 H   0  0  0  0  0  0
    2.7864    9.9519  -21.9643 H   0  0  0  0  0  0
    3.4810   10.3732  -23.5202 H   0  0  0  0  0  0
  1  2  2  0  0  0
  1  3  1  0  0  0
  1 34  1  0  0  0
  2  6  1  0  0  0
  2 35  1  0  0  0
  3  5  2  0  0  0
  3 27  1  0  0  0
  4  5  1  0  0  0
  4  6  2  0  0  0
  4 18  1  0  0  0
  5 24  1  0  0  0
  6 10  1  0  0  0
  7 10  2  0  0  0
  7 23  1  0  0  0
  7 33  1  0  0  0
  8 21  1  0  0  0
  8 22  1  0  0  0
  8 36  1  0  0  0
  8 37  1  0  0  0
  9 21  1  0  0  0
  9 31  1  0  0  0
  9 38  1  0  0  0
  9 39  1  0  0  0
 10 40  1  0  0  0
 11 12  1  0  0  0
 11 14  2  0  0  0
 11 15  1  0  0  0
 12 17  1  0  0  0
 12 28  2  0  0  0
 13 28  1  0  0  0
 13 29  2  0  0  0
 13 55  1  0  0  0
 14 29  1  0  0  0
 14 31  1  0  0  0
 15 30  2  0  0  0
 15 41  1  0  0  0
 16 17  2  0  0  0
 16 18  1  0  0  0
 16 30  1  0  0  0
 17 26  1  0  0  0
 18 23  2  0  0  0
 19 20  1  0  0  0
 19 31  1  0  0  0
 19 42  1  0  0  0
 19 43  1  0  0  0
 20 22  1  0  0  0
 20 32  1  0  0  0
 20 44  1  0  0  0
 21 32  1  0  0  0
 21 45  1  0  0  0
 22 46  1  0  0  0
 22 47  1  0  0  0
 23 48  1  0  0  0
 24 25  3  0  0  0
 25 49  1  0  0  0
 32 50  1  0  0  0
 33 51  1  0  0  0
 52 58  1  0  0  0
 53 58  2  0  0  0
 54 55  1  0  0  0
 54 57  1  0  0  0
 54 59  1  0  0  0
 54 60  1  0  0  0
 55 61  1  0  0  0
 55 62  1  0  0  0
 56 57  1  0  0  0
 56 58  1  0  0  0
 56 63  1  0  0  0
 56 64  1  0  0  0
 57 65  1  0  0  0
 57 66  1  0  0  0
M  CHG  2  52  -1  54   1
M  END
> <s_m_entry_id>
245

> <s_m_entry_name>
000000245.1

> <s_m_Source_Path>
/Users/zaksoul/Documents/2

> <s_m_Source_File>
000000245.mol2

> <i_m_Source_File_Index>
1

$$$$
No_0_256
                    3D
 Schrodinger Suite 2022-4.
 66 71  0  0  1  0            999 V2000
   -5.2460    3.6030  -21.8260 C   0  0  0  0  0  0
   -5.4850    3.8010  -23.1660 C   0  0  0  0  0  0
   -4.0160    3.3470  -21.4620 C   0  0  0  0  0  0
   -3.0790    3.4880  -23.6070 C   0  0  0  0  0  0
   -2.9480    3.2340  -22.1860 C   0  0  0  0  0  0
   -4.4160    3.7550  -24.1540 C   0  0  0  0  0  0
   -3.6150    3.7920  -26.3360 C   0  0  0  0  0  0
    6.0020    3.0180  -20.8750 C   0  0  0  0  0  0
    5.9170    3.1780  -23.4260 C   0  0  0  0  0  0
   -4.6390    3.8920  -25.4940 C   0  0  0  0  0  0
    2.1330    3.7270  -23.5180 C   0  0  0  0  0  0
    1.3070    4.8340  -23.2280 C   0  0  0  0  0  0
    3.0900    6.0250  -22.5030 C   0  0  0  0  0  0
    3.5270    3.9160  -23.1740 C   0  0  0  0  0  0
    1.6010    2.6150  -24.1980 C   0  0  0  0  0  0
   -0.5280    3.4280  -24.1260 C   0  0  0  0  0  0
   -0.0140    4.6440  -23.5080 C   0  0  0  0  0  0
   -1.9740    3.4370  -24.5110 C   0  0  0  0  0  0
    4.1260    1.4160  -22.8870 C   0  0  0  0  0  0
    5.0360    1.0520  -21.7240 C   0  0  2  0  0  0
    6.6400    2.5960  -22.2170 C   0  0  2  0  0  0
    4.9940    2.0450  -20.5510 C   0  0  0  0  0  0
   -2.2690    3.6070  -25.9440 C   0  0  0  0  0  0
   -1.6170    2.8160  -21.5620 C   0  0  0  0  0  0
   -0.5970    2.4650  -21.0370 C   0  0  0  0  0  0
   -0.8630    5.6870  -23.1740 F   0  0  0  0  0  0
   -3.8340    3.0950  -20.0770 F   0  0  0  0  0  0
    1.7730    5.9890  -22.6790 N   0  0  0  0  0  0
    3.9910    5.0630  -22.7110 N   0  0  0  0  0  0
    0.3010    2.5280  -24.5310 N   0  0  0  0  0  0
    4.4480    2.8690  -23.3400 N   0  0  0  0  0  0
    6.4520    1.1220  -22.1770 N   0  0  1  0  0  0
   -3.7590    3.8160  -27.7290 O   0  0  0  0  0  0
   -6.0632    3.6612  -21.1162 H   0  0  0  0  0  0
   -6.4925    3.9989  -23.5136 H   0  0  0  0  0  0
    5.5338    4.0069  -20.9880 H   0  0  0  0  0  0
    6.7722    3.0230  -20.0897 H   0  0  0  0  0  0
    6.3307    2.7400  -24.3463 H   0  0  0  0  0  0
    6.0602    4.2684  -23.4482 H   0  0  0  0  0  0
   -5.6421    4.0798  -25.8595 H   0  0  0  0  0  0
    2.2456    1.7877  -24.4721 H   0  0  0  0  0  0
    3.0761    1.3574  -22.5640 H   0  0  0  0  0  0
    4.3057    0.7236  -23.7227 H   0  0  0  0  0  0
    4.8040    0.0374  -21.3680 H   0  0  0  0  0  0
    7.7094    2.8525  -22.2392 H   0  0  0  0  0  0
    4.0096    2.5352  -20.5238 H   0  0  0  0  0  0
    5.2743    1.5247  -19.6233 H   0  0  0  0  0  0
   -1.4837    3.5919  -26.6911 H   0  0  0  0  0  0
    0.3007    2.1551  -20.5752 H   0  0  0  0  0  0
    7.0847    0.6186  -21.4610 H   0  0  0  0  0  0
   -2.9057    3.7309  -28.1378 H   0  0  0  0  0  0
    6.6070    9.0890  -20.7210 O   0  5  0  0  0  0
    4.5290    9.3890  -19.8250 O   0  0  0  0  0  0
    3.3440    8.4840  -22.9720 N   0  3  0  0  0  0
    3.6400    7.3600  -22.0140 C   0  0  0  0  0  0
    4.9620   10.2030  -22.0280 C   0  0  0  0  0  0
    3.5080    9.8750  -22.4170 C   0  0  0  0  0  0
    5.3970    9.5080  -20.7600 C   0  0  0  0  0  0
    2.4082    8.3770  -23.3309 H   0  0  0  0  0  0
    3.9207    8.3831  -23.7926 H   0  0  0  0  0  0
    3.2080    7.5950  -21.0300 H   0  0  0  0  0  0
    4.7277    7.2780  -21.8720 H   0  0  0  0  0  0
    5.0711   11.2905  -21.9039 H   0  0  0  0  0  0
    5.6343    9.9169  -22.8503 H   0  0  0  0  0  0
    2.8584    9.9959  -21.5376 H   0  0  0  0  0  0
    3.1531   10.6077  -23.1567 H   0  0  0  0  0  0
  1  2  2  0  0  0
  1  3  1  0  0  0
  1 34  1  0  0  0
  2  6  1  0  0  0
  2 35  1  0  0  0
  3  5  2  0  0  0
  3 27  1  0  0  0
  4  5  1  0  0  0
  4  6  2  0  0  0
  4 18  1  0  0  0
  5 24  1  0  0  0
  6 10  1  0  0  0
  7 10  2  0  0  0
  7 23  1  0  0  0
  7 33  1  0  0  0
  8 21  1  0  0  0
  8 22  1  0  0  0
  8 36  1  0  0  0
  8 37  1  0  0  0
  9 21  1  0  0  0
  9 31  1  0  0  0
  9 38  1  0  0  0
  9 39  1  0  0  0
 10 40  1  0  0  0
 11 12  1  0  0  0
 11 14  2  0  0  0
 11 15  1  0  0  0
 12 17  1  0  0  0
 12 28  2  0  0  0
 13 28  1  0  0  0
 13 29  2  0  0  0
 13 55  1  0  0  0
 14 29  1  0  0  0
 14 31  1  0  0  0
 15 30  2  0  0  0
 15 41  1  0  0  0
 16 17  2  0  0  0
 16 18  1  0  0  0
 16 30  1  0  0  0
 17 26  1  0  0  0
 18 23  2  0  0  0
 19 20  1  0  0  0
 19 31  1  0  0  0
 19 42  1  0  0  0
 19 43  1  0  0  0
 20 22  1  0  0  0
 20 32  1  0  0  0
 20 44  1  0  0  0
 21 32  1  0  0  0
 21 45  1  0  0  0
 22 46  1  0  0  0
 22 47  1  0  0  0
 23 48  1  0  0  0
 24 25  3  0  0  0
 25 49  1  0  0  0
 32 50  1  0  0  0
 33 51  1  0  0  0
 52 58  1  0  0  0
 53 58  2  0  0  0
 54 55  1  0  0  0
 54 57  1  0  0  0
 54 59  1  0  0  0
 54 60  1  0  0  0
 55 61  1  0  0  0
 55 62  1  0  0  0
 56 57  1  0  0  0
 56 58  1  0  0  0
 56 63  1  0  0  0
 56 64  1  0  0  0
 57 65  1  0  0  0
 57 66  1  0  0  0
M  CHG  2  52  -1  54   1
M  END
> <s_m_entry_id>
246

> <s_m_entry_name>
000000246.1

> <s_m_Source_Path>
/Users/zaksoul/Documents/2

> <s_m_Source_File>
000000246.mol2

> <i_m_Source_File_Index>
1

$$$$
No_0_257
                    3D
 Schrodinger Suite 2022-4.
 66 71  0  0  1  0            999 V2000
   -5.0540    3.6460  -22.2560 C   0  0  0  0  0  0
   -5.3060    3.8640  -23.5890 C   0  0  0  0  0  0
   -3.8150    3.4090  -21.9050 C   0  0  0  0  0  0
   -2.8990    3.6100  -24.0550 C   0  0  0  0  0  0
   -2.7510    3.3310  -22.6390 C   0  0  0  0  0  0
   -4.2450    3.8590  -24.5870 C   0  0  0  0  0  0
   -3.4620    3.9530  -26.7730 C   0  0  0  0  0  0
    6.2120    3.2780  -21.3990 C   0  0  0  0  0  0
    6.1030    3.4840  -23.9450 C   0  0  0  0  0  0
   -4.4810    4.0160  -25.9220 C   0  0  0  0  0  0
    2.3090    3.9560  -23.9990 C   0  0  0  0  0  0
    1.4610    5.0390  -23.6820 C   0  0  0  0  0  0
    3.2260    6.2530  -22.9470 C   0  0  0  0  0  0
    3.7010    4.1670  -23.6620 C   0  0  0  0  0  0
    1.7940    2.8460  -24.6960 C   0  0  0  0  0  0
   -0.3510    3.6130  -24.5930 C   0  0  0  0  0  0
    0.1430    4.8270  -23.9560 C   0  0  0  0  0  0
   -1.7990    3.5990  -24.9670 C   0  0  0  0  0  0
    4.3530    1.6750  -23.4270 C   0  0  0  0  0  0
    5.2790    1.3080  -22.2780 C   0  0  2  0  0  0
    6.8470    2.8940  -22.7530 C   0  0  2  0  0  0
    5.2260    2.2770  -21.0850 C   0  0  0  0  0  0
   -2.1090    3.7890  -26.3940 C   0  0  0  0  0  0
   -1.4070    2.9300  -22.0330 C   0  0  0  0  0  0
   -0.3760    2.5900  -21.5230 C   0  0  0  0  0  0
   -0.7250    5.8460  -23.5950 F   0  0  0  0  0  0
   -3.6170    3.1340  -20.5270 F   0  0  0  0  0  0
    1.9070    6.1930  -23.1140 N   0  0  0  0  0  0
    4.1440    5.3150  -23.1800 N   0  0  0  0  0  0
    0.4940    2.7380  -25.0210 N   0  0  0  0  0  0
    4.6420    3.1420  -23.8540 N   0  0  0  0  0  0
    6.6900    1.4160  -22.7390 N   0  0  1  0  0  0
   -3.6170    4.0010  -28.1640 O   0  0  0  0  0  0
   -5.8660    3.6731  -21.5384 H   0  0  0  0  0  0
   -6.3200    4.0465  -23.9260 H   0  0  0  0  0  0
    5.7225    4.2590  -21.4888 H   0  0  0  0  0  0
    6.9878    3.2841  -20.6192 H   0  0  0  0  0  0
    6.5188    3.0723  -24.8765 H   0  0  0  0  0  0
    6.2241    4.5773  -23.9480 H   0  0  0  0  0  0
   -5.4907    4.1896  -26.2763 H   0  0  0  0  0  0
    2.4531    2.0375  -24.9909 H   0  0  0  0  0  0
    3.3073    1.5882  -23.0969 H   0  0  0  0  0  0
    4.5405    1.0025  -24.2770 H   0  0  0  0  0  0
    5.0712    0.2823  -21.9391 H   0  0  0  0  0  0
    7.9106    3.1735  -22.7782 H   0  0  0  0  0  0
    4.2324    2.7471  -21.0426 H   0  0  0  0  0  0
    5.5249    1.7459  -20.1692 H   0  0  0  0  0  0
   -1.3296    3.8051  -27.1473 H   0  0  0  0  0  0
    0.5316    2.2901  -21.0742 H   0  0  0  0  0  0
    7.3389    0.9125  -22.0377 H   0  0  0  0  0  0
   -2.7652    3.9416  -28.5805 H   0  0  0  0  0  0
    6.7690    9.5230  -21.6540 O   0  5  0  0  0  0
    4.9480    9.4870  -20.2780 O   0  0  0  0  0  0
    3.1310    8.7590  -23.1580 N   0  3  0  0  0  0
    3.7510    7.5900  -22.4370 C   0  0  0  0  0  0
    4.7640   10.5570  -22.4040 C   0  0  0  0  0  0
    3.2950   10.0990  -22.4890 C   0  0  0  0  0  0
    5.5530    9.7980  -21.3640 C   0  0  0  0  0  0
    2.1504    8.5769  -23.3041 H   0  0  0  0  0  0
    3.5020    8.8070  -24.0940 H   0  0  0  0  0  0
    3.5481    7.6760  -21.3593 H   0  0  0  0  0  0
    4.8438    7.6240  -22.5580 H   0  0  0  0  0  0
    4.7990   11.6327  -22.1768 H   0  0  0  0  0  0
    5.2420   10.4330  -23.3869 H   0  0  0  0  0  0
    2.8672   10.0560  -21.4765 H   0  0  0  0  0  0
    2.7078   10.8533  -23.0332 H   0  0  0  0  0  0
  1  2  2  0  0  0
  1  3  1  0  0  0
  1 34  1  0  0  0
  2  6  1  0  0  0
  2 35  1  0  0  0
  3  5  2  0  0  0
  3 27  1  0  0  0
  4  5  1  0  0  0
  4  6  2  0  0  0
  4 18  1  0  0  0
  5 24  1  0  0  0
  6 10  1  0  0  0
  7 10  2  0  0  0
  7 23  1  0  0  0
  7 33  1  0  0  0
  8 21  1  0  0  0
  8 22  1  0  0  0
  8 36  1  0  0  0
  8 37  1  0  0  0
  9 21  1  0  0  0
  9 31  1  0  0  0
  9 38  1  0  0  0
  9 39  1  0  0  0
 10 40  1  0  0  0
 11 12  1  0  0  0
 11 14  2  0  0  0
 11 15  1  0  0  0
 12 17  1  0  0  0
 12 28  2  0  0  0
 13 28  1  0  0  0
 13 29  2  0  0  0
 13 55  1  0  0  0
 14 29  1  0  0  0
 14 31  1  0  0  0
 15 30  2  0  0  0
 15 41  1  0  0  0
 16 17  2  0  0  0
 16 18  1  0  0  0
 16 30  1  0  0  0
 17 26  1  0  0  0
 18 23  2  0  0  0
 19 20  1  0  0  0
 19 31  1  0  0  0
 19 42  1  0  0  0
 19 43  1  0  0  0
 20 22  1  0  0  0
 20 32  1  0  0  0
 20 44  1  0  0  0
 21 32  1  0  0  0
 21 45  1  0  0  0
 22 46  1  0  0  0
 22 47  1  0  0  0
 23 48  1  0  0  0
 24 25  3  0  0  0
 25 49  1  0  0  0
 32 50  1  0  0  0
 33 51  1  0  0  0
 52 58  1  0  0  0
 53 58  2  0  0  0
 54 55  1  0  0  0
 54 57  1  0  0  0
 54 59  1  0  0  0
 54 60  1  0  0  0
 55 61  1  0  0  0
 55 62  1  0  0  0
 56 57  1  0  0  0
 56 58  1  0  0  0
 56 63  1  0  0  0
 56 64  1  0  0  0
 57 65  1  0  0  0
 57 66  1  0  0  0
M  CHG  2  52  -1  54   1
M  END
> <s_m_entry_id>
247

> <s_m_entry_name>
000000247.1

> <s_m_Source_Path>
/Users/zaksoul/Documents/2

> <s_m_Source_File>
000000247.mol2

> <i_m_Source_File_Index>
1

$$$$
No_0_263
                    3D
 Schrodinger Suite 2022-4.
 67 72  0  0  1  0            999 V2000
   -5.3380    3.3410  -22.0000 C   0  0  0  0  0  0
   -5.6150    3.4940  -23.3380 C   0  0  0  0  0  0
   -4.0950    3.1120  -21.6600 C   0  0  0  0  0  0
   -3.2180    3.1970  -23.8340 C   0  0  0  0  0  0
   -3.0460    2.9890  -22.4080 C   0  0  0  0  0  0
   -4.5720    3.4300  -24.3530 C   0  0  0  0  0  0
   -3.8290    3.4070  -26.5550 C   0  0  0  0  0  0
    5.9380    2.9270  -21.3320 C   0  0  0  0  0  0
    5.7830    3.0050  -23.8840 C   0  0  0  0  0  0
   -4.8320    3.5210  -25.6890 C   0  0  0  0  0  0
    1.9920    3.5040  -23.8910 C   0  0  0  0  0  0
    1.1580    4.6090  -23.6140 C   0  0  0  0  0  0
    2.9450    5.8430  -22.9750 C   0  0  0  0  0  0
    3.3910    3.7200  -23.5910 C   0  0  0  0  0  0
    1.4560    2.3640  -24.5220 C   0  0  0  0  0  0
   -0.6810    3.1520  -24.4180 C   0  0  0  0  0  0
   -0.1660    4.3930  -23.8520 C   0  0  0  0  0  0
   -2.1360    3.1310  -24.7640 C   0  0  0  0  0  0
    4.0310    1.2380  -23.2420 C   0  0  0  0  0  0
    4.9760    0.9220  -22.0930 C   0  0  2  0  0  0
    6.5460    2.4700  -22.6770 C   0  0  2  0  0  0
    4.9520    1.9510  -20.9510 C   0  0  0  0  0  0
   -2.4710    3.2510  -26.1930 C   0  0  0  0  0  0
   -1.6930    2.6080  -21.8080 C   0  0  0  0  0  0
   -0.6550    2.2860  -21.3000 C   0  0  0  0  0  0
   -1.0200    5.4360  -23.5280 F   0  0  0  0  0  0
   -3.8730    2.9060  -20.2740 F   0  0  0  0  0  0
    1.6230    5.7860  -23.1140 N   0  0  0  0  0  0
    3.8520    4.8870  -23.1770 N   0  0  0  0  0  0
    0.1490    2.2500  -24.8170 N   0  0  0  0  0  0
    4.3220    2.6800  -23.7490 N   0  0  0  0  0  0
    6.3790    0.9960  -22.5860 N   0  0  1  0  0  0
   -4.0100    3.3860  -27.9440 O   0  0  0  0  0  0
   -6.1367    3.4112  -21.2705 H   0  0  0  0  0  0
   -6.6340    3.6677  -23.6643 H   0  0  0  0  0  0
    5.4544    3.9063  -21.4632 H   0  0  0  0  0  0
    6.7288    2.9653  -20.5684 H   0  0  0  0  0  0
    6.1786    2.5428  -24.8004 H   0  0  0  0  0  0
    5.9121    4.0957  -23.9445 H   0  0  0  0  0  0
   -5.8468    3.6846  -26.0333 H   0  0  0  0  0  0
    2.1039    1.5366  -24.7878 H   0  0  0  0  0  0
    2.9907    1.1765  -22.8899 H   0  0  0  0  0  0
    4.1974    0.5218  -24.0601 H   0  0  0  0  0  0
    4.7670   -0.0836  -21.6992 H   0  0  0  0  0  0
    7.6108    2.7395  -22.7365 H   0  0  0  0  0  0
    3.9625    2.4301  -20.9137 H   0  0  0  0  0  0
    5.2640    1.4644  -20.0151 H   0  0  0  0  0  0
   -1.7063    3.2229  -26.9608 H   0  0  0  0  0  0
    0.2589    2.0030  -20.8530 H   0  0  0  0  0  0
    7.0363    0.5236  -21.8710 H   0  0  0  0  0  0
   -3.1667    3.2979  -28.3726 H   0  0  0  0  0  0
    6.4290    7.9930  -22.1390 O   0  0  0  0  0  0
    3.8290    7.1980  -21.0760 N   0  0  1  0  0  0
    6.9130    8.2510  -19.9320 N   0  0  0  0  0  0
    4.6270    8.3810  -20.6010 C   0  0  0  0  0  0
    3.4890    7.2010  -22.5430 C   0  0  0  0  0  0
    6.0790    8.1890  -20.9840 C   0  0  0  0  0  0
    8.3530    8.0520  -20.1420 C   0  0  0  0  0  0
    4.3858    6.2913  -20.8911 H   0  0  0  0  0  0
    6.5520    8.4310  -19.0170 H   0  0  0  0  0  0
    4.5440    8.4640  -19.5073 H   0  0  0  0  0  0
    4.2410    9.2960  -21.0740 H   0  0  0  0  0  0
    4.3910    7.4360  -23.1270 H   0  0  0  0  0  0
    2.7368    7.9782  -22.7431 H   0  0  0  0  0  0
    8.8788    8.1360  -19.1794 H   0  0  0  0  0  0
    8.5281    7.0536  -20.5692 H   0  0  0  0  0  0
    8.7319    8.8178  -20.8348 H   0  0  0  0  0  0
  1  2  2  0  0  0
  1  3  1  0  0  0
  1 34  1  0  0  0
  2  6  1  0  0  0
  2 35  1  0  0  0
  3  5  2  0  0  0
  3 27  1  0  0  0
  4  5  1  0  0  0
  4  6  2  0  0  0
  4 18  1  0  0  0
  5 24  1  0  0  0
  6 10  1  0  0  0
  7 10  2  0  0  0
  7 23  1  0  0  0
  7 33  1  0  0  0
  8 21  1  0  0  0
  8 22  1  0  0  0
  8 36  1  0  0  0
  8 37  1  0  0  0
  9 21  1  0  0  0
  9 31  1  0  0  0
  9 38  1  0  0  0
  9 39  1  0  0  0
 10 40  1  0  0  0
 11 12  1  0  0  0
 11 14  2  0  0  0
 11 15  1  0  0  0
 12 17  1  0  0  0
 12 28  2  0  0  0
 13 28  1  0  0  0
 13 29  2  0  0  0
 13 56  1  0  0  0
 14 29  1  0  0  0
 14 31  1  0  0  0
 15 30  2  0  0  0
 15 41  1  0  0  0
 16 17  2  0  0  0
 16 18  1  0  0  0
 16 30  1  0  0  0
 17 26  1  0  0  0
 18 23  2  0  0  0
 19 20  1  0  0  0
 19 31  1  0  0  0
 19 42  1  0  0  0
 19 43  1  0  0  0
 20 22  1  0  0  0
 20 32  1  0  0  0
 20 44  1  0  0  0
 21 32  1  0  0  0
 21 45  1  0  0  0
 22 46  1  0  0  0
 22 47  1  0  0  0
 23 48  1  0  0  0
 24 25  3  0  0  0
 25 49  1  0  0  0
 32 50  1  0  0  0
 33 51  1  0  0  0
 52 57  2  0  0  0
 53 55  1  0  0  0
 53 56  1  0  0  0
 53 59  1  0  0  0
 54 57  1  0  0  0
 54 58  1  0  0  0
 54 60  1  0  0  0
 55 57  1  0  0  0
 55 61  1  0  0  0
 55 62  1  0  0  0
 56 63  1  0  0  0
 56 64  1  0  0  0
 58 65  1  0  0  0
 58 66  1  0  0  0
 58 67  1  0  0  0
M  END
> <s_m_entry_id>
248

> <s_m_entry_name>
000000248.1

> <s_m_Source_Path>
/Users/zaksoul/Documents/2

> <s_m_Source_File>
000000248.mol2

> <i_m_Source_File_Index>
1

$$$$
No_0_264
                    3D
 Schrodinger Suite 2022-4.
 67 72  0  0  1  0            999 V2000
   -5.2950    3.3230  -22.1300 C   0  0  0  0  0  0
   -5.5320    3.5140  -23.4700 C   0  0  0  0  0  0
   -4.0590    3.1010  -21.7590 C   0  0  0  0  0  0
   -3.1170    3.2680  -23.9000 C   0  0  0  0  0  0
   -2.9860    3.0180  -22.4770 C   0  0  0  0  0  0
   -4.4570    3.4970  -24.4530 C   0  0  0  0  0  0
   -3.6470    3.5560  -26.6310 C   0  0  0  0  0  0
    5.9610    3.0510  -21.1220 C   0  0  0  0  0  0
    5.8840    3.2090  -23.6730 C   0  0  0  0  0  0
   -4.6780    3.6280  -25.7940 C   0  0  0  0  0  0
    2.0870    3.6520  -23.7840 C   0  0  0  0  0  0
    1.2280    4.7360  -23.4990 C   0  0  0  0  0  0
    2.9750    5.9750  -22.7650 C   0  0  0  0  0  0
    3.4730    3.8790  -23.4340 C   0  0  0  0  0  0
    1.5890    2.5250  -24.4670 C   0  0  0  0  0  0
   -0.5620    3.2790  -24.4050 C   0  0  0  0  0  0
   -0.0850    4.5090  -23.7850 C   0  0  0  0  0  0
   -2.0050    3.2480  -24.7970 C   0  0  0  0  0  0
    4.1400    1.3970  -23.1430 C   0  0  0  0  0  0
    5.0540    1.0590  -21.9750 C   0  0  2  0  0  0
    6.6160    2.6470  -22.4600 C   0  0  2  0  0  0
    4.9780    2.0500  -20.8020 C   0  0  0  0  0  0
   -2.2980    3.4090  -26.2320 C   0  0  0  0  0  0
   -1.6460    2.6370  -21.8470 C   0  0  0  0  0  0
   -0.6190    2.3140  -21.3170 C   0  0  0  0  0  0
   -0.9640    5.5280  -23.4550 F   0  0  0  0  0  0
   -3.8770    2.8540  -20.3730 F   0  0  0  0  0  0
    1.6590    5.9030  -22.9470 N   0  0  0  0  0  0
    3.9030    5.0390  -22.9680 N   0  0  0  0  0  0
    0.2940    2.4020  -24.8060 N   0  0  0  0  0  0
    4.4240    2.8580  -23.5940 N   0  0  0  0  0  0
    6.4700    1.1680  -22.4200 N   0  0  1  0  0  0
   -3.7840    3.5760  -28.0250 O   0  0  0  0  0  0
   -6.1162    3.3581  -21.4233 H   0  0  0  0  0  0
   -6.5427    3.6836  -23.8233 H   0  0  0  0  0  0
    5.4657    4.0264  -21.2370 H   0  0  0  0  0  0
    6.7264    3.0782  -20.3324 H   0  0  0  0  0  0
    6.3142    2.7819  -24.5909 H   0  0  0  0  0  0
    5.9970    4.3030  -23.6942 H   0  0  0  0  0  0
   -5.6841    3.7877  -26.1645 H   0  0  0  0  0  0
    2.2582    1.7162  -24.7373 H   0  0  0  0  0  0
    3.0906    1.3092  -22.8251 H   0  0  0  0  0  0
    4.3428    0.7097  -23.9776 H   0  0  0  0  0  0
    4.8483    0.0384  -21.6200 H   0  0  0  0  0  0
    7.6779    2.9337  -22.4772 H   0  0  0  0  0  0
    3.9806    2.5134  -20.7808 H   0  0  0  0  0  0
    5.2686    1.5384  -19.8726 H   0  0  0  0  0  0
   -1.5088    3.4160  -26.9750 H   0  0  0  0  0  0
    0.2844    2.0299  -20.8498 H   0  0  0  0  0  0
    7.1130    0.6822  -21.7010 H   0  0  0  0  0  0
   -2.9264    3.5146  -28.4290 H   0  0  0  0  0  0
    6.4000    8.2770  -22.1120 O   0  0  0  0  0  0
    3.9840    7.2250  -20.8560 N   0  0  1  0  0  0
    7.1090    8.3850  -19.9540 N   0  0  0  0  0  0
    4.7590    8.4160  -20.3640 C   0  0  0  0  0  0
    3.4840    7.3260  -22.2730 C   0  0  0  0  0  0
    6.1690    8.3540  -20.9140 C   0  0  0  0  0  0
    8.5260    8.3010  -20.3310 C   0  0  0  0  0  0
    4.6089    6.3452  -20.8130 H   0  0  0  0  0  0
    6.8419    8.4640  -18.9936 H   0  0  0  0  0  0
    4.7940    8.4030  -19.2646 H   0  0  0  0  0  0
    4.2719    9.3392  -20.7111 H   0  0  0  0  0  0
    4.3005    7.6688  -22.9256 H   0  0  0  0  0  0
    2.6709    8.0651  -22.3230 H   0  0  0  0  0  0
    9.1500    8.3410  -19.4260 H   0  0  0  0  0  0
    8.7100    7.3549  -20.8611 H   0  0  0  0  0  0
    8.7819    9.1447  -20.9888 H   0  0  0  0  0  0
  1  2  2  0  0  0
  1  3  1  0  0  0
  1 34  1  0  0  0
  2  6  1  0  0  0
  2 35  1  0  0  0
  3  5  2  0  0  0
  3 27  1  0  0  0
  4  5  1  0  0  0
  4  6  2  0  0  0
  4 18  1  0  0  0
  5 24  1  0  0  0
  6 10  1  0  0  0
  7 10  2  0  0  0
  7 23  1  0  0  0
  7 33  1  0  0  0
  8 21  1  0  0  0
  8 22  1  0  0  0
  8 36  1  0  0  0
  8 37  1  0  0  0
  9 21  1  0  0  0
  9 31  1  0  0  0
  9 38  1  0  0  0
  9 39  1  0  0  0
 10 40  1  0  0  0
 11 12  1  0  0  0
 11 14  2  0  0  0
 11 15  1  0  0  0
 12 17  1  0  0  0
 12 28  2  0  0  0
 13 28  1  0  0  0
 13 29  2  0  0  0
 13 56  1  0  0  0
 14 29  1  0  0  0
 14 31  1  0  0  0
 15 30  2  0  0  0
 15 41  1  0  0  0
 16 17  2  0  0  0
 16 18  1  0  0  0
 16 30  1  0  0  0
 17 26  1  0  0  0
 18 23  2  0  0  0
 19 20  1  0  0  0
 19 31  1  0  0  0
 19 42  1  0  0  0
 19 43  1  0  0  0
 20 22  1  0  0  0
 20 32  1  0  0  0
 20 44  1  0  0  0
 21 32  1  0  0  0
 21 45  1  0  0  0
 22 46  1  0  0  0
 22 47  1  0  0  0
 23 48  1  0  0  0
 24 25  3  0  0  0
 25 49  1  0  0  0
 32 50  1  0  0  0
 33 51  1  0  0  0
 52 57  2  0  0  0
 53 55  1  0  0  0
 53 56  1  0  0  0
 53 59  1  0  0  0
 54 57  1  0  0  0
 54 58  1  0  0  0
 54 60  1  0  0  0
 55 57  1  0  0  0
 55 61  1  0  0  0
 55 62  1  0  0  0
 56 63  1  0  0  0
 56 64  1  0  0  0
 58 65  1  0  0  0
 58 66  1  0  0  0
 58 67  1  0  0  0
M  END
> <s_m_entry_id>
249

> <s_m_entry_name>
000000249.1

> <s_m_Source_Path>
/Users/zaksoul/Documents/2

> <s_m_Source_File>
000000249.mol2

> <i_m_Source_File_Index>
1

$$$$
No_0_265
                    3D
 Schrodinger Suite 2022-4.
 67 72  0  0  1  0            999 V2000
   -5.6440    3.2560  -22.4210 C   0  0  0  0  0  0
   -5.8370    3.4180  -23.7730 C   0  0  0  0  0  0
   -4.4220    3.0340  -22.0070 C   0  0  0  0  0  0
   -3.4120    3.1430  -24.1210 C   0  0  0  0  0  0
   -3.3270    2.9250  -22.6890 C   0  0  0  0  0  0
   -4.7320    3.3690  -24.7210 C   0  0  0  0  0  0
   -3.8540    3.3710  -26.8740 C   0  0  0  0  0  0
    5.5730    2.9200  -21.0550 C   0  0  0  0  0  0
    5.5760    3.0180  -23.6110 C   0  0  0  0  0  0
   -4.9100    3.4700  -26.0710 C   0  0  0  0  0  0
    1.7890    3.4890  -23.8510 C   0  0  0  0  0  0
    0.9310    4.5850  -23.6180 C   0  0  0  0  0  0
    2.6640    5.8280  -22.8590 C   0  0  0  0  0  0
    3.1650    3.7130  -23.4630 C   0  0  0  0  0  0
    1.3020    2.3500  -24.5230 C   0  0  0  0  0  0
   -0.8430    3.1220  -24.5460 C   0  0  0  0  0  0
   -0.3750    4.3620  -23.9400 C   0  0  0  0  0  0
   -2.2730    3.0920  -24.9820 C   0  0  0  0  0  0
    3.8010    1.2330  -23.0940 C   0  0  0  0  0  0
    4.6750    0.9150  -21.8900 C   0  0  2  0  0  0
    6.2660    2.4790  -22.3630 C   0  0  2  0  0  0
    4.5720    1.9350  -20.7440 C   0  0  0  0  0  0
   -2.5200    3.2220  -26.4290 C   0  0  0  0  0  0
   -2.0110    2.5490  -22.0090 C   0  0  0  0  0  0
   -1.0050    2.2310  -21.4400 C   0  0  0  0  0  0
   -1.2550    5.3950  -23.6620 F   0  0  0  0  0  0
   -4.2860    2.8180  -20.6110 F   0  0  0  0  0  0
    1.3540    5.7620  -23.0810 N   0  0  0  0  0  0
    3.5900    4.8800  -23.0110 N   0  0  0  0  0  0
    0.0180    2.2290  -24.8990 N   0  0  0  0  0  0
    4.1120    2.6810  -23.5700 N   0  0  0  0  0  0
    6.1050    1.0030  -22.2940 N   0  0  1  0  0  0
   -3.9480    3.3590  -28.2710 O   0  0  0  0  0  0
   -6.4868    3.3153  -21.7419 H   0  0  0  0  0  0
   -6.8348    3.5866  -24.1615 H   0  0  0  0  0  0
    5.0899    3.8963  -21.2083 H   0  0  0  0  0  0
    6.3142    2.9594  -20.2431 H   0  0  0  0  0  0
    6.0311    2.5669  -24.5051 H   0  0  0  0  0  0
    5.7001    4.1101  -23.6544 H   0  0  0  0  0  0
   -5.9027    3.6286  -26.4765 H   0  0  0  0  0  0
    1.9724    1.5300  -24.7538 H   0  0  0  0  0  0
    2.7417    1.1614  -22.8065 H   0  0  0  0  0  0
    4.0240    0.5245  -23.9054 H   0  0  0  0  0  0
    4.4499   -0.0953  -21.5176 H   0  0  0  0  0  0
    7.3303    2.7567  -22.3539 H   0  0  0  0  0  0
    3.5782    2.4062  -20.7642 H   0  0  0  0  0  0
    4.8283    1.4425  -19.7944 H   0  0  0  0  0  0
   -1.7079    3.2049  -27.1468 H   0  0  0  0  0  0
   -0.1190    1.9503  -20.9386 H   0  0  0  0  0  0
    6.7207    0.5295  -21.5436 H   0  0  0  0  0  0
   -3.0788    3.2808  -28.6462 H   0  0  0  0  0  0
    6.0450    8.2570  -22.5070 O   0  0  0  0  0  0
    3.8240    7.0690  -21.0320 N   0  0  1  0  0  0
    6.9800    8.3370  -20.4350 N   0  0  0  0  0  0
    4.6000    8.2790  -20.5900 C   0  0  0  0  0  0
    3.1700    7.1860  -22.3830 C   0  0  0  0  0  0
    5.9430    8.2910  -21.2890 C   0  0  0  0  0  0
    8.3500    8.3250  -20.9650 C   0  0  0  0  0  0
    4.4848    6.2163  -21.0830 H   0  0  0  0  0  0
    6.8149    8.3800  -19.4497 H   0  0  0  0  0  0
    4.7539    8.2380  -19.5016 H   0  0  0  0  0  0
    4.0409    9.1891  -20.8530 H   0  0  0  0  0  0
    3.8959    7.5810  -23.1089 H   0  0  0  0  0  0
    2.3270    7.8900  -22.3220 H   0  0  0  0  0  0
    9.0660    8.3680  -20.1310 H   0  0  0  0  0  0
    8.5131    7.4017  -21.5402 H   0  0  0  0  0  0
    8.4980    9.1962  -21.6201 H   0  0  0  0  0  0
  1  2  2  0  0  0
  1  3  1  0  0  0
  1 34  1  0  0  0
  2  6  1  0  0  0
  2 35  1  0  0  0
  3  5  2  0  0  0
  3 27  1  0  0  0
  4  5  1  0  0  0
  4  6  2  0  0  0
  4 18  1  0  0  0
  5 24  1  0  0  0
  6 10  1  0  0  0
  7 10  2  0  0  0
  7 23  1  0  0  0
  7 33  1  0  0  0
  8 21  1  0  0  0
  8 22  1  0  0  0
  8 36  1  0  0  0
  8 37  1  0  0  0
  9 21  1  0  0  0
  9 31  1  0  0  0
  9 38  1  0  0  0
  9 39  1  0  0  0
 10 40  1  0  0  0
 11 12  1  0  0  0
 11 14  2  0  0  0
 11 15  1  0  0  0
 12 17  1  0  0  0
 12 28  2  0  0  0
 13 28  1  0  0  0
 13 29  2  0  0  0
 13 56  1  0  0  0
 14 29  1  0  0  0
 14 31  1  0  0  0
 15 30  2  0  0  0
 15 41  1  0  0  0
 16 17  2  0  0  0
 16 18  1  0  0  0
 16 30  1  0  0  0
 17 26  1  0  0  0
 18 23  2  0  0  0
 19 20  1  0  0  0
 19 31  1  0  0  0
 19 42  1  0  0  0
 19 43  1  0  0  0
 20 22  1  0  0  0
 20 32  1  0  0  0
 20 44  1  0  0  0
 21 32  1  0  0  0
 21 45  1  0  0  0
 22 46  1  0  0  0
 22 47  1  0  0  0
 23 48  1  0  0  0
 24 25  3  0  0  0
 25 49  1  0  0  0
 32 50  1  0  0  0
 33 51  1  0  0  0
 52 57  2  0  0  0
 53 55  1  0  0  0
 53 56  1  0  0  0
 53 59  1  0  0  0
 54 57  1  0  0  0
 54 58  1  0  0  0
 54 60  1  0  0  0
 55 57  1  0  0  0
 55 61  1  0  0  0
 55 62  1  0  0  0
 56 63  1  0  0  0
 56 64  1  0  0  0
 58 65  1  0  0  0
 58 66  1  0  0  0
 58 67  1  0  0  0
M  END
> <s_m_entry_id>
250

> <s_m_entry_name>
000000250.1

> <s_m_Source_Path>
/Users/zaksoul/Documents/2

> <s_m_Source_File>
000000250.mol2

> <i_m_Source_File_Index>
1

$$$$
No_0_266
                    3D
 Schrodinger Suite 2022-4.
 67 72  0  0  1  0            999 V2000
   -5.2580    3.2320  -21.9040 C   0  0  0  0  0  0
   -5.5300    3.4560  -23.2320 C   0  0  0  0  0  0
   -4.0130    2.9990  -21.5710 C   0  0  0  0  0  0
   -3.1280    3.2170  -23.7320 C   0  0  0  0  0  0
   -2.9590    2.9310  -22.3200 C   0  0  0  0  0  0
   -4.4820    3.4620  -24.2440 C   0  0  0  0  0  0
   -3.7300    3.5730  -26.4410 C   0  0  0  0  0  0
    6.0200    2.9160  -21.2040 C   0  0  0  0  0  0
    5.8750    3.1360  -23.7480 C   0  0  0  0  0  0
   -4.7380    3.6260  -25.5750 C   0  0  0  0  0  0
    2.0780    3.5890  -23.7460 C   0  0  0  0  0  0
    1.2300    4.6660  -23.4120 C   0  0  0  0  0  0
    2.9980    5.8840  -22.6940 C   0  0  0  0  0  0
    3.4740    3.8050  -23.4280 C   0  0  0  0  0  0
    1.5590    2.4800  -24.4430 C   0  0  0  0  0  0
   -0.5880    3.2360  -24.3060 C   0  0  0  0  0  0
   -0.0910    4.4490  -23.6680 C   0  0  0  0  0  0
   -2.0410    3.2170  -24.6590 C   0  0  0  0  0  0
    4.1420    1.3150  -23.2160 C   0  0  0  0  0  0
    5.0860    0.9460  -22.0810 C   0  0  2  0  0  0
    6.6390    2.5430  -22.5690 C   0  0  2  0  0  0
    5.0440    1.9090  -20.8830 C   0  0  0  0  0  0
   -2.3720    3.4130  -26.0810 C   0  0  0  0  0  0
   -1.6040    2.5330  -21.7350 C   0  0  0  0  0  0
   -0.5650    2.1950  -21.2410 C   0  0  0  0  0  0
   -0.9580    5.4610  -23.2900 F   0  0  0  0  0  0
   -3.7950    2.7180  -20.1980 F   0  0  0  0  0  0
    1.6780    5.8190  -22.8430 N   0  0  0  0  0  0
    3.9180    4.9520  -22.9450 N   0  0  0  0  0  0
    0.2550    2.3670  -24.7500 N   0  0  0  0  0  0
    4.4180    2.7860  -23.6380 N   0  0  0  0  0  0
    6.4900    1.0640  -22.5620 N   0  0  1  0  0  0
   -3.9050    3.6280  -27.8290 O   0  0  0  0  0  0
   -6.0601    3.2521  -21.1751 H   0  0  0  0  0  0
   -6.5492    3.6366  -23.5540 H   0  0  0  0  0  0
    5.5245    3.8950  -21.2817 H   0  0  0  0  0  0
    6.8068    2.9210  -20.4353 H   0  0  0  0  0  0
    6.2800    2.7310  -24.6872 H   0  0  0  0  0  0
    5.9910    4.2299  -23.7460 H   0  0  0  0  0  0
   -5.7532    3.7967  -25.9144 H   0  0  0  0  0  0
    2.2186    1.6769  -24.7512 H   0  0  0  0  0  0
    3.1014    1.2211  -22.8718 H   0  0  0  0  0  0
    4.3206    0.6482  -24.0724 H   0  0  0  0  0  0
    4.8871   -0.0827  -21.7459 H   0  0  0  0  0  0
    7.7008    2.8276  -22.6074 H   0  0  0  0  0  0
    4.0484    2.3730  -20.8235 H   0  0  0  0  0  0
    5.3578    1.3733  -19.9750 H   0  0  0  0  0  0
   -1.6027    3.4371  -26.8443 H   0  0  0  0  0  0
    0.3502    1.8979  -20.8059 H   0  0  0  0  0  0
    7.1503    0.5600  -21.8718 H   0  0  0  0  0  0
   -3.0586    3.5746  -28.2571 H   0  0  0  0  0  0
    6.1580    8.6070  -22.9420 O   0  0  0  0  0  0
    4.5490    7.0140  -21.1000 N   0  0  1  0  0  0
    7.6460    8.5370  -21.2230 N   0  0  0  0  0  0
    5.3330    8.2390  -20.7170 C   0  0  0  0  0  0
    3.5240    7.2220  -22.1840 C   0  0  0  0  0  0
    6.4110    8.4820  -21.7520 C   0  0  0  0  0  0
    8.8000    8.7380  -22.1080 C   0  0  0  0  0  0
    5.2239    6.2501  -21.4569 H   0  0  0  0  0  0
    7.7711    8.4419  -20.2354 H   0  0  0  0  0  0
    5.7990    8.0830  -19.7329 H   0  0  0  0  0  0
    4.6599    9.1081  -20.6780 H   0  0  0  0  0  0
    3.9801    7.7782  -23.0162 H   0  0  0  0  0  0
    2.6879    7.8171  -21.7880 H   0  0  0  0  0  0
    9.7226    8.7570  -21.5093 H   0  0  0  0  0  0
    8.8530    7.9150  -22.8360 H   0  0  0  0  0  0
    8.6910    9.6929  -22.6430 H   0  0  0  0  0  0
  1  2  2  0  0  0
  1  3  1  0  0  0
  1 34  1  0  0  0
  2  6  1  0  0  0
  2 35  1  0  0  0
  3  5  2  0  0  0
  3 27  1  0  0  0
  4  5  1  0  0  0
  4  6  2  0  0  0
  4 18  1  0  0  0
  5 24  1  0  0  0
  6 10  1  0  0  0
  7 10  2  0  0  0
  7 23  1  0  0  0
  7 33  1  0  0  0
  8 21  1  0  0  0
  8 22  1  0  0  0
  8 36  1  0  0  0
  8 37  1  0  0  0
  9 21  1  0  0  0
  9 31  1  0  0  0
  9 38  1  0  0  0
  9 39  1  0  0  0
 10 40  1  0  0  0
 11 12  1  0  0  0
 11 14  2  0  0  0
 11 15  1  0  0  0
 12 17  1  0  0  0
 12 28  2  0  0  0
 13 28  1  0  0  0
 13 29  2  0  0  0
 13 56  1  0  0  0
 14 29  1  0  0  0
 14 31  1  0  0  0
 15 30  2  0  0  0
 15 41  1  0  0  0
 16 17  2  0  0  0
 16 18  1  0  0  0
 16 30  1  0  0  0
 17 26  1  0  0  0
 18 23  2  0  0  0
 19 20  1  0  0  0
 19 31  1  0  0  0
 19 42  1  0  0  0
 19 43  1  0  0  0
 20 22  1  0  0  0
 20 32  1  0  0  0
 20 44  1  0  0  0
 21 32  1  0  0  0
 21 45  1  0  0  0
 22 46  1  0  0  0
 22 47  1  0  0  0
 23 48  1  0  0  0
 24 25  3  0  0  0
 25 49  1  0  0  0
 32 50  1  0  0  0
 33 51  1  0  0  0
 52 57  2  0  0  0
 53 55  1  0  0  0
 53 56  1  0  0  0
 53 59  1  0  0  0
 54 57  1  0  0  0
 54 58  1  0  0  0
 54 60  1  0  0  0
 55 57  1  0  0  0
 55 61  1  0  0  0
 55 62  1  0  0  0
 56 63  1  0  0  0
 56 64  1  0  0  0
 58 65  1  0  0  0
 58 66  1  0  0  0
 58 67  1  0  0  0
M  END
> <s_m_entry_id>
251

> <s_m_entry_name>
000000251.1

> <s_m_Source_Path>
/Users/zaksoul/Documents/2

> <s_m_Source_File>
000000251.mol2

> <i_m_Source_File_Index>
1

$$$$
No_0_267
                    3D
 Schrodinger Suite 2022-4.
 67 72  0  0  1  0            999 V2000
   -5.3050    3.5770  -21.9210 C   0  0  0  0  0  0
   -5.5380    3.7670  -23.2630 C   0  0  0  0  0  0
   -4.0710    3.3490  -21.5470 C   0  0  0  0  0  0
   -3.1230    3.5070  -23.6860 C   0  0  0  0  0  0
   -2.9960    3.2580  -22.2630 C   0  0  0  0  0  0
   -4.4610    3.7430  -24.2430 C   0  0  0  0  0  0
   -3.6450    3.7940  -26.4190 C   0  0  0  0  0  0
    5.9470    3.2430  -20.8870 C   0  0  0  0  0  0
    5.8770    3.3960  -23.4380 C   0  0  0  0  0  0
   -4.6770    3.8730  -25.5850 C   0  0  0  0  0  0
    2.0830    3.8620  -23.5590 C   0  0  0  0  0  0
    1.2290    4.9500  -23.2780 C   0  0  0  0  0  0
    2.9810    6.1810  -22.5410 C   0  0  0  0  0  0
    3.4690    4.0810  -23.2060 C   0  0  0  0  0  0
    1.5800    2.7370  -24.2410 C   0  0  0  0  0  0
   -0.5670    3.5030  -24.1860 C   0  0  0  0  0  0
   -0.0840    4.7310  -23.5660 C   0  0  0  0  0  0
   -2.0090    3.4790  -24.5810 C   0  0  0  0  0  0
    4.1210    1.5960  -22.9100 C   0  0  0  0  0  0
    5.0300    1.2540  -21.7390 C   0  0  2  0  0  0
    6.6030    2.8320  -22.2230 C   0  0  2  0  0  0
    4.9570    2.2480  -20.5680 C   0  0  0  0  0  0
   -2.2980    3.6390  -26.0170 C   0  0  0  0  0  0
   -1.6610    2.8710  -21.6290 C   0  0  0  0  0  0
   -0.6370    2.5430  -21.0960 C   0  0  0  0  0  0
   -0.9580    5.7550  -23.2400 F   0  0  0  0  0  0
   -3.8940    3.1030  -20.1610 F   0  0  0  0  0  0
    1.6660    6.1160  -22.7270 N   0  0  0  0  0  0
    3.9040    5.2390  -22.7410 N   0  0  0  0  0  0
    0.2850    2.6200  -24.5830 N   0  0  0  0  0  0
    4.4150    3.0550  -23.3620 N   0  0  0  0  0  0
    6.4480    1.3540  -22.1820 N   0  0  1  0  0  0
   -3.7790    3.8130  -27.8130 O   0  0  0  0  0  0
   -6.1284    3.6182  -21.2171 H   0  0  0  0  0  0
   -6.5471    3.9417  -23.6184 H   0  0  0  0  0  0
    5.4575    4.2210  -21.0051 H   0  0  0  0  0  0
    6.7109    3.2662  -20.0959 H   0  0  0  0  0  0
    6.3062    2.9658  -24.3549 H   0  0  0  0  0  0
    5.9960    4.4893  -23.4622 H   0  0  0  0  0  0
   -5.6813    4.0375  -25.9582 H   0  0  0  0  0  0
    2.2442    1.9233  -24.5089 H   0  0  0  0  0  0
    3.0705    1.5143  -22.5941 H   0  0  0  0  0  0
    4.3218    0.9057  -23.7426 H   0  0  0  0  0  0
    4.8181    0.2350  -21.3829 H   0  0  0  0  0  0
    7.6665    3.1125  -22.2381 H   0  0  0  0  0  0
    3.9620    2.7167  -20.5498 H   0  0  0  0  0  0
    5.2426    1.7354  -19.6376 H   0  0  0  0  0  0
   -1.5068    3.6410  -26.7580 H   0  0  0  0  0  0
    0.2639    2.2540  -20.6270 H   0  0  0  0  0  0
    7.0860    0.8667  -21.4596 H   0  0  0  0  0  0
   -2.9212    3.7457  -28.2157 H   0  0  0  0  0  0
    5.8120    9.1800  -23.2130 O   0  0  0  0  0  0
    4.7330    7.3540  -21.2080 N   0  0  1  0  0  0
    7.6170    9.1480  -21.8310 N   0  0  0  0  0  0
    5.4840    8.6200  -20.9020 C   0  0  0  0  0  0
    3.4980    7.5290  -22.0510 C   0  0  0  0  0  0
    6.3090    9.0130  -22.1090 C   0  0  0  0  0  0
    8.5510    9.4970  -22.9100 C   0  0  0  0  0  0
    5.3769    6.6731  -21.7449 H   0  0  0  0  0  0
    7.9470    9.0100  -20.8971 H   0  0  0  0  0  0
    6.1497    8.4531  -20.0424 H   0  0  0  0  0  0
    4.7691    9.4229  -20.6690 H   0  0  0  0  0  0
    3.7320    8.1681  -22.9152 H   0  0  0  0  0  0
    2.7173    8.0268  -21.4572 H   0  0  0  0  0  0
    9.5714    9.5650  -22.5048 H   0  0  0  0  0  0
    8.5170    8.7226  -23.6904 H   0  0  0  0  0  0
    8.2642   10.4663  -23.3437 H   0  0  0  0  0  0
  1  2  2  0  0  0
  1  3  1  0  0  0
  1 34  1  0  0  0
  2  6  1  0  0  0
  2 35  1  0  0  0
  3  5  2  0  0  0
  3 27  1  0  0  0
  4  5  1  0  0  0
  4  6  2  0  0  0
  4 18  1  0  0  0
  5 24  1  0  0  0
  6 10  1  0  0  0
  7 10  2  0  0  0
  7 23  1  0  0  0
  7 33  1  0  0  0
  8 21  1  0  0  0
  8 22  1  0  0  0
  8 36  1  0  0  0
  8 37  1  0  0  0
  9 21  1  0  0  0
  9 31  1  0  0  0
  9 38  1  0  0  0
  9 39  1  0  0  0
 10 40  1  0  0  0
 11 12  1  0  0  0
 11 14  2  0  0  0
 11 15  1  0  0  0
 12 17  1  0  0  0
 12 28  2  0  0  0
 13 28  1  0  0  0
 13 29  2  0  0  0
 13 56  1  0  0  0
 14 29  1  0  0  0
 14 31  1  0  0  0
 15 30  2  0  0  0
 15 41  1  0  0  0
 16 17  2  0  0  0
 16 18  1  0  0  0
 16 30  1  0  0  0
 17 26  1  0  0  0
 18 23  2  0  0  0
 19 20  1  0  0  0
 19 31  1  0  0  0
 19 42  1  0  0  0
 19 43  1  0  0  0
 20 22  1  0  0  0
 20 32  1  0  0  0
 20 44  1  0  0  0
 21 32  1  0  0  0
 21 45  1  0  0  0
 22 46  1  0  0  0
 22 47  1  0  0  0
 23 48  1  0  0  0
 24 25  3  0  0  0
 25 49  1  0  0  0
 32 50  1  0  0  0
 33 51  1  0  0  0
 52 57  2  0  0  0
 53 55  1  0  0  0
 53 56  1  0  0  0
 53 59  1  0  0  0
 54 57  1  0  0  0
 54 58  1  0  0  0
 54 60  1  0  0  0
 55 57  1  0  0  0
 55 61  1  0  0  0
 55 62  1  0  0  0
 56 63  1  0  0  0
 56 64  1  0  0  0
 58 65  1  0  0  0
 58 66  1  0  0  0
 58 67  1  0  0  0
M  END
> <s_m_entry_id>
252

> <s_m_entry_name>
000000252.1

> <s_m_Source_Path>
/Users/zaksoul/Documents/2

> <s_m_Source_File>
000000252.mol2

> <i_m_Source_File_Index>
1

$$$$
No_0_268
                    3D
 Schrodinger Suite 2022-4.
 70 75  0  0  1  0            999 V2000
   -5.2540    3.4540  -21.9830 C   0  0  0  0  0  0
   -5.5220    3.6410  -23.3180 C   0  0  0  0  0  0
   -4.0120    3.2170  -21.6420 C   0  0  0  0  0  0
   -3.1220    3.3600  -23.8070 C   0  0  0  0  0  0
   -2.9580    3.1150  -22.3870 C   0  0  0  0  0  0
   -4.4730    3.6040  -24.3280 C   0  0  0  0  0  0
   -3.7180    3.6400  -26.5260 C   0  0  0  0  0  0
    6.0190    3.0320  -21.2600 C   0  0  0  0  0  0
    5.8790    3.1770  -23.8090 C   0  0  0  0  0  0
   -4.7260    3.7310  -25.6630 C   0  0  0  0  0  0
    2.0870    3.6720  -23.8260 C   0  0  0  0  0  0
    1.2510    4.7690  -23.5250 C   0  0  0  0  0  0
    3.0320    5.9880  -22.8430 C   0  0  0  0  0  0
    3.4850    3.8820  -23.5120 C   0  0  0  0  0  0
    1.5570    2.5490  -24.4890 C   0  0  0  0  0  0
   -0.5820    3.3330  -24.3780 C   0  0  0  0  0  0
   -0.0720    4.5590  -23.7770 C   0  0  0  0  0  0
   -2.0350    3.3190  -24.7330 C   0  0  0  0  0  0
    4.1250    1.3920  -23.2250 C   0  0  0  0  0  0
    5.0630    1.0480  -22.0780 C   0  0  2  0  0  0
    6.6350    2.6110  -22.6120 C   0  0  2  0  0  0
    5.0310    2.0470  -20.9100 C   0  0  0  0  0  0
   -2.3620    3.4760  -26.1600 C   0  0  0  0  0  0
   -1.6090    2.7190  -21.7890 C   0  0  0  0  0  0
   -0.5730    2.3850  -21.2830 C   0  0  0  0  0  0
   -0.9280    5.5920  -23.4310 F   0  0  0  0  0  0
   -3.7990    2.9750  -20.2600 F   0  0  0  0  0  0
    1.7120    5.9340  -22.9920 N   0  0  0  0  0  0
    3.9420    5.0390  -23.0650 N   0  0  0  0  0  0
    0.2520    2.4420  -24.7950 N   0  0  0  0  0  0
    4.4180    2.8470  -23.6910 N   0  0  0  0  0  0
    6.4690    1.1350  -22.5600 N   0  0  1  0  0  0
   -3.8910    3.6550  -27.9160 O   0  0  0  0  0  0
   -6.0569    3.5042  -21.2564 H   0  0  0  0  0  0
   -6.5390    3.8227  -23.6463 H   0  0  0  0  0  0
    5.5347    4.0137  -21.3680 H   0  0  0  0  0  0
    6.8047    3.0522  -20.4904 H   0  0  0  0  0  0
    6.2797    2.7400  -24.7355 H   0  0  0  0  0  0
    6.0072    4.2691  -23.8403 H   0  0  0  0  0  0
   -5.7388    3.9026  -26.0093 H   0  0  0  0  0  0
    2.2071    1.7294  -24.7729 H   0  0  0  0  0  0
    3.0833    1.3213  -22.8788 H   0  0  0  0  0  0
    4.2967    0.6982  -24.0612 H   0  0  0  0  0  0
    4.8532    0.0322  -21.7118 H   0  0  0  0  0  0
    7.6997    2.8835  -22.6584 H   0  0  0  0  0  0
    4.0406    2.5235  -20.8656 H   0  0  0  0  0  0
    5.3387    1.5356  -19.9860 H   0  0  0  0  0  0
   -1.5920    3.4690  -26.9230 H   0  0  0  0  0  0
    0.3383    2.0909  -20.8378 H   0  0  0  0  0  0
    7.1235    0.6452  -21.8542 H   0  0  0  0  0  0
   -3.0450    3.5798  -28.3415 H   0  0  0  0  0  0
    5.4050    9.8620  -22.2730 O   0  0  0  0  0  0
    4.2400    7.2080  -21.0270 N   0  0  1  0  0  0
    7.0660    8.8600  -21.0780 N   0  0  0  0  0  0
    5.7750    9.1380  -21.3600 C   0  0  0  0  0  0
    7.5100    7.9650  -19.9930 C   0  0  0  0  0  0
    8.1340    9.4820  -21.8720 C   0  0  0  0  0  0
    3.5730    7.3340  -22.3720 C   0  0  0  0  0  0
    4.7470    8.4990  -20.4470 C   0  0  0  0  0  0
    3.5373    6.8022  -20.3143 H   0  0  0  0  0  0
    8.6089    7.9160  -19.9840 H   0  0  0  0  0  0
    7.1532    8.3528  -19.0275 H   0  0  0  0  0  0
    7.0998    6.9576  -20.1571 H   0  0  0  0  0  0
    9.1124    9.1419  -21.5018 H   0  0  0  0  0  0
    8.0209    9.1948  -22.9278 H   0  0  0  0  0  0
    8.0680   10.5762  -21.7811 H   0  0  0  0  0  0
    4.2989    7.7140  -23.1059 H   0  0  0  0  0  0
    2.7473    8.0577  -22.3050 H   0  0  0  0  0  0
    5.2002    8.3059  -19.4635 H   0  0  0  0  0  0
    3.9045    9.1916  -20.3041 H   0  0  0  0  0  0
  1  2  2  0  0  0
  1  3  1  0  0  0
  1 34  1  0  0  0
  2  6  1  0  0  0
  2 35  1  0  0  0
  3  5  2  0  0  0
  3 27  1  0  0  0
  4  5  1  0  0  0
  4  6  2  0  0  0
  4 18  1  0  0  0
  5 24  1  0  0  0
  6 10  1  0  0  0
  7 10  2  0  0  0
  7 23  1  0  0  0
  7 33  1  0  0  0
  8 21  1  0  0  0
  8 22  1  0  0  0
  8 36  1  0  0  0
  8 37  1  0  0  0
  9 21  1  0  0  0
  9 31  1  0  0  0
  9 38  1  0  0  0
  9 39  1  0  0  0
 10 40  1  0  0  0
 11 12  1  0  0  0
 11 14  2  0  0  0
 11 15  1  0  0  0
 12 17  1  0  0  0
 12 28  2  0  0  0
 13 28  1  0  0  0
 13 29  2  0  0  0
 13 58  1  0  0  0
 14 29  1  0  0  0
 14 31  1  0  0  0
 15 30  2  0  0  0
 15 41  1  0  0  0
 16 17  2  0  0  0
 16 18  1  0  0  0
 16 30  1  0  0  0
 17 26  1  0  0  0
 18 23  2  0  0  0
 19 20  1  0  0  0
 19 31  1  0  0  0
 19 42  1  0  0  0
 19 43  1  0  0  0
 20 22  1  0  0  0
 20 32  1  0  0  0
 20 44  1  0  0  0
 21 32  1  0  0  0
 21 45  1  0  0  0
 22 46  1  0  0  0
 22 47  1  0  0  0
 23 48  1  0  0  0
 24 25  3  0  0  0
 25 49  1  0  0  0
 32 50  1  0  0  0
 33 51  1  0  0  0
 52 55  2  0  0  0
 53 58  1  0  0  0
 53 59  1  0  0  0
 53 60  1  0  0  0
 54 55  1  0  0  0
 54 56  1  0  0  0
 54 57  1  0  0  0
 55 59  1  0  0  0
 56 61  1  0  0  0
 56 62  1  0  0  0
 56 63  1  0  0  0
 57 64  1  0  0  0
 57 65  1  0  0  0
 57 66  1  0  0  0
 58 67  1  0  0  0
 58 68  1  0  0  0
 59 69  1  0  0  0
 59 70  1  0  0  0
M  END
> <s_m_entry_id>
253

> <s_m_entry_name>
000000253.1

> <s_m_Source_Path>
/Users/zaksoul/Documents/2

> <s_m_Source_File>
000000253.mol2

> <i_m_Source_File_Index>
1

$$$$
No_0_269
                    3D
 Schrodinger Suite 2022-4.
 70 75  0  0  1  0            999 V2000
   -5.3100    3.4160  -22.1880 C   0  0  0  0  0  0
   -5.5190    3.5940  -23.5350 C   0  0  0  0  0  0
   -4.0860    3.1770  -21.7920 C   0  0  0  0  0  0
   -3.1010    3.3000  -23.9170 C   0  0  0  0  0  0
   -3.0010    3.0660  -22.4890 C   0  0  0  0  0  0
   -4.4270    3.5460  -24.4980 C   0  0  0  0  0  0
   -3.5770    3.5620  -26.6620 C   0  0  0  0  0  0
    5.9190    2.9570  -20.9700 C   0  0  0  0  0  0
    5.8910    3.0830  -23.5240 C   0  0  0  0  0  0
   -4.6210    3.6630  -25.8440 C   0  0  0  0  0  0
    2.1050    3.5930  -23.7110 C   0  0  0  0  0  0
    1.2610    4.6950  -23.4550 C   0  0  0  0  0  0
    3.0160    5.9130  -22.7040 C   0  0  0  0  0  0
    3.4890    3.8000  -23.3380 C   0  0  0  0  0  0
    1.5990    2.4670  -24.3880 C   0  0  0  0  0  0
   -0.5390    3.2590  -24.3760 C   0  0  0  0  0  0
   -0.0510    4.4880  -23.7620 C   0  0  0  0  0  0
   -1.9750    3.2480  -24.7940 C   0  0  0  0  0  0
    4.1050    1.3100  -23.0040 C   0  0  0  0  0  0
    4.9910    0.9700  -21.8150 C   0  0  2  0  0  0
    6.5910    2.5240  -22.2910 C   0  0  2  0  0  0
    4.9120    1.9780  -20.6560 C   0  0  0  0  0  0
   -2.2390    3.3960  -26.2360 C   0  0  0  0  0  0
   -1.6800    2.6690  -21.8300 C   0  0  0  0  0  0
   -0.6690    2.3350  -21.2770 C   0  0  0  0  0  0
   -0.9170    5.5270  -23.4620 F   0  0  0  0  0  0
   -3.9340    2.9450  -20.4000 F   0  0  0  0  0  0
    1.7030    5.8620  -22.9100 N   0  0  0  0  0  0
    3.9300    4.9580  -22.8790 N   0  0  0  0  0  0
    0.3090    2.3620  -24.7500 N   0  0  0  0  0  0
    4.4240    2.7600  -23.4680 N   0  0  0  0  0  0
    6.4170    1.0490  -22.2360 N   0  0  1  0  0  0
   -3.6890    3.5670  -28.0580 O   0  0  0  0  0  0
   -6.1442    3.4752  -21.4983 H   0  0  0  0  0  0
   -6.5199    3.7765  -23.9091 H   0  0  0  0  0  0
    5.4438    3.9397  -21.1062 H   0  0  0  0  0  0
    6.6705    2.9802  -20.1670 H   0  0  0  0  0  0
    6.3303    2.6377  -24.4288 H   0  0  0  0  0  0
    6.0241    4.1744  -23.5573 H   0  0  0  0  0  0
   -5.6170    3.8357  -26.2356 H   0  0  0  0  0  0
    2.2577    1.6428  -24.6367 H   0  0  0  0  0  0
    3.0487    1.2454  -22.7041 H   0  0  0  0  0  0
    4.3108    0.6089  -23.8262 H   0  0  0  0  0  0
    4.7609   -0.0421  -21.4507 H   0  0  0  0  0  0
    7.6580    2.7915  -22.2930 H   0  0  0  0  0  0
    3.9229    2.4594  -20.6590 H   0  0  0  0  0  0
    5.1764    1.4724  -19.7155 H   0  0  0  0  0  0
   -1.4364    3.3799  -26.9644 H   0  0  0  0  0  0
    0.2212    2.0409  -20.7909 H   0  0  0  0  0  0
    7.0378    0.5618  -21.4987 H   0  0  0  0  0  0
   -2.8252    3.4849  -28.4449 H   0  0  0  0  0  0
    5.1780    9.9190  -22.2290 O   0  0  0  0  0  0
    4.4570    7.0890  -21.0370 N   0  0  1  0  0  0
    7.1020    8.9750  -21.4530 N   0  0  0  0  0  0
    5.7640    9.1620  -21.4680 C   0  0  0  0  0  0
    7.8040    8.0410  -20.5530 C   0  0  0  0  0  0
    7.9540    9.7440  -22.3690 C   0  0  0  0  0  0
    3.5410    7.2600  -22.2200 C   0  0  0  0  0  0
    4.9740    8.3710  -20.4450 C   0  0  0  0  0  0
    3.9329    6.5719  -20.2469 H   0  0  0  0  0  0
    8.8853    8.0850  -20.7501 H   0  0  0  0  0  0
    7.6099    8.3231  -19.5076 H   0  0  0  0  0  0
    7.4409    7.0178  -20.7300 H   0  0  0  0  0  0
    9.0063    9.4619  -22.2170 H   0  0  0  0  0  0
    7.6640    9.5290  -23.4081 H   0  0  0  0  0  0
    7.8300   10.8187  -22.1700 H   0  0  0  0  0  0
    4.0869    7.7549  -23.0368 H   0  0  0  0  0  0
    2.6941    7.9029  -21.9380 H   0  0  0  0  0  0
    5.6169    8.1430  -19.5821 H   0  0  0  0  0  0
    4.1281    8.9769  -20.0881 H   0  0  0  0  0  0
  1  2  2  0  0  0
  1  3  1  0  0  0
  1 34  1  0  0  0
  2  6  1  0  0  0
  2 35  1  0  0  0
  3  5  2  0  0  0
  3 27  1  0  0  0
  4  5  1  0  0  0
  4  6  2  0  0  0
  4 18  1  0  0  0
  5 24  1  0  0  0
  6 10  1  0  0  0
  7 10  2  0  0  0
  7 23  1  0  0  0
  7 33  1  0  0  0
  8 21  1  0  0  0
  8 22  1  0  0  0
  8 36  1  0  0  0
  8 37  1  0  0  0
  9 21  1  0  0  0
  9 31  1  0  0  0
  9 38  1  0  0  0
  9 39  1  0  0  0
 10 40  1  0  0  0
 11 12  1  0  0  0
 11 14  2  0  0  0
 11 15  1  0  0  0
 12 17  1  0  0  0
 12 28  2  0  0  0
 13 28  1  0  0  0
 13 29  2  0  0  0
 13 58  1  0  0  0
 14 29  1  0  0  0
 14 31  1  0  0  0
 15 30  2  0  0  0
 15 41  1  0  0  0
 16 17  2  0  0  0
 16 18  1  0  0  0
 16 30  1  0  0  0
 17 26  1  0  0  0
 18 23  2  0  0  0
 19 20  1  0  0  0
 19 31  1  0  0  0
 19 42  1  0  0  0
 19 43  1  0  0  0
 20 22  1  0  0  0
 20 32  1  0  0  0
 20 44  1  0  0  0
 21 32  1  0  0  0
 21 45  1  0  0  0
 22 46  1  0  0  0
 22 47  1  0  0  0
 23 48  1  0  0  0
 24 25  3  0  0  0
 25 49  1  0  0  0
 32 50  1  0  0  0
 33 51  1  0  0  0
 52 55  2  0  0  0
 53 58  1  0  0  0
 53 59  1  0  0  0
 53 60  1  0  0  0
 54 55  1  0  0  0
 54 56  1  0  0  0
 54 57  1  0  0  0
 55 59  1  0  0  0
 56 61  1  0  0  0
 56 62  1  0  0  0
 56 63  1  0  0  0
 57 64  1  0  0  0
 57 65  1  0  0  0
 57 66  1  0  0  0
 58 67  1  0  0  0
 58 68  1  0  0  0
 59 69  1  0  0  0
 59 70  1  0  0  0
M  END
> <s_m_entry_id>
254

> <s_m_entry_name>
000000254.1

> <s_m_Source_Path>
/Users/zaksoul/Documents/2

> <s_m_Source_File>
000000254.mol2

> <i_m_Source_File_Index>
1

$$$$
No_0_270
                    3D
 Schrodinger Suite 2022-4.
 70 75  0  0  1  0            999 V2000
   -5.4010    3.3230  -22.1020 C   0  0  0  0  0  0
   -5.6650    3.5300  -23.4350 C   0  0  0  0  0  0
   -4.1600    3.0870  -21.7600 C   0  0  0  0  0  0
   -3.2610    3.2680  -23.9190 C   0  0  0  0  0  0
   -3.1020    3.0020  -22.5020 C   0  0  0  0  0  0
   -4.6110    3.5150  -24.4410 C   0  0  0  0  0  0
   -3.8470    3.5900  -26.6350 C   0  0  0  0  0  0
    5.8710    2.9470  -21.3370 C   0  0  0  0  0  0
    5.7410    3.1320  -23.8840 C   0  0  0  0  0  0
   -4.8590    3.6610  -25.7750 C   0  0  0  0  0  0
    1.9470    3.6080  -23.9100 C   0  0  0  0  0  0
    1.1030    4.6950  -23.5950 C   0  0  0  0  0  0
    2.8750    5.9130  -22.8860 C   0  0  0  0  0  0
    3.3420    3.8200  -23.5870 C   0  0  0  0  0  0
    1.4250    2.4930  -24.5930 C   0  0  0  0  0  0
   -0.7180    3.2630  -24.4790 C   0  0  0  0  0  0
   -0.2180    4.4830  -23.8560 C   0  0  0  0  0  0
   -2.1700    3.2480  -24.8400 C   0  0  0  0  0  0
    3.9940    1.3290  -23.3360 C   0  0  0  0  0  0
    4.9290    0.9710  -22.1920 C   0  0  2  0  0  0
    6.4940    2.5510  -22.6930 C   0  0  2  0  0  0
    4.8870    1.9510  -21.0070 C   0  0  0  0  0  0
   -2.4920    3.4270  -26.2660 C   0  0  0  0  0  0
   -1.7530    2.6040  -21.9040 C   0  0  0  0  0  0
   -0.7180    2.2670  -21.4000 C   0  0  0  0  0  0
   -1.0810    5.5050  -23.4970 F   0  0  0  0  0  0
   -3.9510    2.8240  -20.3810 F   0  0  0  0  0  0
    1.5560    5.8540  -23.0410 N   0  0  0  0  0  0
    3.7910    4.9710  -23.1190 N   0  0  0  0  0  0
    0.1220    2.3840  -24.9060 N   0  0  0  0  0  0
    4.2800    2.7930  -23.7780 N   0  0  0  0  0  0
    6.3360    1.0730  -22.6660 N   0  0  1  0  0  0
   -4.0140    3.6260  -28.0250 O   0  0  0  0  0  0
   -6.2072    3.3571  -21.3781 H   0  0  0  0  0  0
   -6.6814    3.7116  -23.7651 H   0  0  0  0  0  0
    5.3817    3.9276  -21.4318 H   0  0  0  0  0  0
    6.6533    2.9591  -20.5638 H   0  0  0  0  0  0
    6.1477    2.7112  -24.8154 H   0  0  0  0  0  0
    5.8631    4.2251  -23.8971 H   0  0  0  0  0  0
   -5.8712    3.8325  -26.1231 H   0  0  0  0  0  0
    2.0803    1.6811  -24.8870 H   0  0  0  0  0  0
    2.9507    1.2473  -22.9970 H   0  0  0  0  0  0
    4.1726    0.6498  -24.1827 H   0  0  0  0  0  0
    4.7221   -0.0514  -21.8428 H   0  0  0  0  0  0
    7.5575    2.8295  -22.7303 H   0  0  0  0  0  0
    3.8942    2.4222  -20.9596 H   0  0  0  0  0  0
    5.1927    1.4263  -20.0898 H   0  0  0  0  0  0
   -1.7185    3.4350  -27.0254 H   0  0  0  0  0  0
    0.1929    1.9700  -20.9560 H   0  0  0  0  0  0
    6.9905    0.5757  -21.9655 H   0  0  0  0  0  0
   -3.1661    3.5607  -28.4485 H   0  0  0  0  0  0
    4.7190   10.0860  -22.5050 O   0  0  0  0  0  0
    4.6620    7.0700  -21.5790 N   0  0  1  0  0  0
    6.8630    9.3150  -22.4940 N   0  0  0  0  0  0
    5.5790    9.3300  -22.0760 C   0  0  0  0  0  0
    7.8930    8.3850  -21.9960 C   0  0  0  0  0  0
    7.3110   10.2860  -23.5020 C   0  0  0  0  0  0
    3.4070    7.2540  -22.3920 C   0  0  0  0  0  0
    5.2260    8.3340  -20.9900 C   0  0  0  0  0  0
    4.4620    6.4049  -20.7519 H   0  0  0  0  0  0
    8.8481    8.5890  -22.5021 H   0  0  0  0  0  0
    8.0169    8.5209  -20.9115 H   0  0  0  0  0  0
    7.5830    7.3499  -22.2020 H   0  0  0  0  0  0
    8.3776   10.1259  -23.7181 H   0  0  0  0  0  0
    6.7267   10.1529  -24.4244 H   0  0  0  0  0  0
    7.1640   11.3067  -23.1191 H   0  0  0  0  0  0
    3.6201    7.9042  -23.2533 H   0  0  0  0  0  0
    2.6408    7.7472  -21.7758 H   0  0  0  0  0  0
    6.1268    8.0961  -20.4052 H   0  0  0  0  0  0
    4.4872    8.7819  -20.3092 H   0  0  0  0  0  0
  1  2  2  0  0  0
  1  3  1  0  0  0
  1 34  1  0  0  0
  2  6  1  0  0  0
  2 35  1  0  0  0
  3  5  2  0  0  0
  3 27  1  0  0  0
  4  5  1  0  0  0
  4  6  2  0  0  0
  4 18  1  0  0  0
  5 24  1  0  0  0
  6 10  1  0  0  0
  7 10  2  0  0  0
  7 23  1  0  0  0
  7 33  1  0  0  0
  8 21  1  0  0  0
  8 22  1  0  0  0
  8 36  1  0  0  0
  8 37  1  0  0  0
  9 21  1  0  0  0
  9 31  1  0  0  0
  9 38  1  0  0  0
  9 39  1  0  0  0
 10 40  1  0  0  0
 11 12  1  0  0  0
 11 14  2  0  0  0
 11 15  1  0  0  0
 12 17  1  0  0  0
 12 28  2  0  0  0
 13 28  1  0  0  0
 13 29  2  0  0  0
 13 58  1  0  0  0
 14 29  1  0  0  0
 14 31  1  0  0  0
 15 30  2  0  0  0
 15 41  1  0  0  0
 16 17  2  0  0  0
 16 18  1  0  0  0
 16 30  1  0  0  0
 17 26  1  0  0  0
 18 23  2  0  0  0
 19 20  1  0  0  0
 19 31  1  0  0  0
 19 42  1  0  0  0
 19 43  1  0  0  0
 20 22  1  0  0  0
 20 32  1  0  0  0
 20 44  1  0  0  0
 21 32  1  0  0  0
 21 45  1  0  0  0
 22 46  1  0  0  0
 22 47  1  0  0  0
 23 48  1  0  0  0
 24 25  3  0  0  0
 25 49  1  0  0  0
 32 50  1  0  0  0
 33 51  1  0  0  0
 52 55  2  0  0  0
 53 58  1  0  0  0
 53 59  1  0  0  0
 53 60  1  0  0  0
 54 55  1  0  0  0
 54 56  1  0  0  0
 54 57  1  0  0  0
 55 59  1  0  0  0
 56 61  1  0  0  0
 56 62  1  0  0  0
 56 63  1  0  0  0
 57 64  1  0  0  0
 57 65  1  0  0  0
 57 66  1  0  0  0
 58 67  1  0  0  0
 58 68  1  0  0  0
 59 69  1  0  0  0
 59 70  1  0  0  0
M  END
> <s_m_entry_id>
255

> <s_m_entry_name>
000000255.1

> <s_m_Source_Path>
/Users/zaksoul/Documents/2

> <s_m_Source_File>
000000255.mol2

> <i_m_Source_File_Index>
1

$$$$
No_0_271
                    3D
 Schrodinger Suite 2022-4.
 70 75  0  0  1  0            999 V2000
   -5.3750    3.3670  -22.3110 C   0  0  0  0  0  0
   -5.6060    3.5500  -23.6540 C   0  0  0  0  0  0
   -4.1420    3.1390  -21.9350 C   0  0  0  0  0  0
   -3.1920    3.2830  -24.0740 C   0  0  0  0  0  0
   -3.0670    3.0420  -22.6490 C   0  0  0  0  0  0
   -4.5290    3.5190  -24.6330 C   0  0  0  0  0  0
   -3.7120    3.5560  -26.8090 C   0  0  0  0  0  0
    5.8750    3.0180  -21.2660 C   0  0  0  0  0  0
    5.8070    3.1580  -23.8180 C   0  0  0  0  0  0
   -4.7440    3.6410  -25.9760 C   0  0  0  0  0  0
    2.0140    3.6290  -23.9450 C   0  0  0  0  0  0
    1.1630    4.7210  -23.6700 C   0  0  0  0  0  0
    2.9160    5.9530  -22.9390 C   0  0  0  0  0  0
    3.4010    3.8480  -23.5920 C   0  0  0  0  0  0
    1.5100    2.5010  -24.6210 C   0  0  0  0  0  0
   -0.6360    3.2710  -24.5720 C   0  0  0  0  0  0
   -0.1510    4.5020  -23.9590 C   0  0  0  0  0  0
   -2.0780    3.2480  -24.9680 C   0  0  0  0  0  0
    4.0480    1.3630  -23.2810 C   0  0  0  0  0  0
    4.9550    1.0260  -22.1080 C   0  0  2  0  0  0
    6.5320    2.5990  -22.5990 C   0  0  2  0  0  0
    4.8840    2.0270  -20.9420 C   0  0  0  0  0  0
   -2.3650    3.4010  -26.4050 C   0  0  0  0  0  0
   -1.7320    2.6560  -22.0120 C   0  0  0  0  0  0
   -0.7100    2.3290  -21.4770 C   0  0  0  0  0  0
   -1.0240    5.5300  -23.6390 F   0  0  0  0  0  0
   -3.9670    2.9010  -20.5470 F   0  0  0  0  0  0
    1.6010    5.8890  -23.1250 N   0  0  0  0  0  0
    3.8380    5.0080  -23.1330 N   0  0  0  0  0  0
    0.2150    2.3850  -24.9630 N   0  0  0  0  0  0
    4.3450    2.8190  -23.7420 N   0  0  0  0  0  0
    6.3740    1.1220  -22.5500 N   0  0  1  0  0  0
   -3.8450    3.5670  -28.2030 O   0  0  0  0  0  0
   -6.1986    3.4141  -21.6078 H   0  0  0  0  0  0
   -6.6144    3.7246  -24.0112 H   0  0  0  0  0  0
    5.3878    3.9964  -21.3901 H   0  0  0  0  0  0
    6.6389    3.0442  -20.4749 H   0  0  0  0  0  0
    6.2366    2.7213  -24.7317 H   0  0  0  0  0  0
    5.9291    4.2508  -23.8483 H   0  0  0  0  0  0
   -5.7479    3.8056  -26.3504 H   0  0  0  0  0  0
    2.1734    1.6850  -24.8840 H   0  0  0  0  0  0
    2.9972    1.2853  -22.9651 H   0  0  0  0  0  0
    4.2478    0.6687  -24.1105 H   0  0  0  0  0  0
    4.7410    0.0097  -21.7457 H   0  0  0  0  0  0
    7.5960    2.8776  -22.6152 H   0  0  0  0  0  0
    3.8898    2.4974  -20.9269 H   0  0  0  0  0  0
    5.1676    1.5193  -20.0083 H   0  0  0  0  0  0
   -1.5733    3.3970  -27.1455 H   0  0  0  0  0  0
    0.1900    2.0420  -21.0050 H   0  0  0  0  0  0
    7.0106    0.6373  -21.8246 H   0  0  0  0  0  0
   -2.9869    3.4958  -28.6044 H   0  0  0  0  0  0
    4.4730   10.2440  -22.6040 O   0  0  0  0  0  0
    4.8420    7.1840  -21.9310 N   0  0  1  0  0  0
    6.6260    9.6740  -23.0870 N   0  0  0  0  0  0
    5.4590    9.5440  -22.4190 C   0  0  0  0  0  0
    7.8050    8.8120  -22.8840 C   0  0  0  0  0  0
    6.7780   10.7430  -24.0830 C   0  0  0  0  0  0
    3.4350    7.3030  -22.4560 C   0  0  0  0  0  0
    5.4170    8.4540  -21.3680 C   0  0  0  0  0  0
    4.8690    6.4527  -21.1367 H   0  0  0  0  0  0
    8.6157    9.1353  -23.5536 H   0  0  0  0  0  0
    8.1400    8.8900  -21.8391 H   0  0  0  0  0  0
    7.5390    7.7680  -23.1060 H   0  0  0  0  0  0
    7.7855   10.6950  -24.5218 H   0  0  0  0  0  0
    6.0267   10.6159  -24.8763 H   0  0  0  0  0  0
    6.6370   11.7201  -23.5979 H   0  0  0  0  0  0
    3.4140    8.0221  -23.2881 H   0  0  0  0  0  0
    2.7781    7.6839  -21.6601 H   0  0  0  0  0  0
    6.4351    8.2630  -20.9980 H   0  0  0  0  0  0
    4.8041    8.7889  -20.5182 H   0  0  0  0  0  0
  1  2  2  0  0  0
  1  3  1  0  0  0
  1 34  1  0  0  0
  2  6  1  0  0  0
  2 35  1  0  0  0
  3  5  2  0  0  0
  3 27  1  0  0  0
  4  5  1  0  0  0
  4  6  2  0  0  0
  4 18  1  0  0  0
  5 24  1  0  0  0
  6 10  1  0  0  0
  7 10  2  0  0  0
  7 23  1  0  0  0
  7 33  1  0  0  0
  8 21  1  0  0  0
  8 22  1  0  0  0
  8 36  1  0  0  0
  8 37  1  0  0  0
  9 21  1  0  0  0
  9 31  1  0  0  0
  9 38  1  0  0  0
  9 39  1  0  0  0
 10 40  1  0  0  0
 11 12  1  0  0  0
 11 14  2  0  0  0
 11 15  1  0  0  0
 12 17  1  0  0  0
 12 28  2  0  0  0
 13 28  1  0  0  0
 13 29  2  0  0  0
 13 58  1  0  0  0
 14 29  1  0  0  0
 14 31  1  0  0  0
 15 30  2  0  0  0
 15 41  1  0  0  0
 16 17  2  0  0  0
 16 18  1  0  0  0
 16 30  1  0  0  0
 17 26  1  0  0  0
 18 23  2  0  0  0
 19 20  1  0  0  0
 19 31  1  0  0  0
 19 42  1  0  0  0
 19 43  1  0  0  0
 20 22  1  0  0  0
 20 32  1  0  0  0
 20 44  1  0  0  0
 21 32  1  0  0  0
 21 45  1  0  0  0
 22 46  1  0  0  0
 22 47  1  0  0  0
 23 48  1  0  0  0
 24 25  3  0  0  0
 25 49  1  0  0  0
 32 50  1  0  0  0
 33 51  1  0  0  0
 52 55  2  0  0  0
 53 58  1  0  0  0
 53 59  1  0  0  0
 53 60  1  0  0  0
 54 55  1  0  0  0
 54 56  1  0  0  0
 54 57  1  0  0  0
 55 59  1  0  0  0
 56 61  1  0  0  0
 56 62  1  0  0  0
 56 63  1  0  0  0
 57 64  1  0  0  0
 57 65  1  0  0  0
 57 66  1  0  0  0
 58 67  1  0  0  0
 58 68  1  0  0  0
 59 69  1  0  0  0
 59 70  1  0  0  0
M  END
> <s_m_entry_id>
256

> <s_m_entry_name>
000000256.1

> <s_m_Source_Path>
/Users/zaksoul/Documents/2

> <s_m_Source_File>
000000256.mol2

> <i_m_Source_File_Index>
1

$$$$
No_0_272
                    3D
 Schrodinger Suite 2022-4.
 71 77  0  0  1  0            999 V2000
   -5.0410    3.4630  -21.9680 C   0  0  0  0  0  0
   -5.3180    3.6360  -23.3030 C   0  0  0  0  0  0
   -3.7960    3.2350  -21.6320 C   0  0  0  0  0  0
   -2.9190    3.3600  -23.8030 C   0  0  0  0  0  0
   -2.7460    3.1300  -22.3820 C   0  0  0  0  0  0
   -4.2740    3.5950  -24.3190 C   0  0  0  0  0  0
   -3.5320    3.6130  -26.5210 C   0  0  0  0  0  0
    6.2380    3.0950  -21.3040 C   0  0  0  0  0  0
    6.0830    3.2150  -23.8540 C   0  0  0  0  0  0
   -4.5350    3.7070  -25.6540 C   0  0  0  0  0  0
    2.2890    3.6940  -23.8540 C   0  0  0  0  0  0
    1.4490    4.7900  -23.5590 C   0  0  0  0  0  0
    3.2290    6.0230  -22.8990 C   0  0  0  0  0  0
    3.6870    3.9130  -23.5510 C   0  0  0  0  0  0
    1.7590    2.5620  -24.5040 C   0  0  0  0  0  0
   -0.3820    3.3380  -24.3880 C   0  0  0  0  0  0
    0.1260    4.5720  -23.8010 C   0  0  0  0  0  0
   -1.8370    3.3150  -24.7340 C   0  0  0  0  0  0
    4.3390    1.4290  -23.2430 C   0  0  0  0  0  0
    5.2850    1.0980  -22.0990 C   0  0  2  0  0  0
    6.8470    2.6630  -22.6560 C   0  0  2  0  0  0
    5.2560    2.1080  -20.9390 C   0  0  0  0  0  0
   -2.1730    3.4580  -26.1620 C   0  0  0  0  0  0
   -1.3920    2.7450  -21.7870 C   0  0  0  0  0  0
   -0.3520    2.4200  -21.2850 C   0  0  0  0  0  0
   -0.7330    5.6050  -23.4600 F   0  0  0  0  0  0
   -3.5740    3.0070  -20.2490 F   0  0  0  0  0  0
    1.9080    5.9620  -23.0390 N   0  0  0  0  0  0
    4.1420    5.0750  -23.1160 N   0  0  0  0  0  0
    0.4530    2.4470  -24.8010 N   0  0  0  0  0  0
    4.6230    2.8800  -23.7250 N   0  0  0  0  0  0
    6.6880    1.1870  -22.5900 N   0  0  1  0  0  0
   -3.7120    3.6140  -27.9100 O   0  0  0  0  0  0
   -5.8399    3.5172  -21.2373 H   0  0  0  0  0  0
   -6.3374    3.8108  -23.6274 H   0  0  0  0  0  0
    5.7484    4.0733  -21.4191 H   0  0  0  0  0  0
    7.0285    3.1253  -20.5397 H   0  0  0  0  0  0
    6.4796    2.7699  -24.7784 H   0  0  0  0  0  0
    6.2062    4.3073  -23.8964 H   0  0  0  0  0  0
   -5.5506    3.8716  -25.9952 H   0  0  0  0  0  0
    2.4116    1.7427  -24.7831 H   0  0  0  0  0  0
    3.2995    1.3563  -22.8908 H   0  0  0  0  0  0
    4.5096    0.7274  -24.0728 H   0  0  0  0  0  0
    5.0810    0.0852  -21.7213 H   0  0  0  0  0  0
    7.9103    2.9394  -22.7105 H   0  0  0  0  0  0
    4.2641    2.5813  -20.8936 H   0  0  0  0  0  0
    5.5700    1.6073  -20.0113 H   0  0  0  0  0  0
   -1.4070    3.4460  -26.9290 H   0  0  0  0  0  0
    0.5629    2.1340  -20.8420 H   0  0  0  0  0  0
    7.3487    0.7070  -21.8833 H   0  0  0  0  0  0
   -2.8680    3.5378  -28.3394 H   0  0  0  0  0  0
    3.4390    7.6390  -20.9960 N   0  3  0  0  0  0
    6.8910    8.0770  -21.8520 N   0  0  0  0  0  0
    7.6340    8.4420  -22.9270 N   0  0  0  0  0  0
    3.8920    8.9700  -20.4490 C   0  0  0  0  0  0
    3.7670    7.3760  -22.4440 C   0  0  0  0  0  0
    5.3970    9.0280  -20.1090 C   0  0  0  0  0  0
    6.3110    9.1190  -21.3130 C   0  0  0  0  0  0
    6.6710   10.2540  -22.0460 C   0  0  0  0  0  0
    7.4690    9.7850  -23.0080 C   0  0  0  0  0  0
    2.4452    7.5430  -20.8570 H   0  0  0  0  0  0
    3.8210    6.8990  -20.4280 H   0  0  0  0  0  0
    8.1531    7.7298  -23.4601 H   0  0  0  0  0  0
    3.3051    9.2139  -19.5512 H   0  0  0  0  0  0
    3.6500    9.7630  -21.1720 H   0  0  0  0  0  0
    4.8580    7.4020  -22.5820 H   0  0  0  0  0  0
    3.3330    8.1711  -23.0681 H   0  0  0  0  0  0
    5.6689    8.1463  -19.5102 H   0  0  0  0  0  0
    5.5871    9.8815  -19.4416 H   0  0  0  0  0  0
    6.2930   11.2280  -21.7570 H   0  0  0  0  0  0
    7.9621   10.3451  -23.7942 H   0  0  0  0  0  0
  1  2  2  0  0  0
  1  3  1  0  0  0
  1 34  1  0  0  0
  2  6  1  0  0  0
  2 35  1  0  0  0
  3  5  2  0  0  0
  3 27  1  0  0  0
  4  5  1  0  0  0
  4  6  2  0  0  0
  4 18  1  0  0  0
  5 24  1  0  0  0
  6 10  1  0  0  0
  7 10  2  0  0  0
  7 23  1  0  0  0
  7 33  1  0  0  0
  8 21  1  0  0  0
  8 22  1  0  0  0
  8 36  1  0  0  0
  8 37  1  0  0  0
  9 21  1  0  0  0
  9 31  1  0  0  0
  9 38  1  0  0  0
  9 39  1  0  0  0
 10 40  1  0  0  0
 11 12  1  0  0  0
 11 14  2  0  0  0
 11 15  1  0  0  0
 12 17  1  0  0  0
 12 28  2  0  0  0
 13 28  1  0  0  0
 13 29  2  0  0  0
 13 56  1  0  0  0
 14 29  1  0  0  0
 14 31  1  0  0  0
 15 30  2  0  0  0
 15 41  1  0  0  0
 16 17  2  0  0  0
 16 18  1  0  0  0
 16 30  1  0  0  0
 17 26  1  0  0  0
 18 23  2  0  0  0
 19 20  1  0  0  0
 19 31  1  0  0  0
 19 42  1  0  0  0
 19 43  1  0  0  0
 20 22  1  0  0  0
 20 32  1  0  0  0
 20 44  1  0  0  0
 21 32  1  0  0  0
 21 45  1  0  0  0
 22 46  1  0  0  0
 22 47  1  0  0  0
 23 48  1  0  0  0
 24 25  3  0  0  0
 25 49  1  0  0  0
 32 50  1  0  0  0
 33 51  1  0  0  0
 52 55  1  0  0  0
 52 56  1  0  0  0
 52 61  1  0  0  0
 52 62  1  0  0  0
 53 54  1  0  0  0
 53 58  2  0  0  0
 54 60  1  0  0  0
 54 63  1  0  0  0
 55 57  1  0  0  0
 55 64  1  0  0  0
 55 65  1  0  0  0
 56 66  1  0  0  0
 56 67  1  0  0  0
 57 58  1  0  0  0
 57 68  1  0  0  0
 57 69  1  0  0  0
 58 59  1  0  0  0
 59 60  2  0  0  0
 59 70  1  0  0  0
 60 71  1  0  0  0
M  CHG  1  52   1
M  END
> <s_m_entry_id>
257

> <s_m_entry_name>
000000257.1

> <s_m_Source_Path>
/Users/zaksoul/Documents/2

> <s_m_Source_File>
000000257.mol2

> <i_m_Source_File_Index>
1

$$$$
No_0_273
                    3D
 Schrodinger Suite 2022-4.
 71 77  0  0  1  0            999 V2000
   -5.3470    3.4430  -22.0340 C   0  0  0  0  0  0
   -5.6040    3.6090  -23.3740 C   0  0  0  0  0  0
   -4.1090    3.2110  -21.6790 C   0  0  0  0  0  0
   -3.2010    3.3170  -23.8390 C   0  0  0  0  0  0
   -3.0490    3.0960  -22.4130 C   0  0  0  0  0  0
   -4.5470    3.5550  -24.3750 C   0  0  0  0  0  0
   -3.7730    3.5540  -26.5670 C   0  0  0  0  0  0
    5.9190    3.0250  -21.2100 C   0  0  0  0  0  0
    5.8000    3.1280  -23.7620 C   0  0  0  0  0  0
   -4.7880    3.6590  -25.7140 C   0  0  0  0  0  0
    2.0090    3.6260  -23.8190 C   0  0  0  0  0  0
    1.1710    4.7280  -23.5430 C   0  0  0  0  0  0
    2.9480    5.9570  -22.8660 C   0  0  0  0  0  0
    3.4040    3.8400  -23.4970 C   0  0  0  0  0  0
    1.4830    2.4920  -24.4680 C   0  0  0  0  0  0
   -0.6550    3.2790  -24.3880 C   0  0  0  0  0  0
   -0.1500    4.5150  -23.8020 C   0  0  0  0  0  0
   -2.1050    3.2610  -24.7540 C   0  0  0  0  0  0
    4.0400    1.3540  -23.1640 C   0  0  0  0  0  0
    4.9680    1.0280  -22.0040 C   0  0  2  0  0  0
    6.5460    2.5810  -22.5500 C   0  0  2  0  0  0
    4.9270    2.0460  -20.8520 C   0  0  0  0  0  0
   -2.4200    3.3950  -26.1870 C   0  0  0  0  0  0
   -1.7040    2.7090  -21.7980 C   0  0  0  0  0  0
   -0.6740    2.3820  -21.2780 C   0  0  0  0  0  0
   -1.0080    5.5540  -23.4800 F   0  0  0  0  0  0
   -3.9070    2.9910  -20.2920 F   0  0  0  0  0  0
    1.6290    5.9010  -23.0250 N   0  0  0  0  0  0
    3.8590    5.0030  -23.0650 N   0  0  0  0  0  0
    0.1810    2.3810  -24.7830 N   0  0  0  0  0  0
    4.3380    2.8010  -23.6510 N   0  0  0  0  0  0
    6.3780    1.1060  -22.4760 N   0  0  1  0  0  0
   -3.9340    3.5460  -27.9580 O   0  0  0  0  0  0
   -6.1560    3.5062  -21.3153 H   0  0  0  0  0  0
   -6.6180    3.7855  -23.7140 H   0  0  0  0  0  0
    5.4365    4.0052  -21.3382 H   0  0  0  0  0  0
    6.6980    3.0563  -20.4340 H   0  0  0  0  0  0
    6.2087    2.6749  -24.6773 H   0  0  0  0  0  0
    5.9292    4.2193  -23.8105 H   0  0  0  0  0  0
   -5.7978    3.8256  -26.0713 H   0  0  0  0  0  0
    2.1355    1.6679  -24.7330 H   0  0  0  0  0  0
    2.9952    1.2895  -22.8261 H   0  0  0  0  0  0
    4.2187    0.6462  -23.9869 H   0  0  0  0  0  0
    4.7542    0.0186  -21.6228 H   0  0  0  0  0  0
    7.6114    2.8516  -22.5914 H   0  0  0  0  0  0
    3.9369    2.5244  -20.8237 H   0  0  0  0  0  0
    5.2265    1.5498  -19.9171 H   0  0  0  0  0  0
   -1.6442    3.3739  -26.9438 H   0  0  0  0  0  0
    0.2338    2.0951  -20.8211 H   0  0  0  0  0  0
    7.0258    0.6271  -21.7566 H   0  0  0  0  0  0
   -3.0844    3.4628  -28.3749 H   0  0  0  0  0  0
    3.4670    7.4330  -20.9100 N   0  3  0  0  0  0
    6.6120    8.2160  -22.4380 N   0  0  0  0  0  0
    7.0780    8.7220  -23.6080 N   0  0  0  0  0  0
    3.9440    8.7510  -20.3520 C   0  0  0  0  0  0
    3.4860    7.3100  -22.4130 C   0  0  0  0  0  0
    5.4800    8.9050  -20.3360 C   0  0  0  0  0  0
    6.1010    9.1630  -21.6930 C   0  0  0  0  0  0
    6.2190   10.3760  -22.3780 C   0  0  0  0  0  0
    6.8140   10.0490  -23.5270 C   0  0  0  0  0  0
    2.5355    7.2469  -20.5728 H   0  0  0  0  0  0
    4.0104    6.6854  -20.5077 H   0  0  0  0  0  0
    7.5110    8.0971  -24.3029 H   0  0  0  0  0  0
    3.5541    8.8770  -19.3312 H   0  0  0  0  0  0
    3.5002    9.5745  -20.9307 H   0  0  0  0  0  0
    4.5164    7.4351  -22.7771 H   0  0  0  0  0  0
    2.8770    8.1129  -22.8540 H   0  0  0  0  0  0
    5.9322    8.0055  -19.8928 H   0  0  0  0  0  0
    5.7578    9.7175  -19.6485 H   0  0  0  0  0  0
    5.8531   11.2908  -21.9261 H   0  0  0  0  0  0
    7.0868   10.7066  -24.3445 H   0  0  0  0  0  0
  1  2  2  0  0  0
  1  3  1  0  0  0
  1 34  1  0  0  0
  2  6  1  0  0  0
  2 35  1  0  0  0
  3  5  2  0  0  0
  3 27  1  0  0  0
  4  5  1  0  0  0
  4  6  2  0  0  0
  4 18  1  0  0  0
  5 24  1  0  0  0
  6 10  1  0  0  0
  7 10  2  0  0  0
  7 23  1  0  0  0
  7 33  1  0  0  0
  8 21  1  0  0  0
  8 22  1  0  0  0
  8 36  1  0  0  0
  8 37  1  0  0  0
  9 21  1  0  0  0
  9 31  1  0  0  0
  9 38  1  0  0  0
  9 39  1  0  0  0
 10 40  1  0  0  0
 11 12  1  0  0  0
 11 14  2  0  0  0
 11 15  1  0  0  0
 12 17  1  0  0  0
 12 28  2  0  0  0
 13 28  1  0  0  0
 13 29  2  0  0  0
 13 56  1  0  0  0
 14 29  1  0  0  0
 14 31  1  0  0  0
 15 30  2  0  0  0
 15 41  1  0  0  0
 16 17  2  0  0  0
 16 18  1  0  0  0
 16 30  1  0  0  0
 17 26  1  0  0  0
 18 23  2  0  0  0
 19 20  1  0  0  0
 19 31  1  0  0  0
 19 42  1  0  0  0
 19 43  1  0  0  0
 20 22  1  0  0  0
 20 32  1  0  0  0
 20 44  1  0  0  0
 21 32  1  0  0  0
 21 45  1  0  0  0
 22 46  1  0  0  0
 22 47  1  0  0  0
 23 48  1  0  0  0
 24 25  3  0  0  0
 25 49  1  0  0  0
 32 50  1  0  0  0
 33 51  1  0  0  0
 52 55  1  0  0  0
 52 56  1  0  0  0
 52 61  1  0  0  0
 52 62  1  0  0  0
 53 54  1  0  0  0
 53 58  2  0  0  0
 54 60  1  0  0  0
 54 63  1  0  0  0
 55 57  1  0  0  0
 55 64  1  0  0  0
 55 65  1  0  0  0
 56 66  1  0  0  0
 56 67  1  0  0  0
 57 58  1  0  0  0
 57 68  1  0  0  0
 57 69  1  0  0  0
 58 59  1  0  0  0
 59 60  2  0  0  0
 59 70  1  0  0  0
 60 71  1  0  0  0
M  CHG  1  52   1
M  END
> <s_m_entry_id>
258

> <s_m_entry_name>
000000258.1

> <s_m_Source_Path>
/Users/zaksoul/Documents/2

> <s_m_Source_File>
000000258.mol2

> <i_m_Source_File_Index>
1

$$$$
No_0_274
                    3D
 Schrodinger Suite 2022-4.
 71 77  0  0  1  0            999 V2000
   -5.2680    3.5590  -22.3130 C   0  0  0  0  0  0
   -5.4950    3.7650  -23.6530 C   0  0  0  0  0  0
   -4.0360    3.3300  -21.9350 C   0  0  0  0  0  0
   -3.0770    3.5150  -24.0670 C   0  0  0  0  0  0
   -2.9580    3.2500  -22.6460 C   0  0  0  0  0  0
   -4.4130    3.7550  -24.6290 C   0  0  0  0  0  0
   -3.5860    3.8330  -26.8000 C   0  0  0  0  0  0
    5.9780    3.2380  -21.2240 C   0  0  0  0  0  0
    5.9210    3.4210  -23.7740 C   0  0  0  0  0  0
   -4.6230    3.9000  -25.9690 C   0  0  0  0  0  0
    2.1270    3.8800  -23.9090 C   0  0  0  0  0  0
    1.2700    4.9630  -23.6190 C   0  0  0  0  0  0
    3.0150    6.1890  -22.8590 C   0  0  0  0  0  0
    3.5110    4.0980  -23.5460 C   0  0  0  0  0  0
    1.6300    2.7620  -24.6070 C   0  0  0  0  0  0
   -0.5190    3.5220  -24.5540 C   0  0  0  0  0  0
   -0.0420    4.7440  -23.9170 C   0  0  0  0  0  0
   -1.9590    3.5000  -24.9570 C   0  0  0  0  0  0
    4.1670    1.6110  -23.2760 C   0  0  0  0  0  0
    5.0710    1.2570  -22.1050 C   0  0  2  0  0  0
    6.6430    2.8440  -22.5620 C   0  0  2  0  0  0
    4.9900    2.2370  -20.9220 C   0  0  0  0  0  0
   -2.2410    3.6770  -26.3920 C   0  0  0  0  0  0
   -1.6240    2.8580  -22.0100 C   0  0  0  0  0  0
   -0.6030    2.5260  -21.4760 C   0  0  0  0  0  0
   -0.9200    5.7620  -23.5840 F   0  0  0  0  0  0
   -3.8660    3.0680  -20.5510 F   0  0  0  0  0  0
    1.7000    6.1230  -23.0520 N   0  0  0  0  0  0
    3.9410    5.2520  -23.0650 N   0  0  0  0  0  0
    0.3370    2.6460  -24.9570 N   0  0  0  0  0  0
    4.4600    3.0760  -23.7100 N   0  0  0  0  0  0
    6.4900    1.3660  -22.5390 N   0  0  1  0  0  0
   -3.7130    3.8680  -28.1940 O   0  0  0  0  0  0
   -6.0948    3.5901  -21.6126 H   0  0  0  0  0  0
   -6.5023    3.9417  -24.0125 H   0  0  0  0  0  0
    5.4873    4.2164  -21.3330 H   0  0  0  0  0  0
    6.7379    3.2531  -20.4288 H   0  0  0  0  0  0
    6.3561    3.0030  -24.6938 H   0  0  0  0  0  0
    6.0380    4.5147  -23.7841 H   0  0  0  0  0  0
   -5.6255    4.0666  -26.3463 H   0  0  0  0  0  0
    2.2975    1.9530  -24.8810 H   0  0  0  0  0  0
    3.1152    1.5232  -22.9661 H   0  0  0  0  0  0
    4.3740    0.9316  -24.1160 H   0  0  0  0  0  0
    4.8591    0.2339  -21.7609 H   0  0  0  0  0  0
    7.7058    3.1276  -22.5681 H   0  0  0  0  0  0
    3.9939    2.7033  -20.9028 H   0  0  0  0  0  0
    5.2717    1.7140  -19.9962 H   0  0  0  0  0  0
   -1.4460    3.6890  -27.1288 H   0  0  0  0  0  0
    0.2966    2.2341  -21.0062 H   0  0  0  0  0  0
    7.1259    0.8712  -21.8198 H   0  0  0  0  0  0
   -2.8529    3.8076  -28.5929 H   0  0  0  0  0  0
    3.8130    7.4860  -20.8710 N   0  3  0  0  0  0
    6.4940    8.7600  -22.8790 N   0  0  0  0  0  0
    6.6600    9.4380  -24.0420 N   0  0  0  0  0  0
    4.2900    8.7770  -20.2520 C   0  0  0  0  0  0
    3.5260    7.5330  -22.3500 C   0  0  0  0  0  0
    5.7770    9.0890  -20.5220 C   0  0  0  0  0  0
    6.0760    9.5600  -21.9300 C   0  0  0  0  0  0
    5.9500   10.8470  -22.4610 C   0  0  0  0  0  0
    6.3140   10.7140  -23.7380 C   0  0  0  0  0  0
    2.9918    7.1659  -20.3819 H   0  0  0  0  0  0
    4.4872    6.7598  -20.6860 H   0  0  0  0  0  0
    6.9869    8.9442  -24.8847 H   0  0  0  0  0  0
    4.1151    8.7470  -19.1664 H   0  0  0  0  0  0
    3.6697    9.6084  -20.6182 H   0  0  0  0  0  0
    4.4428    7.8052  -22.8935 H   0  0  0  0  0  0
    2.7747    8.3103  -22.5531 H   0  0  0  0  0  0
    6.3828    8.1983  -20.2991 H   0  0  0  0  0  0
    6.1271    9.8451  -19.8039 H   0  0  0  0  0  0
    5.6140   11.6619  -21.8301 H   0  0  0  0  0  0
    6.3550   11.4830  -24.5009 H   0  0  0  0  0  0
  1  2  2  0  0  0
  1  3  1  0  0  0
  1 34  1  0  0  0
  2  6  1  0  0  0
  2 35  1  0  0  0
  3  5  2  0  0  0
  3 27  1  0  0  0
  4  5  1  0  0  0
  4  6  2  0  0  0
  4 18  1  0  0  0
  5 24  1  0  0  0
  6 10  1  0  0  0
  7 10  2  0  0  0
  7 23  1  0  0  0
  7 33  1  0  0  0
  8 21  1  0  0  0
  8 22  1  0  0  0
  8 36  1  0  0  0
  8 37  1  0  0  0
  9 21  1  0  0  0
  9 31  1  0  0  0
  9 38  1  0  0  0
  9 39  1  0  0  0
 10 40  1  0  0  0
 11 12  1  0  0  0
 11 14  2  0  0  0
 11 15  1  0  0  0
 12 17  1  0  0  0
 12 28  2  0  0  0
 13 28  1  0  0  0
 13 29  2  0  0  0
 13 56  1  0  0  0
 14 29  1  0  0  0
 14 31  1  0  0  0
 15 30  2  0  0  0
 15 41  1  0  0  0
 16 17  2  0  0  0
 16 18  1  0  0  0
 16 30  1  0  0  0
 17 26  1  0  0  0
 18 23  2  0  0  0
 19 20  1  0  0  0
 19 31  1  0  0  0
 19 42  1  0  0  0
 19 43  1  0  0  0
 20 22  1  0  0  0
 20 32  1  0  0  0
 20 44  1  0  0  0
 21 32  1  0  0  0
 21 45  1  0  0  0
 22 46  1  0  0  0
 22 47  1  0  0  0
 23 48  1  0  0  0
 24 25  3  0  0  0
 25 49  1  0  0  0
 32 50  1  0  0  0
 33 51  1  0  0  0
 52 55  1  0  0  0
 52 56  1  0  0  0
 52 61  1  0  0  0
 52 62  1  0  0  0
 53 54  1  0  0  0
 53 58  2  0  0  0
 54 60  1  0  0  0
 54 63  1  0  0  0
 55 57  1  0  0  0
 55 64  1  0  0  0
 55 65  1  0  0  0
 56 66  1  0  0  0
 56 67  1  0  0  0
 57 58  1  0  0  0
 57 68  1  0  0  0
 57 69  1  0  0  0
 58 59  1  0  0  0
 59 60  2  0  0  0
 59 70  1  0  0  0
 60 71  1  0  0  0
M  CHG  1  52   1
M  END
> <s_m_entry_id>
259

> <s_m_entry_name>
000000259.1

> <s_m_Source_Path>
/Users/zaksoul/Documents/2

> <s_m_Source_File>
000000259.mol2

> <i_m_Source_File_Index>
1

$$$$
No_0_275
                    3D
 Schrodinger Suite 2022-4.
 73 79  0  0  1  0            999 V2000
   -5.1610    3.5510  -22.0400 C   0  0  0  0  0  0
   -5.4180    3.7070  -23.3820 C   0  0  0  0  0  0
   -3.9210    3.3290  -21.6830 C   0  0  0  0  0  0
   -3.0130    3.4280  -23.8430 C   0  0  0  0  0  0
   -2.8600    3.2160  -22.4170 C   0  0  0  0  0  0
   -4.3600    3.6540  -24.3820 C   0  0  0  0  0  0
   -3.5850    3.6450  -26.5730 C   0  0  0  0  0  0
    6.1070    3.2070  -21.2070 C   0  0  0  0  0  0
    5.9890    3.2940  -23.7600 C   0  0  0  0  0  0
   -4.6010    3.7490  -25.7210 C   0  0  0  0  0  0
    2.1950    3.7680  -23.8230 C   0  0  0  0  0  0
    1.3500    4.8670  -23.5540 C   0  0  0  0  0  0
    3.1190    6.1110  -22.8830 C   0  0  0  0  0  0
    3.5890    3.9920  -23.5010 C   0  0  0  0  0  0
    1.6760    2.6270  -24.4650 C   0  0  0  0  0  0
   -0.4670    3.4020  -24.3900 C   0  0  0  0  0  0
    0.0310    4.6440  -23.8120 C   0  0  0  0  0  0
   -1.9170    3.3720  -24.7580 C   0  0  0  0  0  0
    4.2390    1.5130  -23.1520 C   0  0  0  0  0  0
    5.1690    1.1990  -21.9900 C   0  0  2  0  0  0
    6.7370    2.7590  -22.5440 C   0  0  2  0  0  0
    5.1210    2.2240  -20.8440 C   0  0  0  0  0  0
   -2.2320    3.4960  -26.1920 C   0  0  0  0  0  0
   -1.5140    2.8410  -21.7980 C   0  0  0  0  0  0
   -0.4820    2.5240  -21.2760 C   0  0  0  0  0  0
   -0.8340    5.6800  -23.4970 F   0  0  0  0  0  0
   -3.7190    3.1200  -20.2950 F   0  0  0  0  0  0
    1.8000    6.0450  -23.0420 N   0  0  0  0  0  0
    4.0360    5.1610  -23.0750 N   0  0  0  0  0  0
    0.3750    2.5060  -24.7800 N   0  0  0  0  0  0
    4.5280    2.9590  -23.6480 N   0  0  0  0  0  0
    6.5780    1.2830  -22.4610 N   0  0  1  0  0  0
   -3.7450    3.6270  -27.9640 O   0  0  0  0  0  0
   -5.9710    3.6142  -21.3224 H   0  0  0  0  0  0
   -6.4331    3.8755  -23.7230 H   0  0  0  0  0  0
    5.6184    4.1832  -21.3423 H   0  0  0  0  0  0
    6.8863    3.2484  -20.4318 H   0  0  0  0  0  0
    6.4004    2.8382  -24.6727 H   0  0  0  0  0  0
    6.1122    4.3857  -23.8145 H   0  0  0  0  0  0
   -5.6115    3.9066  -26.0803 H   0  0  0  0  0  0
    2.3334    1.8049  -24.7240 H   0  0  0  0  0  0
    3.1946    1.4434  -22.8139 H   0  0  0  0  0  0
    4.4227    0.8015  -23.9705 H   0  0  0  0  0  0
    4.9601    0.1909  -21.6025 H   0  0  0  0  0  0
    7.8008    3.0355  -22.5874 H   0  0  0  0  0  0
    4.1279    2.6963  -20.8198 H   0  0  0  0  0  0
    5.4227    1.7357  -19.9056 H   0  0  0  0  0  0
   -1.4547    3.4749  -26.9472 H   0  0  0  0  0  0
    0.4268    2.2451  -20.8161 H   0  0  0  0  0  0
    7.2292    0.8125  -21.7392 H   0  0  0  0  0  0
   -2.8950    3.5468  -28.3806 H   0  0  0  0  0  0
    4.3030    7.3750  -21.0860 N   0  3  0  0  0  0
    9.0120    9.2560  -20.6100 N   0  0  0  0  0  0
    7.3320    7.9440  -21.0700 N   0  0  0  0  0  0
    7.8900   10.0190  -20.6200 N   0  0  0  0  0  0
    4.4590    8.6800  -20.3500 C   0  0  0  0  0  0
    3.6490    7.4700  -22.4380 C   0  0  0  0  0  0
    5.4620    9.6480  -21.0100 C   0  0  0  0  0  0
    6.9070    9.2110  -20.8970 C   0  0  0  0  0  0
    8.6390    7.9850  -20.8870 C   0  0  0  0  0  0
   10.3530    9.7690  -20.3190 C   0  0  0  0  0  0
    3.7861    6.7281  -20.5111 H   0  0  0  0  0  0
    5.2056    6.9367  -21.1821 H   0  0  0  0  0  0
    4.7721    8.4799  -19.3147 H   0  0  0  0  0  0
    3.4788    9.1721  -20.2660 H   0  0  0  0  0  0
    4.3798    7.8369  -23.1738 H   0  0  0  0  0  0
    2.8183    8.1897  -22.3940 H   0  0  0  0  0  0
    5.3470   10.6482  -20.5669 H   0  0  0  0  0  0
    5.2010    9.7750  -22.0710 H   0  0  0  0  0  0
    9.3831    7.1978  -20.9280 H   0  0  0  0  0  0
   11.0814    8.9467  -20.3769 H   0  0  0  0  0  0
   10.6171   10.5443  -21.0533 H   0  0  0  0  0  0
   10.3690   10.2008  -19.3074 H   0  0  0  0  0  0
  1  2  2  0  0  0
  1  3  1  0  0  0
  1 34  1  0  0  0
  2  6  1  0  0  0
  2 35  1  0  0  0
  3  5  2  0  0  0
  3 27  1  0  0  0
  4  5  1  0  0  0
  4  6  2  0  0  0
  4 18  1  0  0  0
  5 24  1  0  0  0
  6 10  1  0  0  0
  7 10  2  0  0  0
  7 23  1  0  0  0
  7 33  1  0  0  0
  8 21  1  0  0  0
  8 22  1  0  0  0
  8 36  1  0  0  0
  8 37  1  0  0  0
  9 21  1  0  0  0
  9 31  1  0  0  0
  9 38  1  0  0  0
  9 39  1  0  0  0
 10 40  1  0  0  0
 11 12  1  0  0  0
 11 14  2  0  0  0
 11 15  1  0  0  0
 12 17  1  0  0  0
 12 28  2  0  0  0
 13 28  1  0  0  0
 13 29  2  0  0  0
 13 57  1  0  0  0
 14 29  1  0  0  0
 14 31  1  0  0  0
 15 30  2  0  0  0
 15 41  1  0  0  0
 16 17  2  0  0  0
 16 18  1  0  0  0
 16 30  1  0  0  0
 17 26  1  0  0  0
 18 23  2  0  0  0
 19 20  1  0  0  0
 19 31  1  0  0  0
 19 42  1  0  0  0
 19 43  1  0  0  0
 20 22  1  0  0  0
 20 32  1  0  0  0
 20 44  1  0  0  0
 21 32  1  0  0  0
 21 45  1  0  0  0
 22 46  1  0  0  0
 22 47  1  0  0  0
 23 48  1  0  0  0
 24 25  3  0  0  0
 25 49  1  0  0  0
 32 50  1  0  0  0
 33 51  1  0  0  0
 52 56  1  0  0  0
 52 57  1  0  0  0
 52 62  1  0  0  0
 52 63  1  0  0  0
 53 55  1  0  0  0
 53 60  1  0  0  0
 53 61  1  0  0  0
 54 59  1  0  0  0
 54 60  2  0  0  0
 55 59  2  0  0  0
 56 58  1  0  0  0
 56 64  1  0  0  0
 56 65  1  0  0  0
 57 66  1  0  0  0
 57 67  1  0  0  0
 58 59  1  0  0  0
 58 68  1  0  0  0
 58 69  1  0  0  0
 60 70  1  0  0  0
 61 71  1  0  0  0
 61 72  1  0  0  0
 61 73  1  0  0  0
M  CHG  1  52   1
M  END
> <s_m_entry_id>
260

> <s_m_entry_name>
000000260.1

> <s_m_Source_Path>
/Users/zaksoul/Documents/2

> <s_m_Source_File>
000000260.mol2

> <i_m_Source_File_Index>
1

$$$$
No_0_276
                    3D
 Schrodinger Suite 2022-4.
 73 79  0  0  1  0            999 V2000
   -5.3210    3.2450  -22.0620 C   0  0  0  0  0  0
   -5.5650    3.4290  -23.4020 C   0  0  0  0  0  0
   -4.0820    3.0320  -21.6950 C   0  0  0  0  0  0
   -3.1510    3.1950  -23.8420 C   0  0  0  0  0  0
   -3.0120    2.9520  -22.4190 C   0  0  0  0  0  0
   -4.4950    3.4140  -24.3900 C   0  0  0  0  0  0
   -3.6950    3.4680  -26.5720 C   0  0  0  0  0  0
    5.9410    3.0420  -21.1050 C   0  0  0  0  0  0
    5.8510    3.1870  -23.6570 C   0  0  0  0  0  0
   -4.7220    3.5370  -25.7300 C   0  0  0  0  0  0
    2.0510    3.6090  -23.7520 C   0  0  0  0  0  0
    1.1880    4.6880  -23.4680 C   0  0  0  0  0  0
    2.9300    5.9410  -22.7470 C   0  0  0  0  0  0
    3.4370    3.8450  -23.4090 C   0  0  0  0  0  0
    1.5560    2.4760  -24.4270 C   0  0  0  0  0  0
   -0.5990    3.2180  -24.3590 C   0  0  0  0  0  0
   -0.1260    4.4530  -23.7470 C   0  0  0  0  0  0
   -2.0430    3.1770  -24.7440 C   0  0  0  0  0  0
    4.1200    1.3680  -23.1100 C   0  0  0  0  0  0
    5.0410    1.0400  -21.9450 C   0  0  2  0  0  0
    6.5920    2.6340  -22.4450 C   0  0  2  0  0  0
    4.9650    2.0370  -20.7760 C   0  0  0  0  0  0
   -2.3440    3.3290  -26.1780 C   0  0  0  0  0  0
   -1.6670    2.5810  -21.7930 C   0  0  0  0  0  0
   -0.6360    2.2670  -21.2660 C   0  0  0  0  0  0
   -1.0090    5.4690  -23.4170 F   0  0  0  0  0  0
   -3.8930    2.7930  -20.3100 F   0  0  0  0  0  0
    1.6140    5.8610  -22.9230 N   0  0  0  0  0  0
    3.8630    5.0100  -22.9510 N   0  0  0  0  0  0
    0.2600    2.3440  -24.7600 N   0  0  0  0  0  0
    4.3940    2.8290  -23.5690 N   0  0  0  0  0  0
    6.4540    1.1550  -22.3980 N   0  0  1  0  0  0
   -3.8390    3.4810  -27.9650 O   0  0  0  0  0  0
   -6.1389    3.2791  -21.3515 H   0  0  0  0  0  0
   -6.5784    3.5905  -23.7512 H   0  0  0  0  0  0
    5.4394    4.0139  -21.2221 H   0  0  0  0  0  0
    6.7103    3.0763  -20.3195 H   0  0  0  0  0  0
    6.2793    2.7587  -24.5752 H   0  0  0  0  0  0
    5.9579    4.2815  -23.6842 H   0  0  0  0  0  0
   -5.7304    3.6895  -26.0972 H   0  0  0  0  0  0
    2.2284    1.6701  -24.6980 H   0  0  0  0  0  0
    3.0725    1.2762  -22.7871 H   0  0  0  0  0  0
    4.3229    0.6786  -23.9428 H   0  0  0  0  0  0
    4.8423    0.0202  -21.5839 H   0  0  0  0  0  0
    7.6519    2.9275  -22.4682 H   0  0  0  0  0  0
    3.9648    2.4942  -20.7528 H   0  0  0  0  0  0
    5.2628    1.5302  -19.8462 H   0  0  0  0  0  0
   -1.5582    3.3380  -26.9247 H   0  0  0  0  0  0
    0.2716    1.9898  -20.8027 H   0  0  0  0  0  0
    7.1032    0.6770  -21.6793 H   0  0  0  0  0  0
   -2.9829    3.4226  -28.3727 H   0  0  0  0  0  0
    4.3230    7.1420  -21.0590 N   0  3  0  0  0  0
    8.9010    9.3710  -21.2050 N   0  0  0  0  0  0
    7.2610    7.9650  -21.5020 N   0  0  0  0  0  0
    7.7450   10.0330  -20.9460 N   0  0  0  0  0  0
    4.5170    8.3860  -20.2340 C   0  0  0  0  0  0
    3.4350    7.2970  -22.2640 C   0  0  0  0  0  0
    5.3170    9.4900  -20.9530 C   0  0  0  0  0  0
    6.7870    9.1710  -21.1320 C   0  0  0  0  0  0
    8.5730    8.1010  -21.5410 C   0  0  0  0  0  0
   10.2330    9.9700  -21.0950 C   0  0  0  0  0  0
    3.9628    6.4055  -20.4726 H   0  0  0  0  0  0
    5.2224    6.7929  -21.3511 H   0  0  0  0  0  0
    5.0218    8.1241  -19.2924 H   0  0  0  0  0  0
    3.5355    8.7828  -19.9352 H   0  0  0  0  0  0
    3.9959    7.7879  -23.0729 H   0  0  0  0  0  0
    2.5775    7.9367  -22.0081 H   0  0  0  0  0  0
    5.2140   10.4352  -20.3999 H   0  0  0  0  0  0
    4.8641    9.6870  -21.9359 H   0  0  0  0  0  0
    9.3515    7.3876  -21.7861 H   0  0  0  0  0  0
   10.9946    9.2214  -21.3589 H   0  0  0  0  0  0
   10.3090   10.8263  -21.7813 H   0  0  0  0  0  0
   10.3981   10.3121  -20.0627 H   0  0  0  0  0  0
  1  2  2  0  0  0
  1  3  1  0  0  0
  1 34  1  0  0  0
  2  6  1  0  0  0
  2 35  1  0  0  0
  3  5  2  0  0  0
  3 27  1  0  0  0
  4  5  1  0  0  0
  4  6  2  0  0  0
  4 18  1  0  0  0
  5 24  1  0  0  0
  6 10  1  0  0  0
  7 10  2  0  0  0
  7 23  1  0  0  0
  7 33  1  0  0  0
  8 21  1  0  0  0
  8 22  1  0  0  0
  8 36  1  0  0  0
  8 37  1  0  0  0
  9 21  1  0  0  0
  9 31  1  0  0  0
  9 38  1  0  0  0
  9 39  1  0  0  0
 10 40  1  0  0  0
 11 12  1  0  0  0
 11 14  2  0  0  0
 11 15  1  0  0  0
 12 17  1  0  0  0
 12 28  2  0  0  0
 13 28  1  0  0  0
 13 29  2  0  0  0
 13 57  1  0  0  0
 14 29  1  0  0  0
 14 31  1  0  0  0
 15 30  2  0  0  0
 15 41  1  0  0  0
 16 17  2  0  0  0
 16 18  1  0  0  0
 16 30  1  0  0  0
 17 26  1  0  0  0
 18 23  2  0  0  0
 19 20  1  0  0  0
 19 31  1  0  0  0
 19 42  1  0  0  0
 19 43  1  0  0  0
 20 22  1  0  0  0
 20 32  1  0  0  0
 20 44  1  0  0  0
 21 32  1  0  0  0
 21 45  1  0  0  0
 22 46  1  0  0  0
 22 47  1  0  0  0
 23 48  1  0  0  0
 24 25  3  0  0  0
 25 49  1  0  0  0
 32 50  1  0  0  0
 33 51  1  0  0  0
 52 56  1  0  0  0
 52 57  1  0  0  0
 52 62  1  0  0  0
 52 63  1  0  0  0
 53 55  1  0  0  0
 53 60  1  0  0  0
 53 61  1  0  0  0
 54 59  1  0  0  0
 54 60  2  0  0  0
 55 59  2  0  0  0
 56 58  1  0  0  0
 56 64  1  0  0  0
 56 65  1  0  0  0
 57 66  1  0  0  0
 57 67  1  0  0  0
 58 59  1  0  0  0
 58 68  1  0  0  0
 58 69  1  0  0  0
 60 70  1  0  0  0
 61 71  1  0  0  0
 61 72  1  0  0  0
 61 73  1  0  0  0
M  CHG  1  52   1
M  END
> <s_m_entry_id>
261

> <s_m_entry_name>
000000261.1

> <s_m_Source_Path>
/Users/zaksoul/Documents/2

> <s_m_Source_File>
000000261.mol2

> <i_m_Source_File_Index>
1

$$$$
No_0_277
                    3D
 Schrodinger Suite 2022-4.
 70 76  0  0  1  0            999 V2000
   -5.2450    3.2040  -22.4040 C   0  0  0  0  0  0
   -5.4680    3.3840  -23.7480 C   0  0  0  0  0  0
   -4.0150    2.9710  -22.0200 C   0  0  0  0  0  0
   -3.0530    3.1030  -24.1550 C   0  0  0  0  0  0
   -2.9370    2.8660  -22.7290 C   0  0  0  0  0  0
   -4.3860    3.3440  -24.7220 C   0  0  0  0  0  0
   -3.5570    3.3700  -26.8940 C   0  0  0  0  0  0
    5.9980    2.8000  -21.3000 C   0  0  0  0  0  0
    5.9440    2.9320  -23.8530 C   0  0  0  0  0  0
   -4.5940    3.4630  -26.0660 C   0  0  0  0  0  0
    2.1540    3.4230  -24.0000 C   0  0  0  0  0  0
    1.3070    4.5200  -23.7330 C   0  0  0  0  0  0
    3.0630    5.7450  -22.9970 C   0  0  0  0  0  0
    3.5400    3.6360  -23.6410 C   0  0  0  0  0  0
    1.6470    2.2950  -24.6760 C   0  0  0  0  0  0
   -0.4950    3.0770  -24.6400 C   0  0  0  0  0  0
   -0.0070    4.3070  -24.0280 C   0  0  0  0  0  0
   -1.9350    3.0600  -25.0430 C   0  0  0  0  0  0
    4.1730    1.1480  -23.3190 C   0  0  0  0  0  0
    5.0720    0.8100  -22.1410 C   0  0  2  0  0  0
    6.6590    2.3730  -22.6290 C   0  0  2  0  0  0
    5.0000    1.8150  -20.9780 C   0  0  0  0  0  0
   -2.2140    3.2090  -26.4820 C   0  0  0  0  0  0
   -1.6070    2.4750  -22.0840 C   0  0  0  0  0  0
   -0.5890    2.1450  -21.5420 C   0  0  0  0  0  0
   -0.8760    5.3400  -23.7160 F   0  0  0  0  0  0
   -3.8480    2.7360  -20.6310 F   0  0  0  0  0  0
    1.7480    5.6870  -23.1900 N   0  0  0  0  0  0
    3.9800    4.7950  -23.1840 N   0  0  0  0  0  0
    0.3530    2.1850  -25.0240 N   0  0  0  0  0  0
    4.4790    2.6010  -23.7830 N   0  0  0  0  0  0
    6.4930    0.8970  -22.5750 N   0  0  1  0  0  0
   -3.6830    3.3780  -28.2890 O   0  0  0  0  0  0
   -6.0717    3.2572  -21.7049 H   0  0  0  0  0  0
   -6.4736    3.5626  -24.1113 H   0  0  0  0  0  0
    5.5167    3.7807  -21.4291 H   0  0  0  0  0  0
    6.7578    2.8252  -20.5049 H   0  0  0  0  0  0
    6.3760    2.4909  -24.7634 H   0  0  0  0  0  0
    6.0712    4.0241  -23.8853 H   0  0  0  0  0  0
   -5.5949    3.6317  -26.4465 H   0  0  0  0  0  0
    2.3076    1.4748  -24.9330 H   0  0  0  0  0  0
    3.1199    1.0774  -23.0093 H   0  0  0  0  0  0
    4.3738    0.4506  -24.1456 H   0  0  0  0  0  0
    4.8510   -0.2041  -21.7767 H   0  0  0  0  0  0
    7.7244    2.6464  -22.6401 H   0  0  0  0  0  0
    4.0084    2.2911  -20.9699 H   0  0  0  0  0  0
    5.2765    1.3084  -20.0416 H   0  0  0  0  0  0
   -1.4190    3.1990  -27.2188 H   0  0  0  0  0  0
    0.3070    1.8540  -21.0650 H   0  0  0  0  0  0
    7.1241    0.4114  -21.8455 H   0  0  0  0  0  0
   -2.8229    3.3008  -28.6849 H   0  0  0  0  0  0
    3.1970    7.3420  -21.0810 N   0  3  0  0  0  0
    5.6020    9.9420  -22.5420 N   0  0  0  0  0  0
    6.8160   10.5420  -20.8850 N   0  0  0  0  0  0
    7.1820   11.2730  -21.9820 N   0  0  0  0  0  0
    3.6270    8.6650  -20.5050 C   0  0  0  0  0  0
    3.5860    7.0940  -22.5160 C   0  0  0  0  0  0
    5.1570    8.7530  -20.3020 C   0  0  0  0  0  0
    5.8560    9.7360  -21.2210 C   0  0  0  0  0  0
    6.4470   10.9110  -22.9870 C   0  0  0  0  0  0
    2.1980    7.2470  -20.9860 H   0  0  0  0  0  0
    3.5549    6.5961  -20.5051 H   0  0  0  0  0  0
    7.9349   11.9719  -21.9070 H   0  0  0  0  0  0
    3.1213    8.8259  -19.5415 H   0  0  0  0  0  0
    3.2989    9.4782  -21.1692 H   0  0  0  0  0  0
    4.6820    7.1150  -22.6070 H   0  0  0  0  0  0
    3.1757    7.8935  -23.1504 H   0  0  0  0  0  0
    5.5997    7.7546  -20.4329 H   0  0  0  0  0  0
    5.3720    9.0161  -19.2558 H   0  0  0  0  0  0
    6.4090   11.2301  -24.0223 H   0  0  0  0  0  0
  1  2  2  0  0  0
  1  3  1  0  0  0
  1 34  1  0  0  0
  2  6  1  0  0  0
  2 35  1  0  0  0
  3  5  2  0  0  0
  3 27  1  0  0  0
  4  5  1  0  0  0
  4  6  2  0  0  0
  4 18  1  0  0  0
  5 24  1  0  0  0
  6 10  1  0  0  0
  7 10  2  0  0  0
  7 23  1  0  0  0
  7 33  1  0  0  0
  8 21  1  0  0  0
  8 22  1  0  0  0
  8 36  1  0  0  0
  8 37  1  0  0  0
  9 21  1  0  0  0
  9 31  1  0  0  0
  9 38  1  0  0  0
  9 39  1  0  0  0
 10 40  1  0  0  0
 11 12  1  0  0  0
 11 14  2  0  0  0
 11 15  1  0  0  0
 12 17  1  0  0  0
 12 28  2  0  0  0
 13 28  1  0  0  0
 13 29  2  0  0  0
 13 57  1  0  0  0
 14 29  1  0  0  0
 14 31  1  0  0  0
 15 30  2  0  0  0
 15 41  1  0  0  0
 16 17  2  0  0  0
 16 18  1  0  0  0
 16 30  1  0  0  0
 17 26  1  0  0  0
 18 23  2  0  0  0
 19 20  1  0  0  0
 19 31  1  0  0  0
 19 42  1  0  0  0
 19 43  1  0  0  0
 20 22  1  0  0  0
 20 32  1  0  0  0
 20 44  1  0  0  0
 21 32  1  0  0  0
 21 45  1  0  0  0
 22 46  1  0  0  0
 22 47  1  0  0  0
 23 48  1  0  0  0
 24 25  3  0  0  0
 25 49  1  0  0  0
 32 50  1  0  0  0
 33 51  1  0  0  0
 52 56  1  0  0  0
 52 57  1  0  0  0
 52 61  1  0  0  0
 52 62  1  0  0  0
 53 59  1  0  0  0
 53 60  2  0  0  0
 54 55  1  0  0  0
 54 59  2  0  0  0
 55 60  1  0  0  0
 55 63  1  0  0  0
 56 58  1  0  0  0
 56 64  1  0  0  0
 56 65  1  0  0  0
 57 66  1  0  0  0
 57 67  1  0  0  0
 58 59  1  0  0  0
 58 68  1  0  0  0
 58 69  1  0  0  0
 60 70  1  0  0  0
M  CHG  1  52   1
M  END
> <s_m_entry_id>
262

> <s_m_entry_name>
000000262.1

> <s_m_Source_Path>
/Users/zaksoul/Documents/2

> <s_m_Source_File>
000000262.mol2

> <i_m_Source_File_Index>
1

$$$$
No_0_278
                    3D
 Schrodinger Suite 2022-4.
 74 80  0  0  1  0            999 V2000
   -5.0450    3.5510  -22.1410 C   0  0  0  0  0  0
   -5.2910    3.7650  -23.4760 C   0  0  0  0  0  0
   -3.8090    3.3130  -21.7830 C   0  0  0  0  0  0
   -2.8820    3.5050  -23.9290 C   0  0  0  0  0  0
   -2.7420    3.2320  -22.5120 C   0  0  0  0  0  0
   -4.2240    3.7550  -24.4680 C   0  0  0  0  0  0
   -3.4310    3.8400  -26.6520 C   0  0  0  0  0  0
    6.2150    3.1680  -21.2280 C   0  0  0  0  0  0
    6.1190    3.3660  -23.7760 C   0  0  0  0  0  0
   -4.4540    3.9080  -25.8050 C   0  0  0  0  0  0
    2.3260    3.8430  -23.8490 C   0  0  0  0  0  0
    1.4790    4.9290  -23.5410 C   0  0  0  0  0  0
    3.2410    6.1420  -22.8010 C   0  0  0  0  0  0
    3.7160    4.0530  -23.5070 C   0  0  0  0  0  0
    1.8130    2.7310  -24.5450 C   0  0  0  0  0  0
   -0.3310    3.5020  -24.4550 C   0  0  0  0  0  0
    0.1610    4.7180  -23.8200 C   0  0  0  0  0  0
   -1.7780    3.4890  -24.8360 C   0  0  0  0  0  0
    4.3640    1.5610  -23.2600 C   0  0  0  0  0  0
    5.2840    1.1960  -22.1050 C   0  0  2  0  0  0
    6.8570    2.7780  -22.5780 C   0  0  2  0  0  0
    5.2260    2.1710  -20.9160 C   0  0  0  0  0  0
   -2.0810    3.6750  -26.2650 C   0  0  0  0  0  0
   -1.4000    2.8300  -21.8980 C   0  0  0  0  0  0
   -0.3720    2.4900  -21.3820 C   0  0  0  0  0  0
   -0.7060    5.7390  -23.4670 F   0  0  0  0  0  0
   -3.6180    3.0430  -20.4030 F   0  0  0  0  0  0
    1.9240    6.0840  -22.9750 N   0  0  0  0  0  0
    4.1600    5.2020  -23.0270 N   0  0  0  0  0  0
    0.5140    2.6240  -24.8760 N   0  0  0  0  0  0
    4.6570    3.0270  -23.6900 N   0  0  0  0  0  0
    6.6980    1.3010  -22.5600 N   0  0  1  0  0  0
   -3.5790    3.8830  -28.0430 O   0  0  0  0  0  0
   -5.8606    3.5831  -21.4277 H   0  0  0  0  0  0
   -6.3031    3.9486  -23.8181 H   0  0  0  0  0  0
    5.7274    4.1493  -21.3239 H   0  0  0  0  0  0
    6.9872    3.1761  -20.4447 H   0  0  0  0  0  0
    6.5388    2.9492  -24.7034 H   0  0  0  0  0  0
    6.2421    4.4591  -23.7821 H   0  0  0  0  0  0
   -5.4615    4.0816  -26.1653 H   0  0  0  0  0  0
    2.4726    1.9208  -24.8341 H   0  0  0  0  0  0
    3.3167    1.4773  -22.9341 H   0  0  0  0  0  0
    4.5547    0.8850  -24.1065 H   0  0  0  0  0  0
    5.0730    0.1721  -21.7627 H   0  0  0  0  0  0
    7.9209    3.0566  -22.5992 H   0  0  0  0  0  0
    4.2324    2.6416  -20.8796 H   0  0  0  0  0  0
    5.5196    1.6413  -19.9978 H   0  0  0  0  0  0
   -1.2977    3.6870  -27.0142 H   0  0  0  0  0  0
    0.5329    2.1910  -20.9271 H   0  0  0  0  0  0
    7.3420    0.7993  -21.8529 H   0  0  0  0  0  0
   -2.7257    3.8206  -28.4558 H   0  0  0  0  0  0
    3.4030    7.6950  -20.8480 N   0  3  0  0  0  0
    6.1180    9.3800  -21.0240 N   0  0  0  0  0  0
    6.6620    8.3560  -21.7240 N   0  0  0  0  0  0
    3.7300    9.0510  -20.2760 C   0  0  0  0  0  0
    3.7670    7.4810  -22.2930 C   0  0  0  0  0  0
    5.2120    9.2130  -19.8820 C   0  0  0  0  0  0
    6.5970   10.5100  -21.6080 C   0  0  0  0  0  0
    7.4210    8.8260  -22.6780 C   0  0  0  0  0  0
    7.4040   10.2220  -22.6340 C   0  0  0  0  0  0
    6.2460   11.9060  -21.1320 C   0  0  0  0  0  0
    2.4203    7.5091  -20.7220 H   0  0  0  0  0  0
    3.8421    6.9828  -20.2858 H   0  0  0  0  0  0
    3.0961    9.2400  -19.3971 H   0  0  0  0  0  0
    3.4592    9.8294  -21.0045 H   0  0  0  0  0  0
    4.8610    7.5110  -22.4040 H   0  0  0  0  0  0
    3.3453    8.2945  -22.9016 H   0  0  0  0  0  0
    5.3170   10.0729  -19.2041 H   0  0  0  0  0  0
    5.5291    8.3427  -19.2888 H   0  0  0  0  0  0
    7.9378    8.1453  -23.3447 H   0  0  0  0  0  0
    7.8647   11.0224  -23.2016 H   0  0  0  0  0  0
    6.7549   12.6488  -21.7639 H   0  0  0  0  0  0
    5.1580   12.0539  -21.1989 H   0  0  0  0  0  0
    6.5690   12.0310  -20.0880 H   0  0  0  0  0  0
  1  2  2  0  0  0
  1  3  1  0  0  0
  1 34  1  0  0  0
  2  6  1  0  0  0
  2 35  1  0  0  0
  3  5  2  0  0  0
  3 27  1  0  0  0
  4  5  1  0  0  0
  4  6  2  0  0  0
  4 18  1  0  0  0
  5 24  1  0  0  0
  6 10  1  0  0  0
  7 10  2  0  0  0
  7 23  1  0  0  0
  7 33  1  0  0  0
  8 21  1  0  0  0
  8 22  1  0  0  0
  8 36  1  0  0  0
  8 37  1  0  0  0
  9 21  1  0  0  0
  9 31  1  0  0  0
  9 38  1  0  0  0
  9 39  1  0  0  0
 10 40  1  0  0  0
 11 12  1  0  0  0
 11 14  2  0  0  0
 11 15  1  0  0  0
 12 17  1  0  0  0
 12 28  2  0  0  0
 13 28  1  0  0  0
 13 29  2  0  0  0
 13 56  1  0  0  0
 14 29  1  0  0  0
 14 31  1  0  0  0
 15 30  2  0  0  0
 15 41  1  0  0  0
 16 17  2  0  0  0
 16 18  1  0  0  0
 16 30  1  0  0  0
 17 26  1  0  0  0
 18 23  2  0  0  0
 19 20  1  0  0  0
 19 31  1  0  0  0
 19 42  1  0  0  0
 19 43  1  0  0  0
 20 22  1  0  0  0
 20 32  1  0  0  0
 20 44  1  0  0  0
 21 32  1  0  0  0
 21 45  1  0  0  0
 22 46  1  0  0  0
 22 47  1  0  0  0
 23 48  1  0  0  0
 24 25  3  0  0  0
 25 49  1  0  0  0
 32 50  1  0  0  0
 33 51  1  0  0  0
 52 55  1  0  0  0
 52 56  1  0  0  0
 52 62  1  0  0  0
 52 63  1  0  0  0
 53 54  1  0  0  0
 53 57  1  0  0  0
 53 58  1  0  0  0
 54 59  2  0  0  0
 55 57  1  0  0  0
 55 64  1  0  0  0
 55 65  1  0  0  0
 56 66  1  0  0  0
 56 67  1  0  0  0
 57 68  1  0  0  0
 57 69  1  0  0  0
 58 60  2  0  0  0
 58 61  1  0  0  0
 59 60  1  0  0  0
 59 70  1  0  0  0
 60 71  1  0  0  0
 61 72  1  0  0  0
 61 73  1  0  0  0
 61 74  1  0  0  0
M  CHG  1  52   1
M  END
> <s_m_entry_id>
263

> <s_m_entry_name>
000000263.1

> <s_m_Source_Path>
/Users/zaksoul/Documents/2

> <s_m_Source_File>
000000263.mol2

> <i_m_Source_File_Index>
1

$$$$
No_0_279
                    3D
 Schrodinger Suite 2022-4.
 74 80  0  0  1  0            999 V2000
   -5.2250    3.3660  -22.0930 C   0  0  0  0  0  0
   -5.4670    3.5560  -23.4330 C   0  0  0  0  0  0
   -3.9880    3.1440  -21.7260 C   0  0  0  0  0  0
   -3.0540    3.3070  -23.8710 C   0  0  0  0  0  0
   -2.9180    3.0590  -22.4490 C   0  0  0  0  0  0
   -4.3960    3.5360  -24.4200 C   0  0  0  0  0  0
   -3.5950    3.5910  -26.6010 C   0  0  0  0  0  0
    6.0340    3.0860  -21.1280 C   0  0  0  0  0  0
    5.9470    3.2390  -23.6790 C   0  0  0  0  0  0
   -4.6220    3.6650  -25.7600 C   0  0  0  0  0  0
    2.1500    3.6860  -23.7770 C   0  0  0  0  0  0
    1.2940    4.7710  -23.4900 C   0  0  0  0  0  0
    3.0440    6.0100  -22.7650 C   0  0  0  0  0  0
    3.5380    3.9130  -23.4320 C   0  0  0  0  0  0
    1.6490    2.5590  -24.4550 C   0  0  0  0  0  0
   -0.5020    3.3140  -24.3870 C   0  0  0  0  0  0
   -0.0210    4.5450  -23.7700 C   0  0  0  0  0  0
   -1.9460    3.2840  -24.7730 C   0  0  0  0  0  0
    4.2040    1.4300  -23.1400 C   0  0  0  0  0  0
    5.1220    1.0930  -21.9750 C   0  0  2  0  0  0
    6.6840    2.6790  -22.4680 C   0  0  2  0  0  0
    5.0510    2.0870  -20.8030 C   0  0  0  0  0  0
   -2.2450    3.4430  -26.2070 C   0  0  0  0  0  0
   -1.5760    2.6780  -21.8230 C   0  0  0  0  0  0
   -0.5480    2.3550  -21.2970 C   0  0  0  0  0  0
   -0.8980    5.5650  -23.4390 F   0  0  0  0  0  0
   -3.8020    2.9000  -20.3410 F   0  0  0  0  0  0
    1.7280    5.9390  -22.9420 N   0  0  0  0  0  0
    3.9700    5.0730  -22.9700 N   0  0  0  0  0  0
    0.3520    2.4360  -24.7900 N   0  0  0  0  0  0
    4.4870    2.8910  -23.5940 N   0  0  0  0  0  0
    6.5360    1.2000  -22.4260 N   0  0  1  0  0  0
   -3.7380    3.6090  -27.9940 O   0  0  0  0  0  0
   -6.0438    3.4041  -21.3836 H   0  0  0  0  0  0
   -6.4792    3.7255  -23.7821 H   0  0  0  0  0  0
    5.5395    4.0618  -21.2430 H   0  0  0  0  0  0
    6.8030    3.1132  -20.3419 H   0  0  0  0  0  0
    6.3729    2.8111  -24.5985 H   0  0  0  0  0  0
    6.0610    4.3328  -23.7032 H   0  0  0  0  0  0
   -5.6294    3.8245  -26.1272 H   0  0  0  0  0  0
    2.3155    1.7489  -24.7280 H   0  0  0  0  0  0
    3.1559    1.3443  -22.8172 H   0  0  0  0  0  0
    4.4028    0.7417  -23.9747 H   0  0  0  0  0  0
    4.9163    0.0734  -21.6170 H   0  0  0  0  0  0
    7.7460    2.9647  -22.4902 H   0  0  0  0  0  0
    4.0536    2.5503  -20.7788 H   0  0  0  0  0  0
    5.3456    1.5755  -19.8748 H   0  0  0  0  0  0
   -1.4582    3.4480  -26.9526 H   0  0  0  0  0  0
    0.3573    2.0712  -20.8333 H   0  0  0  0  0  0
    7.1818    0.7156  -21.7086 H   0  0  0  0  0  0
   -2.8822    3.5457  -28.4016 H   0  0  0  0  0  0
    3.5150    7.4490  -20.7750 N   0  3  0  0  0  0
    5.9680    9.4050  -21.4080 N   0  0  0  0  0  0
    6.4220    8.4850  -22.2920 N   0  0  0  0  0  0
    3.8490    8.7950  -20.1810 C   0  0  0  0  0  0
    3.5570    7.3610  -22.2770 C   0  0  0  0  0  0
    5.3620    9.0800  -20.1120 C   0  0  0  0  0  0
    6.2040   10.6110  -21.9890 C   0  0  0  0  0  0
    6.9020    9.0870  -23.3490 C   0  0  0  0  0  0
    6.7780   10.4690  -23.1870 C   0  0  0  0  0  0
    5.8540   11.9340  -21.3350 C   0  0  0  0  0  0
    2.6060    7.1590  -20.4500 H   0  0  0  0  0  0
    4.1285    6.7514  -20.3837 H   0  0  0  0  0  0
    3.4181    8.8650  -19.1713 H   0  0  0  0  0  0
    3.3548    9.5853  -20.7652 H   0  0  0  0  0  0
    4.5906    7.5069  -22.6239 H   0  0  0  0  0  0
    2.9412    8.1637  -22.7088 H   0  0  0  0  0  0
    5.5470    9.9030  -19.4060 H   0  0  0  0  0  0
    5.8777    8.2115  -19.6763 H   0  0  0  0  0  0
    7.3078    8.5023  -24.1666 H   0  0  0  0  0  0
    7.0280   11.3440  -23.7760 H   0  0  0  0  0  0
    6.1419   12.7609  -22.0009 H   0  0  0  0  0  0
    4.7710   11.9760  -21.1470 H   0  0  0  0  0  0
    6.3947   12.0269  -20.3816 H   0  0  0  0  0  0
  1  2  2  0  0  0
  1  3  1  0  0  0
  1 34  1  0  0  0
  2  6  1  0  0  0
  2 35  1  0  0  0
  3  5  2  0  0  0
  3 27  1  0  0  0
  4  5  1  0  0  0
  4  6  2  0  0  0
  4 18  1  0  0  0
  5 24  1  0  0  0
  6 10  1  0  0  0
  7 10  2  0  0  0
  7 23  1  0  0  0
  7 33  1  0  0  0
  8 21  1  0  0  0
  8 22  1  0  0  0
  8 36  1  0  0  0
  8 37  1  0  0  0
  9 21  1  0  0  0
  9 31  1  0  0  0
  9 38  1  0  0  0
  9 39  1  0  0  0
 10 40  1  0  0  0
 11 12  1  0  0  0
 11 14  2  0  0  0
 11 15  1  0  0  0
 12 17  1  0  0  0
 12 28  2  0  0  0
 13 28  1  0  0  0
 13 29  2  0  0  0
 13 56  1  0  0  0
 14 29  1  0  0  0
 14 31  1  0  0  0
 15 30  2  0  0  0
 15 41  1  0  0  0
 16 17  2  0  0  0
 16 18  1  0  0  0
 16 30  1  0  0  0
 17 26  1  0  0  0
 18 23  2  0  0  0
 19 20  1  0  0  0
 19 31  1  0  0  0
 19 42  1  0  0  0
 19 43  1  0  0  0
 20 22  1  0  0  0
 20 32  1  0  0  0
 20 44  1  0  0  0
 21 32  1  0  0  0
 21 45  1  0  0  0
 22 46  1  0  0  0
 22 47  1  0  0  0
 23 48  1  0  0  0
 24 25  3  0  0  0
 25 49  1  0  0  0
 32 50  1  0  0  0
 33 51  1  0  0  0
 52 55  1  0  0  0
 52 56  1  0  0  0
 52 62  1  0  0  0
 52 63  1  0  0  0
 53 54  1  0  0  0
 53 57  1  0  0  0
 53 58  1  0  0  0
 54 59  2  0  0  0
 55 57  1  0  0  0
 55 64  1  0  0  0
 55 65  1  0  0  0
 56 66  1  0  0  0
 56 67  1  0  0  0
 57 68  1  0  0  0
 57 69  1  0  0  0
 58 60  2  0  0  0
 58 61  1  0  0  0
 59 60  1  0  0  0
 59 70  1  0  0  0
 60 71  1  0  0  0
 61 72  1  0  0  0
 61 73  1  0  0  0
 61 74  1  0  0  0
M  CHG  1  52   1
M  END
> <s_m_entry_id>
264

> <s_m_entry_name>
000000264.1

> <s_m_Source_Path>
/Users/zaksoul/Documents/2

> <s_m_Source_File>
000000264.mol2

> <i_m_Source_File_Index>
1

$$$$
No_0_280
                    3D
 Schrodinger Suite 2022-4.
 74 80  0  0  1  0            999 V2000
   -4.9730    3.3750  -22.0460 C   0  0  0  0  0  0
   -5.2500    3.6030  -23.3730 C   0  0  0  0  0  0
   -3.7240    3.1670  -21.7150 C   0  0  0  0  0  0
   -2.8430    3.4190  -23.8740 C   0  0  0  0  0  0
   -2.6690    3.1270  -22.4640 C   0  0  0  0  0  0
   -4.2020    3.6390  -24.3850 C   0  0  0  0  0  0
   -3.4520    3.7810  -26.5800 C   0  0  0  0  0  0
    6.3090    3.2950  -21.3460 C   0  0  0  0  0  0
    6.1600    3.5300  -23.8880 C   0  0  0  0  0  0
   -4.4610    3.8060  -25.7140 C   0  0  0  0  0  0
    2.3540    3.9020  -23.8840 C   0  0  0  0  0  0
    1.4830    4.9590  -23.5420 C   0  0  0  0  0  0
    3.2240    6.2090  -22.8160 C   0  0  0  0  0  0
    3.7440    4.1450  -23.5640 C   0  0  0  0  0  0
    1.8590    2.7870  -24.5890 C   0  0  0  0  0  0
   -0.3040    3.4960  -24.4470 C   0  0  0  0  0  0
    0.1670    4.7150  -23.8010 C   0  0  0  0  0  0
   -1.7560    3.4480  -24.8010 C   0  0  0  0  0  0
    4.4660    1.6690  -23.3690 C   0  0  0  0  0  0
    5.4170    1.3130  -22.2370 C   0  0  2  0  0  0
    6.9360    2.9450  -22.7130 C   0  0  2  0  0  0
    5.3540    2.2660  -21.0320 C   0  0  0  0  0  0
   -2.0910    3.6480  -26.2220 C   0  0  0  0  0  0
   -1.3060    2.7540  -21.8820 C   0  0  0  0  0  0
   -0.2590    2.4350  -21.3900 C   0  0  0  0  0  0
   -0.7220    5.7060  -23.4160 F   0  0  0  0  0  0
   -3.5000    2.8810  -20.3430 F   0  0  0  0  0  0
    1.9060    6.1170  -22.9660 N   0  0  0  0  0  0
    4.1640    5.2990  -23.0730 N   0  0  0  0  0  0
    0.5580    2.6490  -24.8970 N   0  0  0  0  0  0
    4.7100    3.1490  -23.7810 N   0  0  0  0  0  0
    6.8180    1.4640  -22.7160 N   0  0  1  0  0  0
   -3.6280    3.8420  -27.9680 O   0  0  0  0  0  0
   -5.7757    3.3730  -21.3175 H   0  0  0  0  0  0
   -6.2728    3.7636  -23.6942 H   0  0  0  0  0  0
    5.7924    4.2636  -21.4166 H   0  0  0  0  0  0
    7.0947    3.3121  -20.5764 H   0  0  0  0  0  0
    6.5731    3.1411  -24.8304 H   0  0  0  0  0  0
    6.2518    4.6261  -23.8779 H   0  0  0  0  0  0
   -5.4794    3.9575  -26.0531 H   0  0  0  0  0  0
    2.5360    2.0005  -24.9024 H   0  0  0  0  0  0
    3.4276    1.5509  -23.0259 H   0  0  0  0  0  0
    4.6588    1.0120  -24.2299 H   0  0  0  0  0  0
    5.2405    0.2779  -21.9091 H   0  0  0  0  0  0
    7.9911    3.2540  -22.7493 H   0  0  0  0  0  0
    4.3487    2.7081  -20.9694 H   0  0  0  0  0  0
    5.6800    1.7311  -20.1278 H   0  0  0  0  0  0
   -1.3222    3.6942  -26.9848 H   0  0  0  0  0  0
    0.6622    2.1539  -20.9569 H   0  0  0  0  0  0
    7.4893    0.9691  -22.0298 H   0  0  0  0  0  0
   -2.7808    3.8103  -28.3966 H   0  0  0  0  0  0
    4.0590    7.4790  -20.8300 N   0  3  0  0  0  0
    6.0810    9.7710  -21.7800 N   0  0  0  0  0  0
    6.3730    9.0090  -22.8610 N   0  0  0  0  0  0
    4.4120    8.7850  -20.1640 C   0  0  0  0  0  0
    3.7220    7.5540  -22.2960 C   0  0  0  0  0  0
    5.8610    9.2410  -20.4300 C   0  0  0  0  0  0
    6.0510   11.0510  -22.2380 C   0  0  0  0  0  0
    6.5100    9.7710  -23.9160 C   0  0  0  0  0  0
    6.3080   11.1040  -23.5490 C   0  0  0  0  0  0
    5.7630   12.2460  -21.3510 C   0  0  0  0  0  0
    3.2945    7.0487  -20.3336 H   0  0  0  0  0  0
    4.8127    6.8232  -20.6960 H   0  0  0  0  0  0
    4.2509    8.6970  -19.0794 H   0  0  0  0  0  0
    3.7159    9.5672  -20.5011 H   0  0  0  0  0  0
    4.6146    7.8582  -22.8624 H   0  0  0  0  0  0
    2.9463    8.3177  -22.4539 H   0  0  0  0  0  0
    6.1450   10.0029  -19.6891 H   0  0  0  0  0  0
    6.5471    8.3998  -20.2520 H   0  0  0  0  0  0
    6.7441    9.3279  -24.8772 H   0  0  0  0  0  0
    6.3190   12.0600  -24.0600 H   0  0  0  0  0  0
    5.7950   13.1665  -21.9523 H   0  0  0  0  0  0
    4.7656   12.1380  -20.8998 H   0  0  0  0  0  0
    6.5200   12.3030  -20.5550 H   0  0  0  0  0  0
  1  2  2  0  0  0
  1  3  1  0  0  0
  1 34  1  0  0  0
  2  6  1  0  0  0
  2 35  1  0  0  0
  3  5  2  0  0  0
  3 27  1  0  0  0
  4  5  1  0  0  0
  4  6  2  0  0  0
  4 18  1  0  0  0
  5 24  1  0  0  0
  6 10  1  0  0  0
  7 10  2  0  0  0
  7 23  1  0  0  0
  7 33  1  0  0  0
  8 21  1  0  0  0
  8 22  1  0  0  0
  8 36  1  0  0  0
  8 37  1  0  0  0
  9 21  1  0  0  0
  9 31  1  0  0  0
  9 38  1  0  0  0
  9 39  1  0  0  0
 10 40  1  0  0  0
 11 12  1  0  0  0
 11 14  2  0  0  0
 11 15  1  0  0  0
 12 17  1  0  0  0
 12 28  2  0  0  0
 13 28  1  0  0  0
 13 29  2  0  0  0
 13 56  1  0  0  0
 14 29  1  0  0  0
 14 31  1  0  0  0
 15 30  2  0  0  0
 15 41  1  0  0  0
 16 17  2  0  0  0
 16 18  1  0  0  0
 16 30  1  0  0  0
 17 26  1  0  0  0
 18 23  2  0  0  0
 19 20  1  0  0  0
 19 31  1  0  0  0
 19 42  1  0  0  0
 19 43  1  0  0  0
 20 22  1  0  0  0
 20 32  1  0  0  0
 20 44  1  0  0  0
 21 32  1  0  0  0
 21 45  1  0  0  0
 22 46  1  0  0  0
 22 47  1  0  0  0
 23 48  1  0  0  0
 24 25  3  0  0  0
 25 49  1  0  0  0
 32 50  1  0  0  0
 33 51  1  0  0  0
 52 55  1  0  0  0
 52 56  1  0  0  0
 52 62  1  0  0  0
 52 63  1  0  0  0
 53 54  1  0  0  0
 53 57  1  0  0  0
 53 58  1  0  0  0
 54 59  2  0  0  0
 55 57  1  0  0  0
 55 64  1  0  0  0
 55 65  1  0  0  0
 56 66  1  0  0  0
 56 67  1  0  0  0
 57 68  1  0  0  0
 57 69  1  0  0  0
 58 60  2  0  0  0
 58 61  1  0  0  0
 59 60  1  0  0  0
 59 70  1  0  0  0
 60 71  1  0  0  0
 61 72  1  0  0  0
 61 73  1  0  0  0
 61 74  1  0  0  0
M  CHG  1  52   1
M  END
> <s_m_entry_id>
265

> <s_m_entry_name>
000000265.1

> <s_m_Source_Path>
/Users/zaksoul/Documents/2

> <s_m_Source_File>
000000265.mol2

> <i_m_Source_File_Index>
1

$$$$
No_0_281
                    3D
 Schrodinger Suite 2022-4.
 71 77  0  0  1  0            999 V2000
   -5.4780    3.4260  -22.2260 C   0  0  0  0  0  0
   -5.7030    3.5790  -23.5740 C   0  0  0  0  0  0
   -4.2490    3.1930  -21.8400 C   0  0  0  0  0  0
   -3.2900    3.2710  -23.9780 C   0  0  0  0  0  0
   -3.1730    3.0640  -22.5480 C   0  0  0  0  0  0
   -4.6220    3.5090  -24.5490 C   0  0  0  0  0  0
   -3.7980    3.4810  -26.7220 C   0  0  0  0  0  0
    5.7630    2.9640  -21.1320 C   0  0  0  0  0  0
    5.7050    3.0410  -23.6880 C   0  0  0  0  0  0
   -4.8320    3.6000  -25.8940 C   0  0  0  0  0  0
    1.9190    3.5560  -23.8390 C   0  0  0  0  0  0
    1.0800    4.6640  -23.5950 C   0  0  0  0  0  0
    2.8470    5.8920  -22.8890 C   0  0  0  0  0  0
    3.3070    3.7660  -23.4870 C   0  0  0  0  0  0
    1.4030    2.4170  -24.4890 C   0  0  0  0  0  0
   -0.7330    3.2150  -24.4670 C   0  0  0  0  0  0
   -0.2350    4.4550  -23.8830 C   0  0  0  0  0  0
   -2.1740    3.2000  -24.8670 C   0  0  0  0  0  0
    3.9220    1.2820  -23.1120 C   0  0  0  0  0  0
    4.8220    0.9630  -21.9270 C   0  0  2  0  0  0
    6.4190    2.5030  -22.4520 C   0  0  2  0  0  0
    4.7590    1.9940  -20.7870 C   0  0  0  0  0  0
   -2.4550    3.3200  -26.3080 C   0  0  0  0  0  0
   -1.8460    2.6780  -21.8960 C   0  0  0  0  0  0
   -0.8290    2.3520  -21.3490 C   0  0  0  0  0  0
   -1.0960    5.5010  -23.5920 F   0  0  0  0  0  0
   -4.0810    2.9870  -20.4460 F   0  0  0  0  0  0
    1.5310    5.8400  -23.0790 N   0  0  0  0  0  0
    3.7570    4.9320  -23.0560 N   0  0  0  0  0  0
    0.1080    2.3090  -24.8330 N   0  0  0  0  0  0
    4.2390    2.7220  -23.6080 N   0  0  0  0  0  0
    6.2420    1.0300  -22.3660 N   0  0  1  0  0  0
   -3.9260    3.4590  -28.1160 O   0  0  0  0  0  0
   -6.3033    3.5013  -21.5272 H   0  0  0  0  0  0
   -6.7080    3.7567  -23.9394 H   0  0  0  0  0  0
    5.2886    3.9450  -21.2824 H   0  0  0  0  0  0
    6.5246    3.0013  -20.3392 H   0  0  0  0  0  0
    6.1329    2.5757  -24.5882 H   0  0  0  0  0  0
    5.8413    4.1311  -23.7445 H   0  0  0  0  0  0
   -5.8319    3.7677  -26.2775 H   0  0  0  0  0  0
    2.0575    1.5868  -24.7289 H   0  0  0  0  0  0
    2.8693    1.2255  -22.7981 H   0  0  0  0  0  0
    4.1168    0.5643  -23.9225 H   0  0  0  0  0  0
    4.5939   -0.0413  -21.5404 H   0  0  0  0  0  0
    7.4863    2.7683  -22.4722 H   0  0  0  0  0  0
    3.7707    2.4770  -20.7880 H   0  0  0  0  0  0
    5.0336    1.5064  -19.8400 H   0  0  0  0  0  0
   -1.6613    3.2869  -27.0455 H   0  0  0  0  0  0
    0.0662    2.0650  -20.8679 H   0  0  0  0  0  0
    6.8709    0.5562  -21.6269 H   0  0  0  0  0  0
   -3.0673    3.3670  -28.5117 H   0  0  0  0  0  0
    3.6680    7.2550  -20.9590 N   0  0  1  0  0  0
    6.1860    9.6130  -21.5030 N   0  0  0  0  0  0
    6.6130    8.1190  -19.9890 N   0  0  0  0  0  0
    4.1710    8.5640  -20.4060 C   0  0  0  0  0  0
    3.3800    7.2480  -22.4380 C   0  0  0  0  0  0
    5.6560    8.7650  -20.6390 C   0  0  3  0  0  0
    8.5110   10.3540  -22.2510 C   0  0  0  0  0  0
    7.8000    8.6110  -20.4910 C   0  0  0  0  0  0
    7.5520    9.5290  -21.4210 C   0  0  0  0  0  0
    4.4042    6.4838  -20.7870 H   0  0  0  0  0  0
    5.5751   10.1949  -22.0939 H   0  0  0  0  0  0
    6.3680    7.4161  -19.2771 H   0  0  0  0  0  0
    3.9609    8.6100  -19.3272 H   0  0  0  0  0  0
    3.6138    9.3933  -20.8662 H   0  0  0  0  0  0
    4.3015    7.4809  -22.9917 H   0  0  0  0  0  0
    2.6408    8.0282  -22.6721 H   0  0  0  0  0  0
    9.5457   10.0901  -21.9871 H   0  0  0  0  0  0
    8.3420   10.1510  -23.3188 H   0  0  0  0  0  0
    8.3440   11.4227  -22.0511 H   0  0  0  0  0  0
    8.7450    8.2360  -20.1150 H   0  0  0  0  0  0
  1  2  2  0  0  0
  1  3  1  0  0  0
  1 34  1  0  0  0
  2  6  1  0  0  0
  2 35  1  0  0  0
  3  5  2  0  0  0
  3 27  1  0  0  0
  4  5  1  0  0  0
  4  6  2  0  0  0
  4 18  1  0  0  0
  5 24  1  0  0  0
  6 10  1  0  0  0
  7 10  2  0  0  0
  7 23  1  0  0  0
  7 33  1  0  0  0
  8 21  1  0  0  0
  8 22  1  0  0  0
  8 36  1  0  0  0
  8 37  1  0  0  0
  9 21  1  0  0  0
  9 31  1  0  0  0
  9 38  1  0  0  0
  9 39  1  0  0  0
 10 40  1  0  0  0
 11 12  2  0  0  0
 11 14  1  0  0  0
 11 15  1  0  0  0
 12 17  1  0  0  0
 12 28  1  0  0  0
 13 28  2  0  0  0
 13 29  1  0  0  0
 13 56  1  0  0  0
 14 29  2  0  0  0
 14 31  1  0  0  0
 15 30  2  0  0  0
 15 41  1  0  0  0
 16 17  2  0  0  0
 16 18  1  0  0  0
 16 30  1  0  0  0
 17 26  1  0  0  0
 18 23  2  0  0  0
 19 20  1  0  0  0
 19 31  1  0  0  0
 19 42  1  0  0  0
 19 43  1  0  0  0
 20 22  1  0  0  0
 20 32  1  0  0  0
 20 44  1  0  0  0
 21 32  1  0  0  0
 21 45  1  0  0  0
 22 46  1  0  0  0
 22 47  1  0  0  0
 23 48  1  0  0  0
 24 25  3  0  0  0
 25 49  1  0  0  0
 32 50  1  0  0  0
 33 51  1  0  0  0
 52 55  1  0  0  0
 52 56  1  0  0  0
 52 61  1  0  0  0
 53 57  1  0  0  0
 53 60  1  0  0  0
 53 62  1  0  0  0
 54 57  1  0  0  0
 54 59  1  0  0  0
 54 63  1  0  0  0
 55 57  1  0  0  0
 55 64  1  0  0  0
 55 65  1  0  0  0
 56 66  1  0  0  0
 56 67  1  0  0  0
 58 60  1  0  0  0
 58 68  1  0  0  0
 58 69  1  0  0  0
 58 70  1  0  0  0
 59 60  2  0  0  0
 59 71  1  0  0  0
M  END
> <s_m_entry_id>
266

> <s_m_entry_name>
000000266.1

> <s_m_Source_Path>
/Users/zaksoul/Documents/2

> <s_m_Source_File>
000000266.mol2

> <i_m_Source_File_Index>
1

$$$$
No_0_282
                    3D
 Schrodinger Suite 2022-4.
 75 81  0  0  1  0            999 V2000
   -5.2650    3.1530  -22.3350 C   0  0  0  0  0  0
   -5.4950    3.3140  -23.6800 C   0  0  0  0  0  0
   -4.0330    2.9240  -21.9540 C   0  0  0  0  0  0
   -3.0820    3.0260  -24.0960 C   0  0  0  0  0  0
   -2.9590    2.8090  -22.6670 C   0  0  0  0  0  0
   -4.4180    3.2590  -24.6590 C   0  0  0  0  0  0
   -3.6010    3.2540  -26.8350 C   0  0  0  0  0  0
    5.9830    2.7570  -21.2850 C   0  0  0  0  0  0
    5.9160    2.8530  -23.8390 C   0  0  0  0  0  0
   -4.6330    3.3600  -26.0030 C   0  0  0  0  0  0
    2.1250    3.3440  -23.9730 C   0  0  0  0  0  0
    1.2800    4.4450  -23.7170 C   0  0  0  0  0  0
    3.0410    5.6790  -23.0080 C   0  0  0  0  0  0
    3.5130    3.5610  -23.6240 C   0  0  0  0  0  0
    1.6140    2.2070  -24.6300 C   0  0  0  0  0  0
   -0.5270    2.9910  -24.5940 C   0  0  0  0  0  0
   -0.0350    4.2290  -24.0020 C   0  0  0  0  0  0
   -1.9690    2.9690  -24.9890 C   0  0  0  0  0  0
    4.1460    1.0780  -23.2710 C   0  0  0  0  0  0
    5.0520    0.7560  -22.0920 C   0  0  2  0  0  0
    6.6370    2.3110  -22.6110 C   0  0  2  0  0  0
    4.9860    1.7770  -20.9440 C   0  0  0  0  0  0
   -2.2560    3.0990  -26.4280 C   0  0  0  0  0  0
   -1.6260    2.4260  -22.0240 C   0  0  0  0  0  0
   -0.6050    2.1020  -21.4830 C   0  0  0  0  0  0
   -0.9010    5.2670  -23.7000 F   0  0  0  0  0  0
   -3.8590    2.7090  -20.5630 F   0  0  0  0  0  0
    1.7250    5.6200  -23.1930 N   0  0  0  0  0  0
    3.9570    4.7260  -23.1860 N   0  0  0  0  0  0
    0.3190    2.0930  -24.9700 N   0  0  0  0  0  0
    4.4510    2.5240  -23.7570 N   0  0  0  0  0  0
    6.4710    0.8360  -22.5360 N   0  0  1  0  0  0
   -3.7350    3.2430  -28.2290 O   0  0  0  0  0  0
   -6.0880    3.2162  -21.6324 H   0  0  0  0  0  0
   -6.5024    3.4886  -24.0402 H   0  0  0  0  0  0
    5.5016    3.7360  -21.4253 H   0  0  0  0  0  0
    6.7467    2.7923  -20.4941 H   0  0  0  0  0  0
    6.3429    2.3988  -24.7453 H   0  0  0  0  0  0
    6.0442    3.9444  -23.8875 H   0  0  0  0  0  0
   -5.6356    3.5236  -26.3813 H   0  0  0  0  0  0
    2.2732    1.3832  -24.8788 H   0  0  0  0  0  0
    3.0947    1.0124  -22.9539 H   0  0  0  0  0  0
    4.3428    0.3686  -24.0884 H   0  0  0  0  0  0
    4.8321   -0.2528  -21.7127 H   0  0  0  0  0  0
    7.7025    2.5834  -22.6322 H   0  0  0  0  0  0
    3.9946    2.2535  -20.9369 H   0  0  0  0  0  0
    5.2676    1.2834  -20.0022 H   0  0  0  0  0  0
   -1.4650    3.0779  -27.1689 H   0  0  0  0  0  0
    0.2936    1.8178  -21.0067 H   0  0  0  0  0  0
    7.1050    0.3602  -21.8025 H   0  0  0  0  0  0
   -2.8776    3.1599  -28.6295 H   0  0  0  0  0  0
    3.8620    7.0360  -21.0700 N   0  0  1  0  0  0
    8.1680    8.1680  -20.3840 N   0  0  0  0  0  0
    6.5690    7.0030  -19.1380 N   0  0  0  0  0  0
    4.3690    8.3410  -20.5090 C   0  0  0  0  0  0
    5.8490    8.5980  -20.8180 C   0  0  0  0  0  0
    6.8580    7.9230  -20.1130 C   0  0  0  0  0  0
    3.5670    7.0340  -22.5480 C   0  0  0  0  0  0
    6.2250    9.4980  -21.7820 C   0  0  3  0  0  0
    5.2460   10.3110  -22.6180 C   0  0  0  0  0  0
    8.5290    9.0630  -21.3490 C   0  0  0  0  0  0
    7.5810    9.7240  -22.0450 C   0  0  0  0  0  0
    4.5976    6.2624  -20.9059 H   0  0  0  0  0  0
    8.9033    7.6748  -19.8578 H   0  0  0  0  0  0
    5.5888    6.7900  -18.9040 H   0  0  0  0  0  0
    7.3326    6.5243  -18.6393 H   0  0  0  0  0  0
    4.2160    8.3550  -19.4198 H   0  0  0  0  0  0
    3.7644    9.1694  -20.9067 H   0  0  0  0  0  0
    4.4840    7.2790  -23.1040 H   0  0  0  0  0  0
    2.8230    7.8120  -22.7740 H   0  0  0  0  0  0
    5.8042   10.9532  -23.3152 H   0  0  0  0  0  0
    4.5960    9.6300  -23.1870 H   0  0  0  0  0  0
    4.6299   10.9371  -21.9559 H   0  0  0  0  0  0
    9.5777    9.2430  -21.5559 H   0  0  0  0  0  0
    7.8742   10.4334  -22.8104 H   0  0  0  0  0  0
  1  2  2  0  0  0
  1  3  1  0  0  0
  1 34  1  0  0  0
  2  6  1  0  0  0
  2 35  1  0  0  0
  3  5  2  0  0  0
  3 27  1  0  0  0
  4  5  1  0  0  0
  4  6  2  0  0  0
  4 18  1  0  0  0
  5 24  1  0  0  0
  6 10  1  0  0  0
  7 10  2  0  0  0
  7 23  1  0  0  0
  7 33  1  0  0  0
  8 21  1  0  0  0
  8 22  1  0  0  0
  8 36  1  0  0  0
  8 37  1  0  0  0
  9 21  1  0  0  0
  9 31  1  0  0  0
  9 38  1  0  0  0
  9 39  1  0  0  0
 10 40  1  0  0  0
 11 12  2  0  0  0
 11 14  1  0  0  0
 11 15  1  0  0  0
 12 17  1  0  0  0
 12 28  1  0  0  0
 13 28  2  0  0  0
 13 29  1  0  0  0
 13 58  1  0  0  0
 14 29  2  0  0  0
 14 31  1  0  0  0
 15 30  2  0  0  0
 15 41  1  0  0  0
 16 17  2  0  0  0
 16 18  1  0  0  0
 16 30  1  0  0  0
 17 26  1  0  0  0
 18 23  2  0  0  0
 19 20  1  0  0  0
 19 31  1  0  0  0
 19 42  1  0  0  0
 19 43  1  0  0  0
 20 22  1  0  0  0
 20 32  1  0  0  0
 20 44  1  0  0  0
 21 32  1  0  0  0
 21 45  1  0  0  0
 22 46  1  0  0  0
 22 47  1  0  0  0
 23 48  1  0  0  0
 24 25  3  0  0  0
 25 49  1  0  0  0
 32 50  1  0  0  0
 33 51  1  0  0  0
 52 55  1  0  0  0
 52 58  1  0  0  0
 52 63  1  0  0  0
 53 57  1  0  0  0
 53 61  1  0  0  0
 53 64  1  0  0  0
 54 57  1  0  0  0
 54 65  1  0  0  0
 54 66  1  0  0  0
 55 56  1  0  0  0
 55 67  1  0  0  0
 55 68  1  0  0  0
 56 57  2  0  0  0
 56 59  1  0  0  0
 58 69  1  0  0  0
 58 70  1  0  0  0
 59 60  1  0  0  0
 59 62  1  0  0  0
 60 71  1  0  0  0
 60 72  1  0  0  0
 60 73  1  0  0  0
 61 62  2  0  0  0
 61 74  1  0  0  0
 62 75  1  0  0  0
M  END
> <s_m_entry_id>
267

> <s_m_entry_name>
000000267.1

> <s_m_Source_Path>
/Users/zaksoul/Documents/2

> <s_m_Source_File>
000000267.mol2

> <i_m_Source_File_Index>
1

$$$$
No_0_283
                    3D
 Schrodinger Suite 2022-4.
 75 81  0  0  1  0            999 V2000
   -5.2110    3.6040  -22.0550 C   0  0  0  0  0  0
   -5.4860    3.8260  -23.3840 C   0  0  0  0  0  0
   -3.9710    3.3410  -21.7290 C   0  0  0  0  0  0
   -3.0940    3.5180  -23.8970 C   0  0  0  0  0  0
   -2.9240    3.2390  -22.4840 C   0  0  0  0  0  0
   -4.4450    3.7960  -24.4020 C   0  0  0  0  0  0
   -3.7040    3.8700  -26.6040 C   0  0  0  0  0  0
    6.0580    2.9880  -21.4240 C   0  0  0  0  0  0
    5.9030    3.1930  -23.9690 C   0  0  0  0  0  0
   -4.7050    3.9560  -25.7320 C   0  0  0  0  0  0
    2.1190    3.7490  -23.9470 C   0  0  0  0  0  0
    1.3030    4.8510  -23.6150 C   0  0  0  0  0  0
    3.1080    6.0260  -22.9190 C   0  0  0  0  0  0
    3.5220    3.9290  -23.6390 C   0  0  0  0  0  0
    1.5660    2.6490  -24.6310 C   0  0  0  0  0  0
   -0.5590    3.4640  -24.4870 C   0  0  0  0  0  0
   -0.0250    4.6680  -23.8620 C   0  0  0  0  0  0
   -2.0140    3.4810  -24.8310 C   0  0  0  0  0  0
    4.1240    1.4230  -23.4120 C   0  0  0  0  0  0
    5.0650    1.0380  -22.2810 C   0  0  2  0  0  0
    6.6580    2.5880  -22.7900 C   0  0  2  0  0  0
    5.0570    2.0100  -21.0890 C   0  0  0  0  0  0
   -2.3490    3.6760  -26.2520 C   0  0  0  0  0  0
   -1.5770    2.8080  -21.9050 C   0  0  0  0  0  0
   -0.5440    2.4460  -21.4140 C   0  0  0  0  0  0
   -0.8620    5.7060  -23.4860 F   0  0  0  0  0  0
   -3.7520    3.0640  -20.3540 F   0  0  0  0  0  0
    1.7860    5.9960  -23.0590 N   0  0  0  0  0  0
    4.0010    5.0680  -23.1680 N   0  0  0  0  0  0
    0.2580    2.5690  -24.9300 N   0  0  0  0  0  0
    4.4370    2.8840  -23.8480 N   0  0  0  0  0  0
    6.4690    1.1140  -22.7710 N   0  0  1  0  0  0
   -3.8870    3.9190  -27.9920 O   0  0  0  0  0  0
   -6.0077    3.6512  -21.3215 H   0  0  0  0  0  0
   -6.5024    4.0309  -23.7004 H   0  0  0  0  0  0
    5.5886    3.9794  -21.5068 H   0  0  0  0  0  0
    6.8503    2.9779  -20.6610 H   0  0  0  0  0  0
    6.2906    2.7701  -24.9076 H   0  0  0  0  0  0
    6.0484    4.2833  -23.9761 H   0  0  0  0  0  0
   -5.7171    4.1518  -26.0673 H   0  0  0  0  0  0
    2.2013    1.8261  -24.9381 H   0  0  0  0  0  0
    3.0835    1.3604  -23.0608 H   0  0  0  0  0  0
    4.2794    0.7458  -24.2648 H   0  0  0  0  0  0
    4.8410    0.0178  -21.9359 H   0  0  0  0  0  0
    7.7266    2.8443  -22.8384 H   0  0  0  0  0  0
    4.0749    2.5016  -21.0274 H   0  0  0  0  0  0
    5.3629    1.4740  -20.1784 H   0  0  0  0  0  0
   -1.5845    3.6740  -27.0205 H   0  0  0  0  0  0
    0.3661    2.1280  -20.9830 H   0  0  0  0  0  0
    7.1202    0.5975  -22.0813 H   0  0  0  0  0  0
   -3.0453    3.8399  -28.4252 H   0  0  0  0  0  0
    4.2860    7.2090  -21.0520 N   0  0  1  0  0  0
    8.5930    8.5220  -21.1730 N   0  0  0  0  0  0
    7.3510    7.1310  -19.7630 N   0  0  0  0  0  0
    4.8570    8.4740  -20.4590 C   0  0  0  0  0  0
    6.2220    8.8540  -21.0440 C   0  0  0  0  0  0
    7.3850    8.1690  -20.6590 C   0  0  0  0  0  0
    3.6740    7.3530  -22.4220 C   0  0  0  0  0  0
    6.3430    9.8750  -21.9510 C   0  0  3  0  0  0
    5.1760   10.7140  -22.4530 C   0  0  0  0  0  0
    8.7010    9.5390  -22.0770 C   0  0  0  0  0  0
    7.6000   10.2120  -22.4690 C   0  0  0  0  0  0
    5.0676    6.4694  -21.1441 H   0  0  0  0  0  0
    9.4435    8.0203  -20.8802 H   0  0  0  0  0  0
    6.4546    6.8339  -19.3518 H   0  0  0  0  0  0
    8.2224    6.6483  -19.5012 H   0  0  0  0  0  0
    4.9460    8.3580  -19.3688 H   0  0  0  0  0  0
    4.1493    9.3017  -20.6139 H   0  0  0  0  0  0
    4.4369    7.7134  -23.1278 H   0  0  0  0  0  0
    2.8700    8.1030  -22.3870 H   0  0  0  0  0  0
    5.5433   11.4625  -23.1705 H   0  0  0  0  0  0
    4.4421   10.0611  -22.9480 H   0  0  0  0  0  0
    4.6990   11.2240  -21.6030 H   0  0  0  0  0  0
    9.6713    9.8041  -22.4811 H   0  0  0  0  0  0
    7.6920   11.0189  -23.1869 H   0  0  0  0  0  0
  1  2  2  0  0  0
  1  3  1  0  0  0
  1 34  1  0  0  0
  2  6  1  0  0  0
  2 35  1  0  0  0
  3  5  2  0  0  0
  3 27  1  0  0  0
  4  5  1  0  0  0
  4  6  2  0  0  0
  4 18  1  0  0  0
  5 24  1  0  0  0
  6 10  1  0  0  0
  7 10  2  0  0  0
  7 23  1  0  0  0
  7 33  1  0  0  0
  8 21  1  0  0  0
  8 22  1  0  0  0
  8 36  1  0  0  0
  8 37  1  0  0  0
  9 21  1  0  0  0
  9 31  1  0  0  0
  9 38  1  0  0  0
  9 39  1  0  0  0
 10 40  1  0  0  0
 11 12  2  0  0  0
 11 14  1  0  0  0
 11 15  1  0  0  0
 12 17  1  0  0  0
 12 28  1  0  0  0
 13 28  2  0  0  0
 13 29  1  0  0  0
 13 58  1  0  0  0
 14 29  2  0  0  0
 14 31  1  0  0  0
 15 30  2  0  0  0
 15 41  1  0  0  0
 16 17  2  0  0  0
 16 18  1  0  0  0
 16 30  1  0  0  0
 17 26  1  0  0  0
 18 23  2  0  0  0
 19 20  1  0  0  0
 19 31  1  0  0  0
 19 42  1  0  0  0
 19 43  1  0  0  0
 20 22  1  0  0  0
 20 32  1  0  0  0
 20 44  1  0  0  0
 21 32  1  0  0  0
 21 45  1  0  0  0
 22 46  1  0  0  0
 22 47  1  0  0  0
 23 48  1  0  0  0
 24 25  3  0  0  0
 25 49  1  0  0  0
 32 50  1  0  0  0
 33 51  1  0  0  0
 52 55  1  0  0  0
 52 58  1  0  0  0
 52 63  1  0  0  0
 53 57  1  0  0  0
 53 61  1  0  0  0
 53 64  1  0  0  0
 54 57  1  0  0  0
 54 65  1  0  0  0
 54 66  1  0  0  0
 55 56  1  0  0  0
 55 67  1  0  0  0
 55 68  1  0  0  0
 56 57  2  0  0  0
 56 59  1  0  0  0
 58 69  1  0  0  0
 58 70  1  0  0  0
 59 60  1  0  0  0
 59 62  1  0  0  0
 60 71  1  0  0  0
 60 72  1  0  0  0
 60 73  1  0  0  0
 61 62  2  0  0  0
 61 74  1  0  0  0
 62 75  1  0  0  0
M  END
> <s_m_entry_id>
268

> <s_m_entry_name>
000000268.1

> <s_m_Source_Path>
/Users/zaksoul/Documents/2

> <s_m_Source_File>
000000268.mol2

> <i_m_Source_File_Index>
1

$$$$
No_0_284
                    3D
 Schrodinger Suite 2022-4.
 73 79  0  0  1  0            999 V2000
   -5.1250    3.2840  -22.1020 C   0  0  0  0  0  0
   -5.3920    3.4480  -23.4400 C   0  0  0  0  0  0
   -3.8810    3.0740  -21.7530 C   0  0  0  0  0  0
   -2.9860    3.2010  -23.9170 C   0  0  0  0  0  0
   -2.8230    2.9790  -22.4930 C   0  0  0  0  0  0
   -4.3390    3.4150  -24.4460 C   0  0  0  0  0  0
   -3.5770    3.4320  -26.6420 C   0  0  0  0  0  0
    6.1510    3.0670  -21.3350 C   0  0  0  0  0  0
    6.0170    3.1730  -23.8870 C   0  0  0  0  0  0
   -4.5890    3.5170  -25.7840 C   0  0  0  0  0  0
    2.2170    3.6030  -23.9240 C   0  0  0  0  0  0
    1.3610    4.6890  -23.6410 C   0  0  0  0  0  0
    3.1190    5.9480  -22.9710 C   0  0  0  0  0  0
    3.6100    3.8410  -23.6080 C   0  0  0  0  0  0
    1.7080    2.4610  -24.5720 C   0  0  0  0  0  0
   -0.4440    3.2090  -24.4790 C   0  0  0  0  0  0
    0.0430    4.4530  -23.8940 C   0  0  0  0  0  0
   -1.8950    3.1660  -24.8390 C   0  0  0  0  0  0
    4.2920    1.3670  -23.2830 C   0  0  0  0  0  0
    5.2320    1.0550  -22.1280 C   0  0  2  0  0  0
    6.7780    2.6370  -22.6790 C   0  0  2  0  0  0
    5.1780    2.0700  -20.9740 C   0  0  0  0  0  0
   -2.2200    3.2970  -26.2690 C   0  0  0  0  0  0
   -1.4690    2.6160  -21.8850 C   0  0  0  0  0  0
   -0.4300    2.3070  -21.3720 C   0  0  0  0  0  0
   -0.8320    5.4750  -23.5660 F   0  0  0  0  0  0
   -3.6680    2.8560  -20.3680 F   0  0  0  0  0  0
    1.8000    5.8690  -23.1230 N   0  0  0  0  0  0
    4.0460    5.0110  -23.1760 N   0  0  0  0  0  0
    0.4070    2.3270  -24.8810 N   0  0  0  0  0  0
    4.5610    2.8200  -23.7690 N   0  0  0  0  0  0
    6.6370    1.1600  -22.6070 N   0  0  1  0  0  0
   -3.7450    3.4240  -28.0320 O   0  0  0  0  0  0
   -5.9312    3.3321  -21.3790 H   0  0  0  0  0  0
   -6.4108    3.6076  -23.7742 H   0  0  0  0  0  0
    5.6497    4.0383  -21.4591 H   0  0  0  0  0  0
    6.9337    3.1114  -20.5634 H   0  0  0  0  0  0
    6.4287    2.7290  -24.8053 H   0  0  0  0  0  0
    6.1260    4.2666  -23.9334 H   0  0  0  0  0  0
   -5.6033    3.6665  -26.1361 H   0  0  0  0  0  0
    2.3735    1.6490  -24.8420 H   0  0  0  0  0  0
    3.2502    1.2823  -22.9401 H   0  0  0  0  0  0
    4.4787    0.6634  -24.1077 H   0  0  0  0  0  0
    5.0373    0.0410  -21.7486 H   0  0  0  0  0  0
    7.8381    2.9268  -22.7254 H   0  0  0  0  0  0
    4.1795    2.5304  -20.9407 H   0  0  0  0  0  0
    5.4909    1.5775  -20.0415 H   0  0  0  0  0  0
   -1.4475    3.2910  -27.0294 H   0  0  0  0  0  0
    0.4843    2.0342  -20.9194 H   0  0  0  0  0  0
    7.2976    0.6908  -21.8930 H   0  0  0  0  0  0
   -2.8962    3.3567  -28.4534 H   0  0  0  0  0  0
    3.6170    7.4200  -21.0150 N   0  0  1  0  0  0
    6.3230    9.7210  -21.4300 N   0  0  0  0  0  0
    7.6450    9.4580  -21.4080 N   0  0  0  0  0  0
    5.7480    8.7420  -20.6820 C   0  0  0  0  0  0
    4.2440    8.6680  -20.4470 C   0  0  0  0  0  0
    3.6350    7.3100  -22.5180 C   0  0  0  0  0  0
    6.4620    6.6580  -19.3210 C   0  0  0  0  0  0
    5.7160   10.8510  -22.1420 C   0  0  0  0  0  0
    7.8620    8.3880  -20.6910 C   0  0  0  0  0  0
    6.6550    7.8830  -20.1920 C   0  0  0  0  0  0
    4.1391    6.5518  -20.6409 H   0  0  0  0  0  0
    4.0399    8.7210  -19.3674 H   0  0  0  0  0  0
    3.7620    9.5530  -20.8880 H   0  0  0  0  0  0
    4.6627    7.4531  -22.8832 H   0  0  0  0  0  0
    3.0059    8.1022  -22.9501 H   0  0  0  0  0  0
    7.4392    6.1969  -19.1150 H   0  0  0  0  0  0
    5.9889    6.9531  -18.3728 H   0  0  0  0  0  0
    5.8177    5.9347  -19.8422 H   0  0  0  0  0  0
    4.6256   10.8330  -21.9979 H   0  0  0  0  0  0
    6.1230   11.7939  -21.7480 H   0  0  0  0  0  0
    5.9450   10.7740  -23.2151 H   0  0  0  0  0  0
    8.8730    8.0200  -20.5590 H   0  0  0  0  0  0
  1  2  2  0  0  0
  1  3  1  0  0  0
  1 34  1  0  0  0
  2  6  1  0  0  0
  2 35  1  0  0  0
  3  5  2  0  0  0
  3 27  1  0  0  0
  4  5  1  0  0  0
  4  6  2  0  0  0
  4 18  1  0  0  0
  5 24  1  0  0  0
  6 10  1  0  0  0
  7 10  2  0  0  0
  7 23  1  0  0  0
  7 33  1  0  0  0
  8 21  1  0  0  0
  8 22  1  0  0  0
  8 36  1  0  0  0
  8 37  1  0  0  0
  9 21  1  0  0  0
  9 31  1  0  0  0
  9 38  1  0  0  0
  9 39  1  0  0  0
 10 40  1  0  0  0
 11 12  1  0  0  0
 11 14  2  0  0  0
 11 15  1  0  0  0
 12 17  1  0  0  0
 12 28  2  0  0  0
 13 28  1  0  0  0
 13 29  2  0  0  0
 13 57  1  0  0  0
 14 29  1  0  0  0
 14 31  1  0  0  0
 15 30  2  0  0  0
 15 41  1  0  0  0
 16 17  2  0  0  0
 16 18  1  0  0  0
 16 30  1  0  0  0
 17 26  1  0  0  0
 18 23  2  0  0  0
 19 20  1  0  0  0
 19 31  1  0  0  0
 19 42  1  0  0  0
 19 43  1  0  0  0
 20 22  1  0  0  0
 20 32  1  0  0  0
 20 44  1  0  0  0
 21 32  1  0  0  0
 21 45  1  0  0  0
 22 46  1  0  0  0
 22 47  1  0  0  0
 23 48  1  0  0  0
 24 25  3  0  0  0
 25 49  1  0  0  0
 32 50  1  0  0  0
 33 51  1  0  0  0
 52 56  1  0  0  0
 52 57  1  0  0  0
 52 62  1  0  0  0
 53 54  1  0  0  0
 53 55  1  0  0  0
 53 59  1  0  0  0
 54 60  2  0  0  0
 55 56  1  0  0  0
 55 61  2  0  0  0
 56 63  1  0  0  0
 56 64  1  0  0  0
 57 65  1  0  0  0
 57 66  1  0  0  0
 58 61  1  0  0  0
 58 67  1  0  0  0
 58 68  1  0  0  0
 58 69  1  0  0  0
 59 70  1  0  0  0
 59 71  1  0  0  0
 59 72  1  0  0  0
 60 61  1  0  0  0
 60 73  1  0  0  0
M  END
> <s_m_entry_id>
269

> <s_m_entry_name>
000000269.1

> <s_m_Source_Path>
/Users/zaksoul/Documents/2

> <s_m_Source_File>
000000269.mol2

> <i_m_Source_File_Index>
1

$$$$
No_0_285
                    3D
 Schrodinger Suite 2022-4.
 73 79  0  0  1  0            999 V2000
   -5.1830    3.4810  -22.0240 C   0  0  0  0  0  0
   -5.4340    3.6560  -23.3650 C   0  0  0  0  0  0
   -3.9450    3.2560  -21.6640 C   0  0  0  0  0  0
   -3.0250    3.3870  -23.8180 C   0  0  0  0  0  0
   -2.8800    3.1550  -22.3940 C   0  0  0  0  0  0
   -4.3700    3.6190  -24.3600 C   0  0  0  0  0  0
   -3.5840    3.6430  -26.5470 C   0  0  0  0  0  0
    6.0810    3.1420  -21.1380 C   0  0  0  0  0  0
    5.9760    3.2660  -23.6900 C   0  0  0  0  0  0
   -4.6050    3.7330  -25.6990 C   0  0  0  0  0  0
    2.1820    3.7360  -23.7650 C   0  0  0  0  0  0
    1.3340    4.8290  -23.4850 C   0  0  0  0  0  0
    3.0970    6.0660  -22.7870 C   0  0  0  0  0  0
    3.5730    3.9570  -23.4330 C   0  0  0  0  0  0
    1.6680    2.6040  -24.4270 C   0  0  0  0  0  0
   -0.4770    3.3730  -24.3520 C   0  0  0  0  0  0
    0.0160    4.6080  -23.7530 C   0  0  0  0  0  0
   -1.9240    3.3470  -24.7270 C   0  0  0  0  0  0
    4.2260    1.4740  -23.1170 C   0  0  0  0  0  0
    5.1500    1.1450  -21.9550 C   0  0  2  0  0  0
    6.7190    2.7150  -22.4780 C   0  0  2  0  0  0
    5.0950    2.1530  -20.7950 C   0  0  0  0  0  0
   -2.2320    3.4910  -26.1610 C   0  0  0  0  0  0
   -1.5360    2.7730  -21.7730 C   0  0  0  0  0  0
   -0.5060    2.4500  -21.2510 C   0  0  0  0  0  0
   -0.8520    5.6370  -23.4270 F   0  0  0  0  0  0
   -3.7490    3.0260  -20.2780 F   0  0  0  0  0  0
    1.7790    6.0010  -22.9540 N   0  0  0  0  0  0
    4.0160    5.1200  -22.9880 N   0  0  0  0  0  0
    0.3690    2.4850  -24.7500 N   0  0  0  0  0  0
    4.5150    2.9280  -23.5910 N   0  0  0  0  0  0
    6.5620    1.2380  -22.4180 N   0  0  1  0  0  0
   -3.7370    3.6460  -27.9390 O   0  0  0  0  0  0
   -5.9963    3.5322  -21.3091 H   0  0  0  0  0  0
   -6.4477    3.8278  -23.7086 H   0  0  0  0  0  0
    5.5918    4.1195  -21.2611 H   0  0  0  0  0  0
    6.8560    3.1733  -20.3580 H   0  0  0  0  0  0
    6.3928    2.8249  -24.6074 H   0  0  0  0  0  0
    6.0971    4.3586  -23.7283 H   0  0  0  0  0  0
   -5.6136    3.8956  -26.0613 H   0  0  0  0  0  0
    2.3278    1.7867  -24.6947 H   0  0  0  0  0  0
    3.1797    1.3983  -22.7861 H   0  0  0  0  0  0
    4.4148    0.7745  -23.9447 H   0  0  0  0  0  0
    4.9421    0.1307  -21.5836 H   0  0  0  0  0  0
    7.7826    2.9938  -22.5113 H   0  0  0  0  0  0
    4.1010    2.6233  -20.7678 H   0  0  0  0  0  0
    5.3926    1.6506  -19.8628 H   0  0  0  0  0  0
   -1.4511    3.4830  -26.9128 H   0  0  0  0  0  0
    0.4005    2.1652  -20.7903 H   0  0  0  0  0  0
    7.2099    0.7580  -21.6995 H   0  0  0  0  0  0
   -2.8845    3.5727  -28.3519 H   0  0  0  0  0  0
    3.9340    7.3950  -20.8450 N   0  0  1  0  0  0
    6.3420    9.9290  -21.5980 N   0  0  0  0  0  0
    7.6480    9.7700  -21.8900 N   0  0  0  0  0  0
    6.0060    8.8470  -20.8470 C   0  0  0  0  0  0
    4.5990    8.6340  -20.3020 C   0  0  0  0  0  0
    3.6220    7.4190  -22.3190 C   0  0  0  0  0  0
    7.1250    6.7150  -19.8950 C   0  0  0  0  0  0
    5.5280   11.0660  -22.0420 C   0  0  0  0  0  0
    8.0810    8.6620  -21.3500 C   0  0  0  0  0  0
    7.0470    8.0220  -20.6560 C   0  0  0  0  0  0
    4.5751    6.5409  -20.6840 H   0  0  0  0  0  0
    4.6380    8.5760  -19.2042 H   0  0  0  0  0  0
    3.9807    9.5134  -20.5351 H   0  0  0  0  0  0
    4.5322    7.6730  -22.8821 H   0  0  0  0  0  0
    2.8681    8.1939  -22.5220 H   0  0  0  0  0  0
    8.1480    6.3150  -19.9540 H   0  0  0  0  0  0
    6.8591    6.8869  -18.8415 H   0  0  0  0  0  0
    6.4234    5.9914  -20.3357 H   0  0  0  0  0  0
    4.5004   10.9500  -21.6671 H   0  0  0  0  0  0
    5.9578   11.9996  -21.6501 H   0  0  0  0  0  0
    5.5160   11.1020  -23.1413 H   0  0  0  0  0  0
    9.1155    8.3649  -21.4791 H   0  0  0  0  0  0
  1  2  2  0  0  0
  1  3  1  0  0  0
  1 34  1  0  0  0
  2  6  1  0  0  0
  2 35  1  0  0  0
  3  5  2  0  0  0
  3 27  1  0  0  0
  4  5  1  0  0  0
  4  6  2  0  0  0
  4 18  1  0  0  0
  5 24  1  0  0  0
  6 10  1  0  0  0
  7 10  2  0  0  0
  7 23  1  0  0  0
  7 33  1  0  0  0
  8 21  1  0  0  0
  8 22  1  0  0  0
  8 36  1  0  0  0
  8 37  1  0  0  0
  9 21  1  0  0  0
  9 31  1  0  0  0
  9 38  1  0  0  0
  9 39  1  0  0  0
 10 40  1  0  0  0
 11 12  1  0  0  0
 11 14  2  0  0  0
 11 15  1  0  0  0
 12 17  1  0  0  0
 12 28  2  0  0  0
 13 28  1  0  0  0
 13 29  2  0  0  0
 13 57  1  0  0  0
 14 29  1  0  0  0
 14 31  1  0  0  0
 15 30  2  0  0  0
 15 41  1  0  0  0
 16 17  2  0  0  0
 16 18  1  0  0  0
 16 30  1  0  0  0
 17 26  1  0  0  0
 18 23  2  0  0  0
 19 20  1  0  0  0
 19 31  1  0  0  0
 19 42  1  0  0  0
 19 43  1  0  0  0
 20 22  1  0  0  0
 20 32  1  0  0  0
 20 44  1  0  0  0
 21 32  1  0  0  0
 21 45  1  0  0  0
 22 46  1  0  0  0
 22 47  1  0  0  0
 23 48  1  0  0  0
 24 25  3  0  0  0
 25 49  1  0  0  0
 32 50  1  0  0  0
 33 51  1  0  0  0
 52 56  1  0  0  0
 52 57  1  0  0  0
 52 62  1  0  0  0
 53 54  1  0  0  0
 53 55  1  0  0  0
 53 59  1  0  0  0
 54 60  2  0  0  0
 55 56  1  0  0  0
 55 61  2  0  0  0
 56 63  1  0  0  0
 56 64  1  0  0  0
 57 65  1  0  0  0
 57 66  1  0  0  0
 58 61  1  0  0  0
 58 67  1  0  0  0
 58 68  1  0  0  0
 58 69  1  0  0  0
 59 70  1  0  0  0
 59 71  1  0  0  0
 59 72  1  0  0  0
 60 61  1  0  0  0
 60 73  1  0  0  0
M  END
> <s_m_entry_id>
270

> <s_m_entry_name>
000000270.1

> <s_m_Source_Path>
/Users/zaksoul/Documents/2

> <s_m_Source_File>
000000270.mol2

> <i_m_Source_File_Index>
1

$$$$
No_0_286
                    3D
 Schrodinger Suite 2022-4.
 73 79  0  0  1  0            999 V2000
   -5.3210    3.2450  -22.0620 C   0  0  0  0  0  0
   -5.5650    3.4290  -23.4020 C   0  0  0  0  0  0
   -4.0820    3.0320  -21.6950 C   0  0  0  0  0  0
   -3.1510    3.1950  -23.8420 C   0  0  0  0  0  0
   -3.0120    2.9520  -22.4190 C   0  0  0  0  0  0
   -4.4950    3.4140  -24.3900 C   0  0  0  0  0  0
   -3.6950    3.4680  -26.5720 C   0  0  0  0  0  0
    5.9410    3.0420  -21.1050 C   0  0  0  0  0  0
    5.8510    3.1870  -23.6570 C   0  0  0  0  0  0
   -4.7220    3.5370  -25.7300 C   0  0  0  0  0  0
    2.0510    3.6090  -23.7520 C   0  0  0  0  0  0
    1.1880    4.6880  -23.4680 C   0  0  0  0  0  0
    2.9300    5.9410  -22.7470 C   0  0  0  0  0  0
    3.4370    3.8450  -23.4090 C   0  0  0  0  0  0
    1.5560    2.4760  -24.4270 C   0  0  0  0  0  0
   -0.5990    3.2180  -24.3590 C   0  0  0  0  0  0
   -0.1260    4.4530  -23.7470 C   0  0  0  0  0  0
   -2.0430    3.1770  -24.7440 C   0  0  0  0  0  0
    4.1200    1.3680  -23.1100 C   0  0  0  0  0  0
    5.0410    1.0400  -21.9450 C   0  0  2  0  0  0
    6.5920    2.6340  -22.4450 C   0  0  2  0  0  0
    4.9650    2.0370  -20.7760 C   0  0  0  0  0  0
   -2.3440    3.3290  -26.1780 C   0  0  0  0  0  0
   -1.6670    2.5810  -21.7930 C   0  0  0  0  0  0
   -0.6360    2.2670  -21.2660 C   0  0  0  0  0  0
   -1.0090    5.4690  -23.4170 F   0  0  0  0  0  0
   -3.8930    2.7930  -20.3100 F   0  0  0  0  0  0
    1.6140    5.8610  -22.9230 N   0  0  0  0  0  0
    3.8630    5.0100  -22.9510 N   0  0  0  0  0  0
    0.2600    2.3440  -24.7600 N   0  0  0  0  0  0
    4.3940    2.8290  -23.5690 N   0  0  0  0  0  0
    6.4540    1.1550  -22.3980 N   0  0  1  0  0  0
   -3.8390    3.4810  -27.9650 O   0  0  0  0  0  0
   -6.1389    3.2791  -21.3515 H   0  0  0  0  0  0
   -6.5784    3.5905  -23.7512 H   0  0  0  0  0  0
    5.4394    4.0139  -21.2221 H   0  0  0  0  0  0
    6.7103    3.0763  -20.3195 H   0  0  0  0  0  0
    6.2793    2.7587  -24.5752 H   0  0  0  0  0  0
    5.9579    4.2815  -23.6842 H   0  0  0  0  0  0
   -5.7304    3.6895  -26.0972 H   0  0  0  0  0  0
    2.2284    1.6701  -24.6980 H   0  0  0  0  0  0
    3.0725    1.2762  -22.7871 H   0  0  0  0  0  0
    4.3229    0.6786  -23.9428 H   0  0  0  0  0  0
    4.8423    0.0202  -21.5839 H   0  0  0  0  0  0
    7.6519    2.9275  -22.4682 H   0  0  0  0  0  0
    3.9648    2.4942  -20.7528 H   0  0  0  0  0  0
    5.2628    1.5302  -19.8462 H   0  0  0  0  0  0
   -1.5582    3.3380  -26.9247 H   0  0  0  0  0  0
    0.2716    1.9898  -20.8027 H   0  0  0  0  0  0
    7.1032    0.6770  -21.6793 H   0  0  0  0  0  0
   -2.9829    3.4226  -28.3727 H   0  0  0  0  0  0
    3.9430    7.2090  -20.8480 N   0  0  1  0  0  0
    6.0780    9.9340  -21.7420 N   0  0  0  0  0  0
    7.3410    9.8790  -22.2110 N   0  0  0  0  0  0
    5.9090    8.7910  -21.0260 C   0  0  0  0  0  0
    4.6030    8.4560  -20.3160 C   0  0  0  0  0  0
    3.4350    7.2970  -22.2640 C   0  0  0  0  0  0
    7.2660    6.6860  -20.3700 C   0  0  0  0  0  0
    5.1490   11.0390  -22.0000 C   0  0  0  0  0  0
    7.9050    8.7720  -21.8070 C   0  0  0  0  0  0
    7.0120    8.0260  -21.0280 C   0  0  0  0  0  0
    4.6485    6.3915  -20.8290 H   0  0  0  0  0  0
    4.7930    8.3380  -19.2390 H   0  0  0  0  0  0
    3.9093    9.3047  -20.4080 H   0  0  0  0  0  0
    4.2452    7.6421  -22.9232 H   0  0  0  0  0  0
    2.6172    8.0309  -22.3150 H   0  0  0  0  0  0
    8.2931    6.3580  -20.5880 H   0  0  0  0  0  0
    7.1350    6.7800  -19.2819 H   0  0  0  0  0  0
    6.5543    5.9444  -20.7618 H   0  0  0  0  0  0
    4.1891   10.8350  -21.5030 H   0  0  0  0  0  0
    5.5729   11.9749  -21.6071 H   0  0  0  0  0  0
    4.9859   11.1370  -23.0834 H   0  0  0  0  0  0
    8.9281    8.5510  -22.0890 H   0  0  0  0  0  0
  1  2  2  0  0  0
  1  3  1  0  0  0
  1 34  1  0  0  0
  2  6  1  0  0  0
  2 35  1  0  0  0
  3  5  2  0  0  0
  3 27  1  0  0  0
  4  5  1  0  0  0
  4  6  2  0  0  0
  4 18  1  0  0  0
  5 24  1  0  0  0
  6 10  1  0  0  0
  7 10  2  0  0  0
  7 23  1  0  0  0
  7 33  1  0  0  0
  8 21  1  0  0  0
  8 22  1  0  0  0
  8 36  1  0  0  0
  8 37  1  0  0  0
  9 21  1  0  0  0
  9 31  1  0  0  0
  9 38  1  0  0  0
  9 39  1  0  0  0
 10 40  1  0  0  0
 11 12  1  0  0  0
 11 14  2  0  0  0
 11 15  1  0  0  0
 12 17  1  0  0  0
 12 28  2  0  0  0
 13 28  1  0  0  0
 13 29  2  0  0  0
 13 57  1  0  0  0
 14 29  1  0  0  0
 14 31  1  0  0  0
 15 30  2  0  0  0
 15 41  1  0  0  0
 16 17  2  0  0  0
 16 18  1  0  0  0
 16 30  1  0  0  0
 17 26  1  0  0  0
 18 23  2  0  0  0
 19 20  1  0  0  0
 19 31  1  0  0  0
 19 42  1  0  0  0
 19 43  1  0  0  0
 20 22  1  0  0  0
 20 32  1  0  0  0
 20 44  1  0  0  0
 21 32  1  0  0  0
 21 45  1  0  0  0
 22 46  1  0  0  0
 22 47  1  0  0  0
 23 48  1  0  0  0
 24 25  3  0  0  0
 25 49  1  0  0  0
 32 50  1  0  0  0
 33 51  1  0  0  0
 52 56  1  0  0  0
 52 57  1  0  0  0
 52 62  1  0  0  0
 53 54  1  0  0  0
 53 55  1  0  0  0
 53 59  1  0  0  0
 54 60  2  0  0  0
 55 56  1  0  0  0
 55 61  2  0  0  0
 56 63  1  0  0  0
 56 64  1  0  0  0
 57 65  1  0  0  0
 57 66  1  0  0  0
 58 61  1  0  0  0
 58 67  1  0  0  0
 58 68  1  0  0  0
 58 69  1  0  0  0
 59 70  1  0  0  0
 59 71  1  0  0  0
 59 72  1  0  0  0
 60 61  1  0  0  0
 60 73  1  0  0  0
M  END
> <s_m_entry_id>
271

> <s_m_entry_name>
000000271.1

> <s_m_Source_Path>
/Users/zaksoul/Documents/2

> <s_m_Source_File>
000000271.mol2

> <i_m_Source_File_Index>
1

$$$$
No_0_287
                    3D
 Schrodinger Suite 2022-4.
 69 75  0  0  1  0            999 V2000
   -5.0500    3.3870  -22.0200 C   0  0  0  0  0  0
   -5.3190    3.5570  -23.3580 C   0  0  0  0  0  0
   -3.8060    3.1670  -21.6760 C   0  0  0  0  0  0
   -2.9160    3.2930  -23.8420 C   0  0  0  0  0  0
   -2.7510    3.0660  -22.4190 C   0  0  0  0  0  0
   -4.2690    3.5190  -24.3670 C   0  0  0  0  0  0
   -3.5130    3.5370  -26.5650 C   0  0  0  0  0  0
    6.2260    3.0820  -21.2860 C   0  0  0  0  0  0
    6.0860    3.1970  -23.8360 C   0  0  0  0  0  0
   -4.5220    3.6270  -25.7030 C   0  0  0  0  0  0
    2.2900    3.6550  -23.8620 C   0  0  0  0  0  0
    1.4430    4.7470  -23.5740 C   0  0  0  0  0  0
    3.2120    5.9910  -22.9040 C   0  0  0  0  0  0
    3.6850    3.8820  -23.5490 C   0  0  0  0  0  0
    1.7710    2.5190  -24.5120 C   0  0  0  0  0  0
   -0.3750    3.2840  -24.4110 C   0  0  0  0  0  0
    0.1220    4.5220  -23.8240 C   0  0  0  0  0  0
   -1.8280    3.2520  -24.7660 C   0  0  0  0  0  0
    4.3490    1.4020  -23.2330 C   0  0  0  0  0  0
    5.2900    1.0800  -22.0820 C   0  0  2  0  0  0
    6.8470    2.6520  -22.6330 C   0  0  2  0  0  0
    5.2470    2.0910  -20.9250 C   0  0  0  0  0  0
   -2.1560    3.3900  -26.1960 C   0  0  0  0  0  0
   -1.3980    2.6900  -21.8160 C   0  0  0  0  0  0
   -0.3600    2.3720  -21.3060 C   0  0  0  0  0  0
   -0.7440    5.5500  -23.4900 F   0  0  0  0  0  0
   -3.5920    2.9420  -20.2920 F   0  0  0  0  0  0
    1.8920    5.9220  -23.0530 N   0  0  0  0  0  0
    4.1310    5.0480  -23.1150 N   0  0  0  0  0  0
    0.4670    2.3960  -24.8180 N   0  0  0  0  0  0
    4.6280    2.8540  -23.7160 N   0  0  0  0  0  0
    6.6950    1.1750  -22.5640 N   0  0  1  0  0  0
   -3.6850    3.5340  -27.9540 O   0  0  0  0  0  0
   -5.8538    3.4382  -21.2945 H   0  0  0  0  0  0
   -6.3378    3.7246  -23.6882 H   0  0  0  0  0  0
    5.7325    4.0579  -21.4051 H   0  0  0  0  0  0
    7.0109    3.1183  -20.5162 H   0  0  0  0  0  0
    6.4916    2.7531  -24.7571 H   0  0  0  0  0  0
    6.2041    4.2898  -23.8794 H   0  0  0  0  0  0
   -5.5361    3.7845  -26.0521 H   0  0  0  0  0  0
    2.4296    1.7028  -24.7861 H   0  0  0  0  0  0
    3.3075    1.3243  -22.8878 H   0  0  0  0  0  0
    4.5287    0.7003  -24.0609 H   0  0  0  0  0  0
    5.0893    0.0664  -21.7048 H   0  0  0  0  0  0
    7.9092    2.9337  -22.6815 H   0  0  0  0  0  0
    4.2525    2.5595  -20.8866 H   0  0  0  0  0  0
    5.5588    1.5936  -19.9947 H   0  0  0  0  0  0
   -1.3855    3.3810  -26.9585 H   0  0  0  0  0  0
    0.5537    2.0911  -20.8572 H   0  0  0  0  0  0
    7.3538    0.6991  -21.8528 H   0  0  0  0  0  0
   -2.8381    3.4618  -28.3784 H   0  0  0  0  0  0
    7.5100    9.5530  -23.1350 O   0  0  0  0  0  0
    4.4710    7.2370  -21.1370 N   0  0  1  0  0  0
    6.1950    9.2480  -22.7210 N   0  0  0  0  0  0
    5.0890    8.5180  -20.6400 C   0  0  0  0  0  0
    3.7390    7.3480  -22.4490 C   0  0  0  0  0  0
    6.2960    8.9230  -21.4680 C   0  0  0  0  0  0
    8.1790    8.6930  -19.6260 C   0  0  0  0  0  0
    8.3060    9.3820  -22.0810 C   0  0  0  0  0  0
    7.6340    8.9930  -21.0080 C   0  0  0  0  0  0
    5.2432    6.4948  -21.2760 H   0  0  0  0  0  0
    5.3900    8.3960  -19.5890 H   0  0  0  0  0  0
    4.3389    9.3221  -20.6700 H   0  0  0  0  0  0
    4.4181    7.7521  -23.2142 H   0  0  0  0  0  0
    2.8989    8.0500  -22.3420 H   0  0  0  0  0  0
    9.2677    8.8501  -19.6180 H   0  0  0  0  0  0
    7.7060    9.3620  -18.8920 H   0  0  0  0  0  0
    7.9582    7.6479  -19.3632 H   0  0  0  0  0  0
    9.3842    9.5249  -22.0260 H   0  0  0  0  0  0
  1  2  2  0  0  0
  1  3  1  0  0  0
  1 34  1  0  0  0
  2  6  1  0  0  0
  2 35  1  0  0  0
  3  5  2  0  0  0
  3 27  1  0  0  0
  4  5  1  0  0  0
  4  6  2  0  0  0
  4 18  1  0  0  0
  5 24  1  0  0  0
  6 10  1  0  0  0
  7 10  2  0  0  0
  7 23  1  0  0  0
  7 33  1  0  0  0
  8 21  1  0  0  0
  8 22  1  0  0  0
  8 36  1  0  0  0
  8 37  1  0  0  0
  9 21  1  0  0  0
  9 31  1  0  0  0
  9 38  1  0  0  0
  9 39  1  0  0  0
 10 40  1  0  0  0
 11 12  1  0  0  0
 11 14  2  0  0  0
 11 15  1  0  0  0
 12 17  1  0  0  0
 12 28  2  0  0  0
 13 28  1  0  0  0
 13 29  2  0  0  0
 13 56  1  0  0  0
 14 29  1  0  0  0
 14 31  1  0  0  0
 15 30  2  0  0  0
 15 41  1  0  0  0
 16 17  2  0  0  0
 16 18  1  0  0  0
 16 30  1  0  0  0
 17 26  1  0  0  0
 18 23  2  0  0  0
 19 20  1  0  0  0
 19 31  1  0  0  0
 19 42  1  0  0  0
 19 43  1  0  0  0
 20 22  1  0  0  0
 20 32  1  0  0  0
 20 44  1  0  0  0
 21 32  1  0  0  0
 21 45  1  0  0  0
 22 46  1  0  0  0
 22 47  1  0  0  0
 23 48  1  0  0  0
 24 25  3  0  0  0
 25 49  1  0  0  0
 32 50  1  0  0  0
 33 51  1  0  0  0
 52 54  1  0  0  0
 52 59  1  0  0  0
 53 55  1  0  0  0
 53 56  1  0  0  0
 53 61  1  0  0  0
 54 57  2  0  0  0
 55 57  1  0  0  0
 55 62  1  0  0  0
 55 63  1  0  0  0
 56 64  1  0  0  0
 56 65  1  0  0  0
 57 60  1  0  0  0
 58 60  1  0  0  0
 58 66  1  0  0  0
 58 67  1  0  0  0
 58 68  1  0  0  0
 59 60  2  0  0  0
 59 69  1  0  0  0
M  END
> <s_m_entry_id>
272

> <s_m_entry_name>
000000272.1

> <s_m_Source_Path>
/Users/zaksoul/Documents/2

> <s_m_Source_File>
000000272.mol2

> <i_m_Source_File_Index>
1

$$$$
No_0_288
                    3D
 Schrodinger Suite 2022-4.
 69 75  0  0  1  0            999 V2000
   -5.4240    3.4400  -22.1490 C   0  0  0  0  0  0
   -5.6670    3.6490  -23.4860 C   0  0  0  0  0  0
   -4.1900    3.1920  -21.7890 C   0  0  0  0  0  0
   -3.2600    3.3620  -23.9360 C   0  0  0  0  0  0
   -3.1240    3.0950  -22.5170 C   0  0  0  0  0  0
   -4.6000    3.6220  -24.4770 C   0  0  0  0  0  0
   -3.8050    3.6870  -26.6600 C   0  0  0  0  0  0
    5.8320    2.9470  -21.2280 C   0  0  0  0  0  0
    5.7390    3.1310  -23.7770 C   0  0  0  0  0  0
   -4.8280    3.7690  -25.8150 C   0  0  0  0  0  0
    1.9500    3.6470  -23.8560 C   0  0  0  0  0  0
    1.1140    4.7430  -23.5530 C   0  0  0  0  0  0
    2.8890    5.9430  -22.8210 C   0  0  0  0  0  0
    3.3430    3.8440  -23.5130 C   0  0  0  0  0  0
    1.4260    2.5360  -24.5450 C   0  0  0  0  0  0
   -0.7100    3.3300  -24.4610 C   0  0  0  0  0  0
   -0.2050    4.5440  -23.8320 C   0  0  0  0  0  0
   -2.1560    3.3290  -24.8420 C   0  0  0  0  0  0
    3.9650    1.3470  -23.2520 C   0  0  0  0  0  0
    4.8810    0.9800  -22.0940 C   0  0  2  0  0  0
    6.4690    2.5430  -22.5750 C   0  0  2  0  0  0
    4.8320    1.9610  -20.9110 C   0  0  0  0  0  0
   -2.4570    3.5100  -26.2730 C   0  0  0  0  0  0
   -1.7870    2.6830  -21.9000 C   0  0  0  0  0  0
   -0.7630    2.3360  -21.3810 C   0  0  0  0  0  0
   -1.0620    5.5760  -23.4860 F   0  0  0  0  0  0
   -4.0030    2.9280  -20.4080 F   0  0  0  0  0  0
    1.5710    5.8970  -22.9940 N   0  0  0  0  0  0
    3.7980    4.9910  -23.0400 N   0  0  0  0  0  0
    0.1260    2.4410  -24.8760 N   0  0  0  0  0  0
    4.2730    2.8070  -23.6910 N   0  0  0  0  0  0
    6.2950    1.0670  -22.5490 N   0  0  1  0  0  0
   -3.9520    3.7230  -28.0530 O   0  0  0  0  0  0
   -6.2398    3.4842  -21.4366 H   0  0  0  0  0  0
   -6.6771    3.8408  -23.8294 H   0  0  0  0  0  0
    5.3547    3.9328  -21.3299 H   0  0  0  0  0  0
    6.6037    2.9510  -20.4442 H   0  0  0  0  0  0
    6.1538    2.7051  -24.7025 H   0  0  0  0  0  0
    5.8733    4.2227  -23.7891 H   0  0  0  0  0  0
   -5.8336    3.9516  -26.1763 H   0  0  0  0  0  0
    2.0777    1.7177  -24.8292 H   0  0  0  0  0  0
    2.9165    1.2764  -22.9270 H   0  0  0  0  0  0
    4.1487    0.6646  -24.0949 H   0  0  0  0  0  0
    4.6581   -0.0398  -21.7470 H   0  0  0  0  0  0
    7.5360    2.8093  -22.5982 H   0  0  0  0  0  0
    3.8440    2.4434  -20.8777 H   0  0  0  0  0  0
    5.1198    1.4348  -19.9889 H   0  0  0  0  0  0
   -1.6731    3.5100  -27.0217 H   0  0  0  0  0  0
    0.1386    2.0301  -20.9242 H   0  0  0  0  0  0
    6.9344    0.5634  -21.8391 H   0  0  0  0  0  0
   -3.0986    3.6497  -28.4639 H   0  0  0  0  0  0
    6.8370    9.8370  -23.4950 O   0  0  0  0  0  0
    4.4300    7.0830  -21.2120 N   0  0  1  0  0  0
    5.6610    9.3850  -22.8580 N   0  0  0  0  0  0
    5.0700    8.3470  -20.7000 C   0  0  0  0  0  0
    3.4280    7.2780  -22.3200 C   0  0  0  0  0  0
    6.0470    8.9340  -21.7040 C   0  0  0  0  0  0
    8.2920    8.6530  -20.3350 C   0  0  0  0  0  0
    7.8500    9.6160  -22.6590 C   0  0  0  0  0  0
    7.4470    9.0590  -21.5260 C   0  0  0  0  0  0
    5.1928    6.4242  -21.5999 H   0  0  0  0  0  0
    5.5969    8.1340  -19.7582 H   0  0  0  0  0  0
    4.2886    9.0874  -20.4739 H   0  0  0  0  0  0
    3.9038    7.8168  -23.1527 H   0  0  0  0  0  0
    2.5942    7.8958  -21.9551 H   0  0  0  0  0  0
    9.3464    8.8951  -20.5341 H   0  0  0  0  0  0
    7.9531    9.1989  -19.4422 H   0  0  0  0  0  0
    8.1900    7.5712  -20.1640 H   0  0  0  0  0  0
    8.9057    9.8359  -22.8110 H   0  0  0  0  0  0
  1  2  2  0  0  0
  1  3  1  0  0  0
  1 34  1  0  0  0
  2  6  1  0  0  0
  2 35  1  0  0  0
  3  5  2  0  0  0
  3 27  1  0  0  0
  4  5  1  0  0  0
  4  6  2  0  0  0
  4 18  1  0  0  0
  5 24  1  0  0  0
  6 10  1  0  0  0
  7 10  2  0  0  0
  7 23  1  0  0  0
  7 33  1  0  0  0
  8 21  1  0  0  0
  8 22  1  0  0  0
  8 36  1  0  0  0
  8 37  1  0  0  0
  9 21  1  0  0  0
  9 31  1  0  0  0
  9 38  1  0  0  0
  9 39  1  0  0  0
 10 40  1  0  0  0
 11 12  1  0  0  0
 11 14  2  0  0  0
 11 15  1  0  0  0
 12 17  1  0  0  0
 12 28  2  0  0  0
 13 28  1  0  0  0
 13 29  2  0  0  0
 13 56  1  0  0  0
 14 29  1  0  0  0
 14 31  1  0  0  0
 15 30  2  0  0  0
 15 41  1  0  0  0
 16 17  2  0  0  0
 16 18  1  0  0  0
 16 30  1  0  0  0
 17 26  1  0  0  0
 18 23  2  0  0  0
 19 20  1  0  0  0
 19 31  1  0  0  0
 19 42  1  0  0  0
 19 43  1  0  0  0
 20 22  1  0  0  0
 20 32  1  0  0  0
 20 44  1  0  0  0
 21 32  1  0  0  0
 21 45  1  0  0  0
 22 46  1  0  0  0
 22 47  1  0  0  0
 23 48  1  0  0  0
 24 25  3  0  0  0
 25 49  1  0  0  0
 32 50  1  0  0  0
 33 51  1  0  0  0
 52 54  1  0  0  0
 52 59  1  0  0  0
 53 55  1  0  0  0
 53 56  1  0  0  0
 53 61  1  0  0  0
 54 57  2  0  0  0
 55 57  1  0  0  0
 55 62  1  0  0  0
 55 63  1  0  0  0
 56 64  1  0  0  0
 56 65  1  0  0  0
 57 60  1  0  0  0
 58 60  1  0  0  0
 58 66  1  0  0  0
 58 67  1  0  0  0
 58 68  1  0  0  0
 59 60  2  0  0  0
 59 69  1  0  0  0
M  END
> <s_m_entry_id>
273

> <s_m_entry_name>
000000273.1

> <s_m_Source_Path>
/Users/zaksoul/Documents/2

> <s_m_Source_File>
000000273.mol2

> <i_m_Source_File_Index>
1

$$$$
No_0_289
                    3D
 Schrodinger Suite 2022-4.
 69 75  0  0  1  0            999 V2000
   -5.3210    3.2450  -22.0620 C   0  0  0  0  0  0
   -5.5650    3.4290  -23.4020 C   0  0  0  0  0  0
   -4.0820    3.0320  -21.6950 C   0  0  0  0  0  0
   -3.1510    3.1950  -23.8420 C   0  0  0  0  0  0
   -3.0120    2.9520  -22.4190 C   0  0  0  0  0  0
   -4.4950    3.4140  -24.3900 C   0  0  0  0  0  0
   -3.6950    3.4680  -26.5720 C   0  0  0  0  0  0
    5.9410    3.0420  -21.1050 C   0  0  0  0  0  0
    5.8510    3.1870  -23.6570 C   0  0  0  0  0  0
   -4.7220    3.5370  -25.7300 C   0  0  0  0  0  0
    2.0510    3.6090  -23.7520 C   0  0  0  0  0  0
    1.1880    4.6880  -23.4680 C   0  0  0  0  0  0
    2.9300    5.9410  -22.7470 C   0  0  0  0  0  0
    3.4370    3.8450  -23.4090 C   0  0  0  0  0  0
    1.5560    2.4760  -24.4270 C   0  0  0  0  0  0
   -0.5990    3.2180  -24.3590 C   0  0  0  0  0  0
   -0.1260    4.4530  -23.7470 C   0  0  0  0  0  0
   -2.0430    3.1770  -24.7440 C   0  0  0  0  0  0
    4.1200    1.3680  -23.1100 C   0  0  0  0  0  0
    5.0410    1.0400  -21.9450 C   0  0  2  0  0  0
    6.5920    2.6340  -22.4450 C   0  0  2  0  0  0
    4.9650    2.0370  -20.7760 C   0  0  0  0  0  0
   -2.3440    3.3290  -26.1780 C   0  0  0  0  0  0
   -1.6670    2.5810  -21.7930 C   0  0  0  0  0  0
   -0.6360    2.2670  -21.2660 C   0  0  0  0  0  0
   -1.0090    5.4690  -23.4170 F   0  0  0  0  0  0
   -3.8930    2.7930  -20.3100 F   0  0  0  0  0  0
    1.6140    5.8610  -22.9230 N   0  0  0  0  0  0
    3.8630    5.0100  -22.9510 N   0  0  0  0  0  0
    0.2600    2.3440  -24.7600 N   0  0  0  0  0  0
    4.3940    2.8290  -23.5690 N   0  0  0  0  0  0
    6.4540    1.1550  -22.3980 N   0  0  1  0  0  0
   -3.8390    3.4810  -27.9650 O   0  0  0  0  0  0
   -6.1389    3.2791  -21.3515 H   0  0  0  0  0  0
   -6.5784    3.5905  -23.7512 H   0  0  0  0  0  0
    5.4394    4.0139  -21.2221 H   0  0  0  0  0  0
    6.7103    3.0763  -20.3195 H   0  0  0  0  0  0
    6.2793    2.7587  -24.5752 H   0  0  0  0  0  0
    5.9579    4.2815  -23.6842 H   0  0  0  0  0  0
   -5.7304    3.6895  -26.0972 H   0  0  0  0  0  0
    2.2284    1.6701  -24.6980 H   0  0  0  0  0  0
    3.0725    1.2762  -22.7871 H   0  0  0  0  0  0
    4.3229    0.6786  -23.9428 H   0  0  0  0  0  0
    4.8423    0.0202  -21.5839 H   0  0  0  0  0  0
    7.6519    2.9275  -22.4682 H   0  0  0  0  0  0
    3.9648    2.4942  -20.7528 H   0  0  0  0  0  0
    5.2628    1.5302  -19.8462 H   0  0  0  0  0  0
   -1.5582    3.3380  -26.9247 H   0  0  0  0  0  0
    0.2716    1.9898  -20.8027 H   0  0  0  0  0  0
    7.1032    0.6770  -21.6793 H   0  0  0  0  0  0
   -2.9829    3.4226  -28.3727 H   0  0  0  0  0  0
    6.2120   10.3020  -23.9390 O   0  0  0  0  0  0
    4.6790    7.1510  -21.4280 N   0  0  1  0  0  0
    5.2640    9.6790  -23.0990 N   0  0  0  0  0  0
    5.2910    8.4460  -20.9620 C   0  0  0  0  0  0
    3.4350    7.2970  -22.2640 C   0  0  0  0  0  0
    5.9480    9.2040  -22.1020 C   0  0  0  0  0  0
    8.4640    9.1010  -21.2950 C   0  0  0  0  0  0
    7.4070   10.1490  -23.3700 C   0  0  0  0  0  0
    7.3320    9.4790  -22.2290 C   0  0  0  0  0  0
    5.3935    6.6096  -22.0304 H   0  0  0  0  0  0
    6.0381    8.2380  -20.1819 H   0  0  0  0  0  0
    4.5129    9.0751  -20.5050 H   0  0  0  0  0  0
    3.6500    7.9379  -23.1318 H   0  0  0  0  0  0
    2.6503    7.7898  -21.6712 H   0  0  0  0  0  0
    9.4151    9.4760  -21.7010 H   0  0  0  0  0  0
    8.2870    9.5469  -20.3051 H   0  0  0  0  0  0
    8.5110    8.0060  -21.2010 H   0  0  0  0  0  0
    8.3722   10.4991  -23.7331 H   0  0  0  0  0  0
  1  2  2  0  0  0
  1  3  1  0  0  0
  1 34  1  0  0  0
  2  6  1  0  0  0
  2 35  1  0  0  0
  3  5  2  0  0  0
  3 27  1  0  0  0
  4  5  1  0  0  0
  4  6  2  0  0  0
  4 18  1  0  0  0
  5 24  1  0  0  0
  6 10  1  0  0  0
  7 10  2  0  0  0
  7 23  1  0  0  0
  7 33  1  0  0  0
  8 21  1  0  0  0
  8 22  1  0  0  0
  8 36  1  0  0  0
  8 37  1  0  0  0
  9 21  1  0  0  0
  9 31  1  0  0  0
  9 38  1  0  0  0
  9 39  1  0  0  0
 10 40  1  0  0  0
 11 12  1  0  0  0
 11 14  2  0  0  0
 11 15  1  0  0  0
 12 17  1  0  0  0
 12 28  2  0  0  0
 13 28  1  0  0  0
 13 29  2  0  0  0
 13 56  1  0  0  0
 14 29  1  0  0  0
 14 31  1  0  0  0
 15 30  2  0  0  0
 15 41  1  0  0  0
 16 17  2  0  0  0
 16 18  1  0  0  0
 16 30  1  0  0  0
 17 26  1  0  0  0
 18 23  2  0  0  0
 19 20  1  0  0  0
 19 31  1  0  0  0
 19 42  1  0  0  0
 19 43  1  0  0  0
 20 22  1  0  0  0
 20 32  1  0  0  0
 20 44  1  0  0  0
 21 32  1  0  0  0
 21 45  1  0  0  0
 22 46  1  0  0  0
 22 47  1  0  0  0
 23 48  1  0  0  0
 24 25  3  0  0  0
 25 49  1  0  0  0
 32 50  1  0  0  0
 33 51  1  0  0  0
 52 54  1  0  0  0
 52 59  1  0  0  0
 53 55  1  0  0  0
 53 56  1  0  0  0
 53 61  1  0  0  0
 54 57  2  0  0  0
 55 57  1  0  0  0
 55 62  1  0  0  0
 55 63  1  0  0  0
 56 64  1  0  0  0
 56 65  1  0  0  0
 57 60  1  0  0  0
 58 60  1  0  0  0
 58 66  1  0  0  0
 58 67  1  0  0  0
 58 68  1  0  0  0
 59 60  2  0  0  0
 59 69  1  0  0  0
M  END
> <s_m_entry_id>
274

> <s_m_entry_name>
000000274.1

> <s_m_Source_Path>
/Users/zaksoul/Documents/2

> <s_m_Source_File>
000000274.mol2

> <i_m_Source_File_Index>
1

$$$$
No_0_290
                    3D
 Schrodinger Suite 2022-4.
 69 75  0  0  1  0            999 V2000
   -5.2350    3.4550  -22.1760 C   0  0  0  0  0  0
   -5.4650    3.6630  -23.5150 C   0  0  0  0  0  0
   -4.0040    3.2140  -21.8030 C   0  0  0  0  0  0
   -3.0520    3.3900  -23.9380 C   0  0  0  0  0  0
   -2.9290    3.1240  -22.5180 C   0  0  0  0  0  0
   -4.3870    3.6430  -24.4950 C   0  0  0  0  0  0
   -3.5680    3.7130  -26.6690 C   0  0  0  0  0  0
    6.0120    3.0260  -21.1300 C   0  0  0  0  0  0
    5.9460    3.2100  -23.6790 C   0  0  0  0  0  0
   -4.6000    3.7900  -25.8340 C   0  0  0  0  0  0
    2.1560    3.7050  -23.8000 C   0  0  0  0  0  0
    1.3110    4.7960  -23.5070 C   0  0  0  0  0  0
    3.0700    6.0050  -22.7530 C   0  0  0  0  0  0
    3.5440    3.9100  -23.4420 C   0  0  0  0  0  0
    1.6460    2.5920  -24.4960 C   0  0  0  0  0  0
   -0.4950    3.3730  -24.4350 C   0  0  0  0  0  0
   -0.0040    4.5900  -23.8000 C   0  0  0  0  0  0
   -1.9370    3.3650  -24.8320 C   0  0  0  0  0  0
    4.1770    1.4160  -23.1750 C   0  0  0  0  0  0
    5.0820    1.0540  -22.0070 C   0  0  2  0  0  0
    6.6670    2.6260  -22.4700 C   0  0  2  0  0  0
    5.0150    2.0340  -20.8240 C   0  0  0  0  0  0
   -2.2230    3.5440  -26.2660 C   0  0  0  0  0  0
   -1.5970    2.7190  -21.8870 C   0  0  0  0  0  0
   -0.5770    2.3770  -21.3570 C   0  0  0  0  0  0
   -0.8710    5.6170  -23.4630 F   0  0  0  0  0  0
   -3.8310    2.9500  -20.4190 F   0  0  0  0  0  0
    1.7550    5.9530  -22.9410 N   0  0  0  0  0  0
    3.9870    5.0600  -22.9630 N   0  0  0  0  0  0
    0.3510    2.4890  -24.8410 N   0  0  0  0  0  0
    4.4820    2.8780  -23.6100 N   0  0  0  0  0  0
    6.5010    1.1490  -22.4460 N   0  0  1  0  0  0
   -3.7000    3.7500  -28.0620 O   0  0  0  0  0  0
   -6.0588    3.4941  -21.4726 H   0  0  0  0  0  0
   -6.4719    3.8497  -23.8704 H   0  0  0  0  0  0
    5.5297    4.0088  -21.2370 H   0  0  0  0  0  0
    6.7750    3.0341  -20.3377 H   0  0  0  0  0  0
    6.3739    2.7882  -24.6004 H   0  0  0  0  0  0
    6.0741    4.3025  -23.6901 H   0  0  0  0  0  0
   -5.6023    3.9666  -26.2072 H   0  0  0  0  0  0
    2.3052    1.7773  -24.7729 H   0  0  0  0  0  0
    3.1255    1.3393  -22.8612 H   0  0  0  0  0  0
    4.3739    0.7353  -24.0163 H   0  0  0  0  0  0
    4.8620    0.0327  -21.6628 H   0  0  0  0  0  0
    7.7324    2.8994  -22.4801 H   0  0  0  0  0  0
    4.0236    2.5100  -20.8018 H   0  0  0  0  0  0
    5.2957    1.5089  -19.8991 H   0  0  0  0  0  0
   -1.4308    3.5490  -27.0059 H   0  0  0  0  0  0
    0.3210    2.0760  -20.8900 H   0  0  0  0  0  0
    7.1353    0.6484  -21.7294 H   0  0  0  0  0  0
   -2.8419    3.6807  -28.4638 H   0  0  0  0  0  0
    5.7610   10.7000  -24.1450 O   0  0  0  0  0  0
    5.0020    7.2160  -21.7210 N   0  0  1  0  0  0
    5.0600    9.9280  -23.1920 N   0  0  0  0  0  0
    5.6320    8.5040  -21.2600 C   0  0  0  0  0  0
    3.5960    7.3440  -22.2460 C   0  0  0  0  0  0
    5.9750    9.4150  -22.4260 C   0  0  0  0  0  0
    8.6090    9.4310  -22.2010 C   0  0  0  0  0  0
    7.0590   10.5850  -23.8690 C   0  0  0  0  0  0
    7.2780    9.8070  -22.8190 C   0  0  0  0  0  0
    5.5922    6.7908  -22.5193 H   0  0  0  0  0  0
    6.5454    8.2819  -20.6887 H   0  0  0  0  0  0
    4.9433    9.0258  -20.5793 H   0  0  0  0  0  0
    3.5770    8.0786  -23.0645 H   0  0  0  0  0  0
    2.9386    7.7162  -21.4465 H   0  0  0  0  0  0
    9.4240    9.9140  -22.7600 H   0  0  0  0  0  0
    8.6350    9.7658  -21.1535 H   0  0  0  0  0  0
    8.7360    8.3390  -22.2390 H   0  0  0  0  0  0
    7.8975   11.0417  -24.3927 H   0  0  0  0  0  0
  1  2  2  0  0  0
  1  3  1  0  0  0
  1 34  1  0  0  0
  2  6  1  0  0  0
  2 35  1  0  0  0
  3  5  2  0  0  0
  3 27  1  0  0  0
  4  5  1  0  0  0
  4  6  2  0  0  0
  4 18  1  0  0  0
  5 24  1  0  0  0
  6 10  1  0  0  0
  7 10  2  0  0  0
  7 23  1  0  0  0
  7 33  1  0  0  0
  8 21  1  0  0  0
  8 22  1  0  0  0
  8 36  1  0  0  0
  8 37  1  0  0  0
  9 21  1  0  0  0
  9 31  1  0  0  0
  9 38  1  0  0  0
  9 39  1  0  0  0
 10 40  1  0  0  0
 11 12  1  0  0  0
 11 14  2  0  0  0
 11 15  1  0  0  0
 12 17  1  0  0  0
 12 28  2  0  0  0
 13 28  1  0  0  0
 13 29  2  0  0  0
 13 56  1  0  0  0
 14 29  1  0  0  0
 14 31  1  0  0  0
 15 30  2  0  0  0
 15 41  1  0  0  0
 16 17  2  0  0  0
 16 18  1  0  0  0
 16 30  1  0  0  0
 17 26  1  0  0  0
 18 23  2  0  0  0
 19 20  1  0  0  0
 19 31  1  0  0  0
 19 42  1  0  0  0
 19 43  1  0  0  0
 20 22  1  0  0  0
 20 32  1  0  0  0
 20 44  1  0  0  0
 21 32  1  0  0  0
 21 45  1  0  0  0
 22 46  1  0  0  0
 22 47  1  0  0  0
 23 48  1  0  0  0
 24 25  3  0  0  0
 25 49  1  0  0  0
 32 50  1  0  0  0
 33 51  1  0  0  0
 52 54  1  0  0  0
 52 59  1  0  0  0
 53 55  1  0  0  0
 53 56  1  0  0  0
 53 61  1  0  0  0
 54 57  2  0  0  0
 55 57  1  0  0  0
 55 62  1  0  0  0
 55 63  1  0  0  0
 56 64  1  0  0  0
 56 65  1  0  0  0
 57 60  1  0  0  0
 58 60  1  0  0  0
 58 66  1  0  0  0
 58 67  1  0  0  0
 58 68  1  0  0  0
 59 60  2  0  0  0
 59 69  1  0  0  0
M  END
> <s_m_entry_id>
275

> <s_m_entry_name>
000000275.1

> <s_m_Source_Path>
/Users/zaksoul/Documents/2

> <s_m_Source_File>
000000275.mol2

> <i_m_Source_File_Index>
1

$$$$
No_0_291
                    3D
 Schrodinger Suite 2022-4.
 69 75  0  0  1  0            999 V2000
   -5.0830    3.3390  -21.9280 C   0  0  0  0  0  0
   -5.3590    3.5030  -23.2640 C   0  0  0  0  0  0
   -3.8330    3.1500  -21.5860 C   0  0  0  0  0  0
   -2.9510    3.3010  -23.7540 C   0  0  0  0  0  0
   -2.7770    3.0770  -22.3310 C   0  0  0  0  0  0
   -4.3100    3.4930  -24.2750 C   0  0  0  0  0  0
   -3.5590    3.5330  -26.4750 C   0  0  0  0  0  0
    6.1990    3.3230  -21.2140 C   0  0  0  0  0  0
    6.0510    3.4370  -23.7650 C   0  0  0  0  0  0
   -4.5680    3.5960  -25.6120 C   0  0  0  0  0  0
    2.2440    3.7980  -23.7820 C   0  0  0  0  0  0
    1.3700    4.8670  -23.4920 C   0  0  0  0  0  0
    3.1080    6.1560  -22.8240 C   0  0  0  0  0  0
    3.6340    4.0600  -23.4720 C   0  0  0  0  0  0
    1.7530    2.6500  -24.4330 C   0  0  0  0  0  0
   -0.4120    3.3580  -24.3270 C   0  0  0  0  0  0
    0.0550    4.6080  -23.7390 C   0  0  0  0  0  0
   -1.8630    3.2900  -24.6800 C   0  0  0  0  0  0
    4.3620    1.5970  -23.1600 C   0  0  0  0  0  0
    5.3130    1.2980  -22.0120 C   0  0  2  0  0  0
    6.8280    2.9100  -22.5630 C   0  0  2  0  0  0
    5.2460    2.3070  -20.8530 C   0  0  0  0  0  0
   -2.1970    3.4210  -26.1090 C   0  0  0  0  0  0
   -1.4140    2.7350  -21.7310 C   0  0  0  0  0  0
   -0.3670    2.4430  -21.2230 C   0  0  0  0  0  0
   -0.8370    5.6130  -23.4030 F   0  0  0  0  0  0
   -3.6100    2.9290  -20.2020 F   0  0  0  0  0  0
    1.7900    6.0530  -22.9700 N   0  0  0  0  0  0
    4.0500    5.2360  -23.0370 N   0  0  0  0  0  0
    0.4530    2.4930  -24.7360 N   0  0  0  0  0  0
    4.6020    3.0570  -23.6420 N   0  0  0  0  0  0
    6.7140    1.4300  -22.4960 N   0  0  1  0  0  0
   -3.7330    3.5270  -27.8640 O   0  0  0  0  0  0
   -5.8859    3.3681  -21.2003 H   0  0  0  0  0  0
   -6.3820    3.6446  -23.5933 H   0  0  0  0  0  0
    5.6795    4.2854  -21.3320 H   0  0  0  0  0  0
    6.9844    3.3785  -20.4458 H   0  0  0  0  0  0
    6.4666    3.0043  -24.6870 H   0  0  0  0  0  0
    6.1408    4.5325  -23.8074 H   0  0  0  0  0  0
   -5.5866    3.7285  -25.9582 H   0  0  0  0  0  0
    2.4322    1.8515  -24.7089 H   0  0  0  0  0  0
    3.3234    1.4930  -22.8128 H   0  0  0  0  0  0
    4.5578    0.9017  -23.9896 H   0  0  0  0  0  0
    5.1395    0.2794  -21.6348 H   0  0  0  0  0  0
    7.8822    3.2200  -22.6135 H   0  0  0  0  0  0
    4.2396    2.7491  -20.8126 H   0  0  0  0  0  0
    5.5719    1.8167  -19.9238 H   0  0  0  0  0  0
   -1.4280    3.4320  -26.8729 H   0  0  0  0  0  0
    0.5550    2.1860  -20.7770 H   0  0  0  0  0  0
    7.3855    0.9702  -21.7860 H   0  0  0  0  0  0
   -2.8850    3.4775  -28.2895 H   0  0  0  0  0  0
    4.8180   11.2040  -24.4960 O   0  0  0  0  0  0
    5.1000    7.5470  -22.2290 N   0  0  1  0  0  0
    4.4790   10.3100  -23.4570 N   0  0  0  0  0  0
    5.6870    8.8820  -21.8490 C   0  0  0  0  0  0
    3.6010    7.5250  -22.3680 C   0  0  0  0  0  0
    5.6120    9.8800  -22.9910 C   0  0  0  0  0  0
    8.1950   10.2100  -23.4450 C   0  0  0  0  0  0
    6.1480   11.2390  -24.5700 C   0  0  0  0  0  0
    6.7160   10.4470  -23.6730 C   0  0  0  0  0  0
    5.5019    7.2351  -23.1817 H   0  0  0  0  0  0
    6.7365    8.7479  -21.5479 H   0  0  0  0  0  0
    5.1491    9.2829  -20.9772 H   0  0  0  0  0  0
    3.2889    8.2882  -23.0962 H   0  0  0  0  0  0
    3.1401    7.7759  -21.4012 H   0  0  0  0  0  0
    8.7780   10.8150  -24.1550 H   0  0  0  0  0  0
    8.4588   10.4978  -22.4166 H   0  0  0  0  0  0
    8.4250    9.1451  -23.5970 H   0  0  0  0  0  0
    6.7653   11.8192  -25.2543 H   0  0  0  0  0  0
  1  2  2  0  0  0
  1  3  1  0  0  0
  1 34  1  0  0  0
  2  6  1  0  0  0
  2 35  1  0  0  0
  3  5  2  0  0  0
  3 27  1  0  0  0
  4  5  1  0  0  0
  4  6  2  0  0  0
  4 18  1  0  0  0
  5 24  1  0  0  0
  6 10  1  0  0  0
  7 10  2  0  0  0
  7 23  1  0  0  0
  7 33  1  0  0  0
  8 21  1  0  0  0
  8 22  1  0  0  0
  8 36  1  0  0  0
  8 37  1  0  0  0
  9 21  1  0  0  0
  9 31  1  0  0  0
  9 38  1  0  0  0
  9 39  1  0  0  0
 10 40  1  0  0  0
 11 12  1  0  0  0
 11 14  2  0  0  0
 11 15  1  0  0  0
 12 17  1  0  0  0
 12 28  2  0  0  0
 13 28  1  0  0  0
 13 29  2  0  0  0
 13 56  1  0  0  0
 14 29  1  0  0  0
 14 31  1  0  0  0
 15 30  2  0  0  0
 15 41  1  0  0  0
 16 17  2  0  0  0
 16 18  1  0  0  0
 16 30  1  0  0  0
 17 26  1  0  0  0
 18 23  2  0  0  0
 19 20  1  0  0  0
 19 31  1  0  0  0
 19 42  1  0  0  0
 19 43  1  0  0  0
 20 22  1  0  0  0
 20 32  1  0  0  0
 20 44  1  0  0  0
 21 32  1  0  0  0
 21 45  1  0  0  0
 22 46  1  0  0  0
 22 47  1  0  0  0
 23 48  1  0  0  0
 24 25  3  0  0  0
 25 49  1  0  0  0
 32 50  1  0  0  0
 33 51  1  0  0  0
 52 54  1  0  0  0
 52 59  1  0  0  0
 53 55  1  0  0  0
 53 56  1  0  0  0
 53 61  1  0  0  0
 54 57  2  0  0  0
 55 57  1  0  0  0
 55 62  1  0  0  0
 55 63  1  0  0  0
 56 64  1  0  0  0
 56 65  1  0  0  0
 57 60  1  0  0  0
 58 60  1  0  0  0
 58 66  1  0  0  0
 58 67  1  0  0  0
 58 68  1  0  0  0
 59 60  2  0  0  0
 59 69  1  0  0  0
M  END
> <s_m_entry_id>
276

> <s_m_entry_name>
000000276.1

> <s_m_Source_Path>
/Users/zaksoul/Documents/2

> <s_m_Source_File>
000000276.mol2

> <i_m_Source_File_Index>
1

$$$$
No_0_292
                    3D
 Schrodinger Suite 2022-4.
 73 79  0  0  1  0            999 V2000
   -4.9770    3.1210  -21.8380 C   0  0  0  0  0  0
   -5.2790    3.2790  -23.1690 C   0  0  0  0  0  0
   -3.7260    2.8990  -21.5220 C   0  0  0  0  0  0
   -2.8900    3.0010  -23.7110 C   0  0  0  0  0  0
   -2.6900    2.7870  -22.2910 C   0  0  0  0  0  0
   -4.2540    3.2270  -24.2040 C   0  0  0  0  0  0
   -3.5530    3.2220  -26.4200 C   0  0  0  0  0  0
    6.3130    2.7800  -21.3820 C   0  0  0  0  0  0
    6.1100    2.8710  -23.9290 C   0  0  0  0  0  0
   -4.5400    3.3240  -25.5350 C   0  0  0  0  0  0
    2.3160    3.3440  -23.8640 C   0  0  0  0  0  0
    1.4800    4.4420  -23.5650 C   0  0  0  0  0  0
    3.2700    5.6850  -22.9520 C   0  0  0  0  0  0
    3.7190    3.5680  -23.5890 C   0  0  0  0  0  0
    1.7760    2.2040  -24.4910 C   0  0  0  0  0  0
   -0.3640    2.9770  -24.3430 C   0  0  0  0  0  0
    0.1530    4.2190  -23.7800 C   0  0  0  0  0  0
   -1.8250    2.9480  -24.6620 C   0  0  0  0  0  0
    4.3820    1.0890  -23.2650 C   0  0  0  0  0  0
    5.3500    0.7740  -22.1350 C   0  0  2  0  0  0
    6.8980    2.3350  -22.7390 C   0  0  2  0  0  0
    5.3400    1.7960  -20.9870 C   0  0  0  0  0  0
   -2.1880    3.0740  -26.0840 C   0  0  0  0  0  0
   -1.3240    2.4120  -21.7180 C   0  0  0  0  0  0
   -0.2740    2.0950  -21.2310 C   0  0  0  0  0  0
   -0.7020    5.2540  -23.4350 F   0  0  0  0  0  0
   -3.4770    2.6870  -20.1420 F   0  0  0  0  0  0
    1.9460    5.6200  -23.0670 N   0  0  0  0  0  0
    4.1800    4.7370  -23.1760 N   0  0  0  0  0  0
    0.4650    2.0830  -24.7620 N   0  0  0  0  0  0
    4.6540    2.5350  -23.7690 N   0  0  0  0  0  0
    6.7430    0.8590  -22.6530 N   0  0  1  0  0  0
   -3.7600    3.2070  -27.8050 O   0  0  0  0  0  0
   -5.7621    3.1822  -21.0931 H   0  0  0  0  0  0
   -6.3048    3.4476  -23.4761 H   0  0  0  0  0  0
    5.8198    3.7564  -21.4980 H   0  0  0  0  0  0
    7.1170    2.8214  -20.6324 H   0  0  0  0  0  0
    6.4906    2.4167  -24.8557 H   0  0  0  0  0  0
    6.2301    3.9630  -23.9855 H   0  0  0  0  0  0
   -5.5622    3.4825  -25.8590 H   0  0  0  0  0  0
    2.4253    1.3831  -24.7730 H   0  0  0  0  0  0
    3.3490    1.0184  -22.8937 H   0  0  0  0  0  0
    4.5374    0.3786  -24.0904 H   0  0  0  0  0  0
    5.1552   -0.2353  -21.7434 H   0  0  0  0  0  0
    7.9596    2.6125  -22.8167 H   0  0  0  0  0  0
    4.3482    2.2682  -20.9285 H   0  0  0  0  0  0
    5.6732    1.3063  -20.0601 H   0  0  0  0  0  0
   -1.4368    3.0549  -26.8653 H   0  0  0  0  0  0
    0.6496    1.8151  -20.8022 H   0  0  0  0  0  0
    7.4176    0.3875  -21.9538 H   0  0  0  0  0  0
   -2.9241    3.1269  -28.2492 H   0  0  0  0  0  0
    6.0650    6.5710  -19.0110 Cl  0  0  0  0  0  0
    3.5160    7.3310  -21.0740 N   0  0  1  0  0  0
    7.5180    9.4060  -21.2490 N   0  0  0  0  0  0
    6.2000    9.6730  -21.4000 N   0  0  0  0  0  0
    4.0430    8.6450  -20.5540 C   0  0  0  0  0  0
    5.5570    8.7360  -20.6550 C   0  0  0  0  0  0
    3.8130    7.0440  -22.5230 C   0  0  0  0  0  0
    6.4250    7.9160  -20.0520 C   0  0  0  0  0  0
    5.6620   10.7610  -22.2240 C   0  0  0  0  0  0
    9.0380    7.8120  -20.0920 C   0  0  0  0  0  0
    7.6830    8.3750  -20.4600 C   0  0  0  0  0  0
    3.9481    6.5198  -20.5069 H   0  0  0  0  0  0
    3.7380    8.7730  -19.5049 H   0  0  0  0  0  0
    3.5888    9.4714  -21.1203 H   0  0  0  0  0  0
    4.9005    7.0710  -22.6859 H   0  0  0  0  0  0
    3.3689    7.8311  -23.1501 H   0  0  0  0  0  0
    4.5633   10.7530  -22.1710 H   0  0  0  0  0  0
    6.0403   11.7248  -21.8527 H   0  0  0  0  0  0
    5.9790   10.6210  -23.2680 H   0  0  0  0  0  0
    8.9071    6.9515  -19.4194 H   0  0  0  0  0  0
    9.5615    7.4887  -21.0038 H   0  0  0  0  0  0
    9.6313    8.5864  -19.5837 H   0  0  0  0  0  0
  1  2  2  0  0  0
  1  3  1  0  0  0
  1 34  1  0  0  0
  2  6  1  0  0  0
  2 35  1  0  0  0
  3  5  2  0  0  0
  3 27  1  0  0  0
  4  5  1  0  0  0
  4  6  2  0  0  0
  4 18  1  0  0  0
  5 24  1  0  0  0
  6 10  1  0  0  0
  7 10  2  0  0  0
  7 23  1  0  0  0
  7 33  1  0  0  0
  8 21  1  0  0  0
  8 22  1  0  0  0
  8 36  1  0  0  0
  8 37  1  0  0  0
  9 21  1  0  0  0
  9 31  1  0  0  0
  9 38  1  0  0  0
  9 39  1  0  0  0
 10 40  1  0  0  0
 11 12  1  0  0  0
 11 14  2  0  0  0
 11 15  1  0  0  0
 12 17  1  0  0  0
 12 28  2  0  0  0
 13 28  1  0  0  0
 13 29  2  0  0  0
 13 58  1  0  0  0
 14 29  1  0  0  0
 14 31  1  0  0  0
 15 30  2  0  0  0
 15 41  1  0  0  0
 16 17  2  0  0  0
 16 18  1  0  0  0
 16 30  1  0  0  0
 17 26  1  0  0  0
 18 23  2  0  0  0
 19 20  1  0  0  0
 19 31  1  0  0  0
 19 42  1  0  0  0
 19 43  1  0  0  0
 20 22  1  0  0  0
 20 32  1  0  0  0
 20 44  1  0  0  0
 21 32  1  0  0  0
 21 45  1  0  0  0
 22 46  1  0  0  0
 22 47  1  0  0  0
 23 48  1  0  0  0
 24 25  3  0  0  0
 25 49  1  0  0  0
 32 50  1  0  0  0
 33 51  1  0  0  0
 52 59  1  0  0  0
 53 56  1  0  0  0
 53 58  1  0  0  0
 53 63  1  0  0  0
 54 55  1  0  0  0
 54 62  2  0  0  0
 55 57  1  0  0  0
 55 60  1  0  0  0
 56 57  1  0  0  0
 56 64  1  0  0  0
 56 65  1  0  0  0
 57 59  2  0  0  0
 58 66  1  0  0  0
 58 67  1  0  0  0
 59 62  1  0  0  0
 60 68  1  0  0  0
 60 69  1  0  0  0
 60 70  1  0  0  0
 61 62  1  0  0  0
 61 71  1  0  0  0
 61 72  1  0  0  0
 61 73  1  0  0  0
M  END
> <s_m_entry_id>
277

> <s_m_entry_name>
000000277.1

> <s_m_Source_Path>
/Users/zaksoul/Documents/2

> <s_m_Source_File>
000000277.mol2

> <i_m_Source_File_Index>
1

$$$$
No_0_293
                    3D
 Schrodinger Suite 2022-4.
 73 79  0  0  1  0            999 V2000
   -5.1280    3.2900  -22.0890 C   0  0  0  0  0  0
   -5.3910    3.4770  -23.4250 C   0  0  0  0  0  0
   -3.8840    3.0780  -21.7400 C   0  0  0  0  0  0
   -2.9820    3.2480  -23.8990 C   0  0  0  0  0  0
   -2.8230    3.0010  -22.4790 C   0  0  0  0  0  0
   -4.3350    3.4660  -24.4280 C   0  0  0  0  0  0
   -3.5660    3.5260  -26.6210 C   0  0  0  0  0  0
    6.1470    3.1000  -21.2910 C   0  0  0  0  0  0
    6.0210    3.2520  -23.8400 C   0  0  0  0  0  0
   -4.5810    3.5920  -25.7640 C   0  0  0  0  0  0
    2.2190    3.6690  -23.8810 C   0  0  0  0  0  0
    1.3580    4.7460  -23.5820 C   0  0  0  0  0  0
    3.1090    6.0000  -22.8830 C   0  0  0  0  0  0
    3.6100    3.9060  -23.5570 C   0  0  0  0  0  0
    1.7170    2.5370  -24.5520 C   0  0  0  0  0  0
   -0.4380    3.2750  -24.4520 C   0  0  0  0  0  0
    0.0420    4.5100  -23.8430 C   0  0  0  0  0  0
   -1.8880    3.2330  -24.8170 C   0  0  0  0  0  0
    4.3000    1.4290  -23.2740 C   0  0  0  0  0  0
    5.2380    1.0990  -22.1230 C   0  0  2  0  0  0
    6.7800    2.6970  -22.6400 C   0  0  2  0  0  0
    5.1770    2.0930  -20.9510 C   0  0  0  0  0  0
   -2.2090    3.3890  -26.2460 C   0  0  0  0  0  0
   -1.4690    2.6310  -21.8730 C   0  0  0  0  0  0
   -0.4310    2.3160  -21.3620 C   0  0  0  0  0  0
   -0.8380    5.5230  -23.4990 F   0  0  0  0  0  0
   -3.6740    2.8360  -20.3580 F   0  0  0  0  0  0
    1.7910    5.9180  -23.0410 N   0  0  0  0  0  0
    4.0400    5.0700  -23.1020 N   0  0  0  0  0  0
    0.4160    2.4040  -24.8670 N   0  0  0  0  0  0
    4.5650    2.8910  -23.7330 N   0  0  0  0  0  0
    6.6440    1.2180  -22.5950 N   0  0  1  0  0  0
   -3.7290    3.5430  -28.0110 O   0  0  0  0  0  0
   -5.9361    3.3211  -21.3672 H   0  0  0  0  0  0
   -6.4095    3.6386  -23.7591 H   0  0  0  0  0  0
    5.6425    4.0716  -21.3979 H   0  0  0  0  0  0
    6.9270    3.1333  -20.5161 H   0  0  0  0  0  0
    6.4367    2.8262  -24.7652 H   0  0  0  0  0  0
    6.1259    4.3467  -23.8662 H   0  0  0  0  0  0
   -5.5947    3.7446  -26.1163 H   0  0  0  0  0  0
    2.3863    1.7323  -24.8340 H   0  0  0  0  0  0
    3.2573    1.3341  -22.9368 H   0  0  0  0  0  0
    4.4917    0.7419  -24.1114 H   0  0  0  0  0  0
    5.0463    0.0778  -21.7618 H   0  0  0  0  0  0
    7.8391    2.9918  -22.6784 H   0  0  0  0  0  0
    4.1768    2.5492  -20.9116 H   0  0  0  0  0  0
    5.4888    1.5845  -20.0268 H   0  0  0  0  0  0
   -1.4341    3.4000  -27.0039 H   0  0  0  0  0  0
    0.4831    2.0393  -20.9114 H   0  0  0  0  0  0
    7.3039    0.7388  -21.8870 H   0  0  0  0  0  0
   -2.8790    3.4866  -28.4315 H   0  0  0  0  0  0
    6.5750    6.7520  -19.4840 Cl  0  0  0  0  0  0
    3.6040    7.4570  -20.9000 N   0  0  1  0  0  0
    7.3050    9.9410  -21.5950 N   0  0  0  0  0  0
    5.9670   10.0840  -21.4520 N   0  0  0  0  0  0
    4.1190    8.7560  -20.3360 C   0  0  0  0  0  0
    5.5680    9.0140  -20.7170 C   0  0  0  0  0  0
    3.6190    7.3550  -22.4040 C   0  0  0  0  0  0
    6.6040    8.2290  -20.4010 C   0  0  0  0  0  0
    5.1860   11.1910  -22.0160 C   0  0  0  0  0  0
    9.1530    8.4000  -20.9610 C   0  0  0  0  0  0
    7.7110    8.8550  -20.9860 C   0  0  0  0  0  0
    4.2060    6.6389  -20.5330 H   0  0  0  0  0  0
    4.0270    8.7410  -19.2400 H   0  0  0  0  0  0
    3.4931    9.5859  -20.6959 H   0  0  0  0  0  0
    4.6441    7.5110  -22.7711 H   0  0  0  0  0  0
    2.9939    8.1531  -22.8310 H   0  0  0  0  0  0
    4.1262   11.0640  -21.7501 H   0  0  0  0  0  0
    5.5541   12.1443  -21.6089 H   0  0  0  0  0  0
    5.2910   11.1940  -23.1110 H   0  0  0  0  0  0
    9.2330    7.4646  -20.3878 H   0  0  0  0  0  0
    9.5020    8.2290  -21.9900 H   0  0  0  0  0  0
    9.7742    9.1742  -20.4869 H   0  0  0  0  0  0
  1  2  2  0  0  0
  1  3  1  0  0  0
  1 34  1  0  0  0
  2  6  1  0  0  0
  2 35  1  0  0  0
  3  5  2  0  0  0
  3 27  1  0  0  0
  4  5  1  0  0  0
  4  6  2  0  0  0
  4 18  1  0  0  0
  5 24  1  0  0  0
  6 10  1  0  0  0
  7 10  2  0  0  0
  7 23  1  0  0  0
  7 33  1  0  0  0
  8 21  1  0  0  0
  8 22  1  0  0  0
  8 36  1  0  0  0
  8 37  1  0  0  0
  9 21  1  0  0  0
  9 31  1  0  0  0
  9 38  1  0  0  0
  9 39  1  0  0  0
 10 40  1  0  0  0
 11 12  1  0  0  0
 11 14  2  0  0  0
 11 15  1  0  0  0
 12 17  1  0  0  0
 12 28  2  0  0  0
 13 28  1  0  0  0
 13 29  2  0  0  0
 13 58  1  0  0  0
 14 29  1  0  0  0
 14 31  1  0  0  0
 15 30  2  0  0  0
 15 41  1  0  0  0
 16 17  2  0  0  0
 16 18  1  0  0  0
 16 30  1  0  0  0
 17 26  1  0  0  0
 18 23  2  0  0  0
 19 20  1  0  0  0
 19 31  1  0  0  0
 19 42  1  0  0  0
 19 43  1  0  0  0
 20 22  1  0  0  0
 20 32  1  0  0  0
 20 44  1  0  0  0
 21 32  1  0  0  0
 21 45  1  0  0  0
 22 46  1  0  0  0
 22 47  1  0  0  0
 23 48  1  0  0  0
 24 25  3  0  0  0
 25 49  1  0  0  0
 32 50  1  0  0  0
 33 51  1  0  0  0
 52 59  1  0  0  0
 53 56  1  0  0  0
 53 58  1  0  0  0
 53 63  1  0  0  0
 54 55  1  0  0  0
 54 62  2  0  0  0
 55 57  1  0  0  0
 55 60  1  0  0  0
 56 57  1  0  0  0
 56 64  1  0  0  0
 56 65  1  0  0  0
 57 59  2  0  0  0
 58 66  1  0  0  0
 58 67  1  0  0  0
 59 62  1  0  0  0
 60 68  1  0  0  0
 60 69  1  0  0  0
 60 70  1  0  0  0
 61 62  1  0  0  0
 61 71  1  0  0  0
 61 72  1  0  0  0
 61 73  1  0  0  0
M  END
> <s_m_entry_id>
278

> <s_m_entry_name>
000000278.1

> <s_m_Source_Path>
/Users/zaksoul/Documents/2

> <s_m_Source_File>
000000278.mol2

> <i_m_Source_File_Index>
1

$$$$
No_0_294
                    3D
 Schrodinger Suite 2022-4.
 69 75  0  0  1  0            999 V2000
   -5.4340    3.4380  -22.2280 C   0  0  0  0  0  0
   -5.6730    3.6010  -23.5720 C   0  0  0  0  0  0
   -4.2000    3.2080  -21.8560 C   0  0  0  0  0  0
   -3.2630    3.3120  -24.0040 C   0  0  0  0  0  0
   -3.1300    3.0930  -22.5760 C   0  0  0  0  0  0
   -4.6020    3.5460  -24.5580 C   0  0  0  0  0  0
   -3.7990    3.5430  -26.7400 C   0  0  0  0  0  0
    5.8210    3.0350  -21.2520 C   0  0  0  0  0  0
    5.7360    3.1340  -23.8050 C   0  0  0  0  0  0
   -4.8260    3.6480  -25.9010 C   0  0  0  0  0  0
    1.9460    3.6270  -23.9150 C   0  0  0  0  0  0
    1.1030    4.7280  -23.6520 C   0  0  0  0  0  0
    2.8680    5.9600  -22.9530 C   0  0  0  0  0  0
    3.3360    3.8430  -23.5740 C   0  0  0  0  0  0
    1.4300    2.4910  -24.5690 C   0  0  0  0  0  0
   -0.7110    3.2750  -24.5180 C   0  0  0  0  0  0
   -0.2150    4.5130  -23.9280 C   0  0  0  0  0  0
   -2.1560    3.2550  -24.9040 C   0  0  0  0  0  0
    3.9700    1.3590  -23.2270 C   0  0  0  0  0  0
    4.8830    1.0350  -22.0550 C   0  0  2  0  0  0
    6.4660    2.5900  -22.5820 C   0  0  2  0  0  0
    4.8250    2.0550  -20.9050 C   0  0  0  0  0  0
   -2.4520    3.3860  -26.3410 C   0  0  0  0  0  0
   -1.7940    2.7090  -21.9420 C   0  0  0  0  0  0
   -0.7700    2.3840  -21.4080 C   0  0  0  0  0  0
   -1.0780    5.5510  -23.6200 F   0  0  0  0  0  0
   -4.0170    2.9910  -20.4660 F   0  0  0  0  0  0
    1.5520    5.9020  -23.1290 N   0  0  0  0  0  0
    3.7830    5.0070  -23.1370 N   0  0  0  0  0  0
    0.1320    2.3780  -24.9010 N   0  0  0  0  0  0
    4.2720    2.8050  -23.7140 N   0  0  0  0  0  0
    6.2990    1.1150  -22.5070 N   0  0  1  0  0  0
   -3.9420    3.5320  -28.1330 O   0  0  0  0  0  0
   -6.2529    3.5012  -21.5205 H   0  0  0  0  0  0
   -6.6828    3.7757  -23.9253 H   0  0  0  0  0  0
    5.3385    4.0141  -21.3883 H   0  0  0  0  0  0
    6.5893    3.0693  -20.4655 H   0  0  0  0  0  0
    6.1568    2.6799  -24.7142 H   0  0  0  0  0  0
    5.8642    4.2254  -23.8535 H   0  0  0  0  0  0
   -5.8310    3.8126  -26.2725 H   0  0  0  0  0  0
    2.0866    1.6667  -24.8230 H   0  0  0  0  0  0
    2.9205    1.2934  -22.9041 H   0  0  0  0  0  0
    4.1597    0.6498  -24.0462 H   0  0  0  0  0  0
    4.6649    0.0263  -21.6743 H   0  0  0  0  0  0
    7.5315    2.8617  -22.6103 H   0  0  0  0  0  0
    3.8341    2.5323  -20.8909 H   0  0  0  0  0  0
    5.1127    1.5613  -19.9651 H   0  0  0  0  0  0
   -1.6653    3.3649  -27.0865 H   0  0  0  0  0  0
    0.1318    2.0991  -20.9381 H   0  0  0  0  0  0
    6.9377    0.6379  -21.7784 H   0  0  0  0  0  0
   -3.0870    3.4489  -28.5387 H   0  0  0  0  0  0
    4.4440   10.0520  -22.7960 F   0  0  0  0  0  0
    4.0340    7.2040  -21.1320 N   0  0  1  0  0  0
    6.7110    9.0660  -20.1560 N   0  0  0  0  0  0
    3.3990    7.3150  -22.4950 C   0  0  0  0  0  0
    4.3420    8.5090  -20.4400 C   0  0  0  0  0  0
    5.6080    9.2030  -20.9180 C   0  0  0  0  0  0
    5.5710    9.9480  -22.0780 C   0  0  0  0  0  0
    6.7080   10.5930  -22.4920 C   0  0  0  0  0  0
    7.8080    9.7150  -20.5930 C   0  0  0  0  0  0
    7.8430   10.4750  -21.7360 C   0  0  0  0  0  0
    3.3755    6.6606  -20.4705 H   0  0  0  0  0  0
    4.1432    7.6801  -23.2182 H   0  0  0  0  0  0
    2.5710    8.0380  -22.4550 H   0  0  0  0  0  0
    4.4070    8.3390  -19.3552 H   0  0  0  0  0  0
    3.4872    9.1919  -20.5540 H   0  0  0  0  0  0
    6.6960   11.1808  -23.4027 H   0  0  0  0  0  0
    8.7329    9.6540  -20.0310 H   0  0  0  0  0  0
    8.7529   10.9779  -22.0430 H   0  0  0  0  0  0
  1  2  2  0  0  0
  1  3  1  0  0  0
  1 34  1  0  0  0
  2  6  1  0  0  0
  2 35  1  0  0  0
  3  5  2  0  0  0
  3 27  1  0  0  0
  4  5  1  0  0  0
  4  6  2  0  0  0
  4 18  1  0  0  0
  5 24  1  0  0  0
  6 10  1  0  0  0
  7 10  2  0  0  0
  7 23  1  0  0  0
  7 33  1  0  0  0
  8 21  1  0  0  0
  8 22  1  0  0  0
  8 36  1  0  0  0
  8 37  1  0  0  0
  9 21  1  0  0  0
  9 31  1  0  0  0
  9 38  1  0  0  0
  9 39  1  0  0  0
 10 40  1  0  0  0
 11 12  1  0  0  0
 11 14  2  0  0  0
 11 15  1  0  0  0
 12 17  1  0  0  0
 12 28  2  0  0  0
 13 28  1  0  0  0
 13 29  2  0  0  0
 13 55  1  0  0  0
 14 29  1  0  0  0
 14 31  1  0  0  0
 15 30  2  0  0  0
 15 41  1  0  0  0
 16 17  2  0  0  0
 16 18  1  0  0  0
 16 30  1  0  0  0
 17 26  1  0  0  0
 18 23  2  0  0  0
 19 20  1  0  0  0
 19 31  1  0  0  0
 19 42  1  0  0  0
 19 43  1  0  0  0
 20 22  1  0  0  0
 20 32  1  0  0  0
 20 44  1  0  0  0
 21 32  1  0  0  0
 21 45  1  0  0  0
 22 46  1  0  0  0
 22 47  1  0  0  0
 23 48  1  0  0  0
 24 25  3  0  0  0
 25 49  1  0  0  0
 32 50  1  0  0  0
 33 51  1  0  0  0
 52 58  1  0  0  0
 53 55  1  0  0  0
 53 56  1  0  0  0
 53 62  1  0  0  0
 54 57  2  0  0  0
 54 60  1  0  0  0
 55 63  1  0  0  0
 55 64  1  0  0  0
 56 57  1  0  0  0
 56 65  1  0  0  0
 56 66  1  0  0  0
 57 58  1  0  0  0
 58 59  2  0  0  0
 59 61  1  0  0  0
 59 67  1  0  0  0
 60 61  2  0  0  0
 60 68  1  0  0  0
 61 69  1  0  0  0
M  END
> <s_m_entry_id>
279

> <s_m_entry_name>
000000279.1

> <s_m_Source_Path>
/Users/zaksoul/Documents/2

> <s_m_Source_File>
000000279.mol2

> <i_m_Source_File_Index>
1

$$$$
No_0_295
                    3D
 Schrodinger Suite 2022-4.
 71 77  0  0  1  0            999 V2000
   -5.2910    3.4630  -22.0730 C   0  0  0  0  0  0
   -5.5760    3.6260  -23.4080 C   0  0  0  0  0  0
   -4.0420    3.2550  -21.7410 C   0  0  0  0  0  0
   -3.1760    3.3820  -23.9170 C   0  0  0  0  0  0
   -2.9940    3.1610  -22.4950 C   0  0  0  0  0  0
   -4.5360    3.5940  -24.4280 C   0  0  0  0  0  0
   -3.8020    3.6120  -26.6330 C   0  0  0  0  0  0
    5.9940    3.2620  -21.4540 C   0  0  0  0  0  0
    5.8270    3.3670  -24.0030 C   0  0  0  0  0  0
   -4.8030    3.6960  -25.7620 C   0  0  0  0  0  0
    2.0270    3.7910  -23.9910 C   0  0  0  0  0  0
    1.1730    4.8760  -23.6980 C   0  0  0  0  0  0
    2.9370    6.1390  -23.0500 C   0  0  0  0  0  0
    3.4230    4.0320  -23.6940 C   0  0  0  0  0  0
    1.5110    2.6490  -24.6330 C   0  0  0  0  0  0
   -0.6400    3.3940  -24.5120 C   0  0  0  0  0  0
   -0.1480    4.6380  -23.9330 C   0  0  0  0  0  0
   -2.0960    3.3480  -24.8520 C   0  0  0  0  0  0
    4.1130    1.5590  -23.3760 C   0  0  0  0  0  0
    5.0680    1.2480  -22.2340 C   0  0  2  0  0  0
    6.6050    2.8330  -22.8060 C   0  0  2  0  0  0
    5.0280    2.2640  -21.0800 C   0  0  0  0  0  0
   -2.4400    3.4780  -26.2790 C   0  0  0  0  0  0
   -1.6310    2.8000  -21.9040 C   0  0  0  0  0  0
   -0.5850    2.4920  -21.4040 C   0  0  0  0  0  0
   -1.0210    5.6600  -23.5940 F   0  0  0  0  0  0
   -3.8110    3.0370  -20.3580 F   0  0  0  0  0  0
    1.6170    6.0570  -23.1850 N   0  0  0  0  0  0
    3.8630    5.2030  -23.2670 N   0  0  0  0  0  0
    0.2060    2.5130  -24.9240 N   0  0  0  0  0  0
    4.3730    3.0120  -23.8660 N   0  0  0  0  0  0
    6.4670    1.3550  -22.7310 N   0  0  1  0  0  0
   -3.9880    3.6030  -28.0220 O   0  0  0  0  0  0
   -6.0878    3.5092  -21.3395 H   0  0  0  0  0  0
   -6.5992    3.7836  -23.7293 H   0  0  0  0  0  0
    5.4904    4.2329  -21.5711 H   0  0  0  0  0  0
    6.7861    3.3084  -20.6922 H   0  0  0  0  0  0
    6.2274    2.9242  -24.9269 H   0  0  0  0  0  0
    5.9340    4.4607  -24.0514 H   0  0  0  0  0  0
   -5.8220    3.8434  -26.1010 H   0  0  0  0  0  0
    2.1741    1.8374  -24.9099 H   0  0  0  0  0  0
    3.0758    1.4732  -23.0198 H   0  0  0  0  0  0
    4.2896    0.8558  -24.2033 H   0  0  0  0  0  0
    4.8801    0.2340  -21.8512 H   0  0  0  0  0  0
    7.6639    3.1247  -22.8656 H   0  0  0  0  0  0
    4.0292    2.7225  -21.0325 H   0  0  0  0  0  0
    5.3539    1.7717  -20.1519 H   0  0  0  0  0  0
   -1.6770    3.4740  -27.0490 H   0  0  0  0  0  0
    0.3359    2.2210  -20.9640 H   0  0  0  0  0  0
    7.1376    0.8876  -22.0251 H   0  0  0  0  0  0
   -3.1448    3.5367  -28.4545 H   0  0  0  0  0  0
    4.1390    7.4090  -21.2640 N   0  0  1  0  0  0
    5.7050    9.6150  -22.6900 N   0  0  0  0  0  0
    7.3790    8.6900  -19.5350 N   0  0  0  0  0  0
    3.4570    7.5010  -22.6040 C   0  0  0  0  0  0
    4.6550    8.7110  -20.7080 C   0  0  0  0  0  0
    5.9150    9.1800  -21.4320 C   0  0  0  0  0  0
    7.1750    9.1470  -20.8410 C   0  0  0  0  0  0
    8.0670   10.0220  -22.8510 C   0  0  0  0  0  0
    8.2580    9.5750  -21.5750 C   0  0  0  0  0  0
    6.7950   10.0270  -23.3670 C   0  0  0  0  0  0
    3.4461    7.0191  -20.5331 H   0  0  0  0  0  0
    8.3281    8.6820  -19.1350 H   0  0  0  0  0  0
    6.5806    8.3612  -18.9734 H   0  0  0  0  0  0
    4.1679    7.8840  -23.3509 H   0  0  0  0  0  0
    2.6182    8.2098  -22.5400 H   0  0  0  0  0  0
    4.8719    8.5910  -19.6363 H   0  0  0  0  0  0
    3.8746    9.4814  -20.7950 H   0  0  0  0  0  0
    8.9122   10.3641  -23.4372 H   0  0  0  0  0  0
    9.2502    9.5560  -21.1389 H   0  0  0  0  0  0
    6.6960   10.3911  -24.3832 H   0  0  0  0  0  0
  1  2  2  0  0  0
  1  3  1  0  0  0
  1 34  1  0  0  0
  2  6  1  0  0  0
  2 35  1  0  0  0
  3  5  2  0  0  0
  3 27  1  0  0  0
  4  5  1  0  0  0
  4  6  2  0  0  0
  4 18  1  0  0  0
  5 24  1  0  0  0
  6 10  1  0  0  0
  7 10  2  0  0  0
  7 23  1  0  0  0
  7 33  1  0  0  0
  8 21  1  0  0  0
  8 22  1  0  0  0
  8 36  1  0  0  0
  8 37  1  0  0  0
  9 21  1  0  0  0
  9 31  1  0  0  0
  9 38  1  0  0  0
  9 39  1  0  0  0
 10 40  1  0  0  0
 11 12  1  0  0  0
 11 14  2  0  0  0
 11 15  1  0  0  0
 12 17  1  0  0  0
 12 28  2  0  0  0
 13 28  1  0  0  0
 13 29  2  0  0  0
 13 55  1  0  0  0
 14 29  1  0  0  0
 14 31  1  0  0  0
 15 30  2  0  0  0
 15 41  1  0  0  0
 16 17  2  0  0  0
 16 18  1  0  0  0
 16 30  1  0  0  0
 17 26  1  0  0  0
 18 23  2  0  0  0
 19 20  1  0  0  0
 19 31  1  0  0  0
 19 42  1  0  0  0
 19 43  1  0  0  0
 20 22  1  0  0  0
 20 32  1  0  0  0
 20 44  1  0  0  0
 21 32  1  0  0  0
 21 45  1  0  0  0
 22 46  1  0  0  0
 22 47  1  0  0  0
 23 48  1  0  0  0
 24 25  3  0  0  0
 25 49  1  0  0  0
 32 50  1  0  0  0
 33 51  1  0  0  0
 52 55  1  0  0  0
 52 56  1  0  0  0
 52 62  1  0  0  0
 53 57  2  0  0  0
 53 61  1  0  0  0
 54 58  1  0  0  0
 54 63  1  0  0  0
 54 64  1  0  0  0
 55 65  1  0  0  0
 55 66  1  0  0  0
 56 57  1  0  0  0
 56 67  1  0  0  0
 56 68  1  0  0  0
 57 58  1  0  0  0
 58 60  2  0  0  0
 59 60  1  0  0  0
 59 61  2  0  0  0
 59 69  1  0  0  0
 60 70  1  0  0  0
 61 71  1  0  0  0
M  END
> <s_m_entry_id>
280

> <s_m_entry_name>
000000280.1

> <s_m_Source_Path>
/Users/zaksoul/Documents/2

> <s_m_Source_File>
000000280.mol2

> <i_m_Source_File_Index>
1

$$$$
No_0_296
                    3D
 Schrodinger Suite 2022-4.
 71 77  0  0  1  0            999 V2000
   -5.5220    3.4460  -22.1900 C   0  0  0  0  0  0
   -5.7430    3.6370  -23.5330 C   0  0  0  0  0  0
   -4.2950    3.2010  -21.8070 C   0  0  0  0  0  0
   -3.3300    3.3410  -23.9390 C   0  0  0  0  0  0
   -3.2170    3.0930  -22.5150 C   0  0  0  0  0  0
   -4.6600    3.5950  -24.5060 C   0  0  0  0  0  0
   -3.8290    3.6290  -26.6770 C   0  0  0  0  0  0
    5.7160    2.9510  -21.0770 C   0  0  0  0  0  0
    5.6650    3.1010  -23.6290 C   0  0  0  0  0  0
   -4.8650    3.7250  -25.8490 C   0  0  0  0  0  0
    1.8790    3.6200  -23.7770 C   0  0  0  0  0  0
    1.0400    4.7220  -23.5040 C   0  0  0  0  0  0
    2.8040    5.9290  -22.7580 C   0  0  0  0  0  0
    3.2670    3.8200  -23.4150 C   0  0  0  0  0  0
    1.3650    2.5010  -24.4600 C   0  0  0  0  0  0
   -0.7710    3.2980  -24.4220 C   0  0  0  0  0  0
   -0.2750    4.5200  -23.8010 C   0  0  0  0  0  0
   -2.2110    3.2940  -24.8270 C   0  0  0  0  0  0
    3.8810    1.3260  -23.1090 C   0  0  0  0  0  0
    4.7760    0.9740  -21.9320 C   0  0  2  0  0  0
    6.3750    2.5280  -22.4080 C   0  0  2  0  0  0
    4.7100    1.9710  -20.7630 C   0  0  0  0  0  0
   -2.4870    3.4560  -26.2650 C   0  0  0  0  0  0
   -1.8910    2.6880  -21.8710 C   0  0  0  0  0  0
   -0.8760    2.3460  -21.3310 C   0  0  0  0  0  0
   -1.1360    5.5580  -23.4830 F   0  0  0  0  0  0
   -4.1310    2.9560  -20.4190 F   0  0  0  0  0  0
    1.4900    5.8820  -22.9520 N   0  0  0  0  0  0
    3.7150    4.9730  -22.9500 N   0  0  0  0  0  0
    0.0710    2.4030  -24.8110 N   0  0  0  0  0  0
    4.1980    2.7800  -23.5630 N   0  0  0  0  0  0
    6.1980    1.0530  -22.3650 N   0  0  1  0  0  0
   -3.9530    3.6470  -28.0720 O   0  0  0  0  0  0
   -6.3491    3.5002  -21.4914 H   0  0  0  0  0  0
   -6.7467    3.8257  -23.8963 H   0  0  0  0  0  0
    5.2417    3.9358  -21.2001 H   0  0  0  0  0  0
    6.4749    2.9651  -20.2808 H   0  0  0  0  0  0
    6.0946    2.6623  -24.5417 H   0  0  0  0  0  0
    5.8013    4.1922  -23.6542 H   0  0  0  0  0  0
   -5.8640    3.9035  -26.2301 H   0  0  0  0  0  0
    2.0196    1.6777  -24.7221 H   0  0  0  0  0  0
    2.8271    1.2615  -22.8004 H   0  0  0  0  0  0
    4.0769    0.6324  -23.9400 H   0  0  0  0  0  0
    4.5470   -0.0409  -21.5749 H   0  0  0  0  0  0
    7.4425    2.7934  -22.4171 H   0  0  0  0  0  0
    3.7220    2.4544  -20.7529 H   0  0  0  0  0  0
    4.9816    1.4571  -19.8291 H   0  0  0  0  0  0
   -1.6910    3.4450  -27.0008 H   0  0  0  0  0  0
    0.0177    2.0461  -20.8551 H   0  0  0  0  0  0
    6.8246    0.5579  -21.6379 H   0  0  0  0  0  0
   -3.0931    3.5668  -28.4678 H   0  0  0  0  0  0
    4.2640    7.0880  -21.0930 N   0  0  1  0  0  0
    5.4300    9.5240  -22.5280 N   0  0  0  0  0  0
    7.7110    8.3970  -19.8560 N   0  0  0  0  0  0
    3.3370    7.2700  -22.2670 C   0  0  0  0  0  0
    4.8170    8.3590  -20.5000 C   0  0  0  0  0  0
    5.8940    8.9800  -21.3860 C   0  0  0  0  0  0
    7.2430    8.9690  -21.0430 C   0  0  0  0  0  0
    7.6980   10.0980  -23.0730 C   0  0  0  0  0  0
    8.1470    9.5390  -21.9120 C   0  0  0  0  0  0
    6.3520   10.0720  -23.3440 C   0  0  0  0  0  0
    3.7400    6.5830  -20.2950 H   0  0  0  0  0  0
    8.7180    8.4110  -19.6400 H   0  0  0  0  0  0
    7.0490    7.9630  -19.1970 H   0  0  0  0  0  0
    3.8760    7.7720  -23.0840 H   0  0  0  0  0  0
    2.4944    7.9127  -21.9721 H   0  0  0  0  0  0
    5.2379    8.1461  -19.5063 H   0  0  0  0  0  0
    4.0002    9.0818  -20.3570 H   0  0  0  0  0  0
    8.4003   10.5512  -23.7633 H   0  0  0  0  0  0
    9.2037    9.5400  -21.6701 H   0  0  0  0  0  0
    6.0469   10.5292  -24.2783 H   0  0  0  0  0  0
  1  2  2  0  0  0
  1  3  1  0  0  0
  1 34  1  0  0  0
  2  6  1  0  0  0
  2 35  1  0  0  0
  3  5  2  0  0  0
  3 27  1  0  0  0
  4  5  1  0  0  0
  4  6  2  0  0  0
  4 18  1  0  0  0
  5 24  1  0  0  0
  6 10  1  0  0  0
  7 10  2  0  0  0
  7 23  1  0  0  0
  7 33  1  0  0  0
  8 21  1  0  0  0
  8 22  1  0  0  0
  8 36  1  0  0  0
  8 37  1  0  0  0
  9 21  1  0  0  0
  9 31  1  0  0  0
  9 38  1  0  0  0
  9 39  1  0  0  0
 10 40  1  0  0  0
 11 12  1  0  0  0
 11 14  2  0  0  0
 11 15  1  0  0  0
 12 17  1  0  0  0
 12 28  2  0  0  0
 13 28  1  0  0  0
 13 29  2  0  0  0
 13 55  1  0  0  0
 14 29  1  0  0  0
 14 31  1  0  0  0
 15 30  2  0  0  0
 15 41  1  0  0  0
 16 17  2  0  0  0
 16 18  1  0  0  0
 16 30  1  0  0  0
 17 26  1  0  0  0
 18 23  2  0  0  0
 19 20  1  0  0  0
 19 31  1  0  0  0
 19 42  1  0  0  0
 19 43  1  0  0  0
 20 22  1  0  0  0
 20 32  1  0  0  0
 20 44  1  0  0  0
 21 32  1  0  0  0
 21 45  1  0  0  0
 22 46  1  0  0  0
 22 47  1  0  0  0
 23 48  1  0  0  0
 24 25  3  0  0  0
 25 49  1  0  0  0
 32 50  1  0  0  0
 33 51  1  0  0  0
 52 55  1  0  0  0
 52 56  1  0  0  0
 52 62  1  0  0  0
 53 57  2  0  0  0
 53 61  1  0  0  0
 54 58  1  0  0  0
 54 63  1  0  0  0
 54 64  1  0  0  0
 55 65  1  0  0  0
 55 66  1  0  0  0
 56 57  1  0  0  0
 56 67  1  0  0  0
 56 68  1  0  0  0
 57 58  1  0  0  0
 58 60  2  0  0  0
 59 60  1  0  0  0
 59 61  2  0  0  0
 59 69  1  0  0  0
 60 70  1  0  0  0
 61 71  1  0  0  0
M  END
> <s_m_entry_id>
281

> <s_m_entry_name>
000000281.1

> <s_m_Source_Path>
/Users/zaksoul/Documents/2

> <s_m_Source_File>
000000281.mol2

> <i_m_Source_File_Index>
1

$$$$
No_0_297
                    3D
 Schrodinger Suite 2022-4.
 70 76  0  0  1  0            999 V2000
   -5.1560    3.6230  -21.9500 C   0  0  0  0  0  0
   -5.4090    3.7850  -23.2910 C   0  0  0  0  0  0
   -3.9220    3.3760  -21.5910 C   0  0  0  0  0  0
   -3.0080    3.4580  -23.7500 C   0  0  0  0  0  0
   -2.8620    3.2420  -22.3230 C   0  0  0  0  0  0
   -4.3500    3.7110  -24.2900 C   0  0  0  0  0  0
   -3.5730    3.6880  -26.4800 C   0  0  0  0  0  0
    6.1020    3.0530  -21.1030 C   0  0  0  0  0  0
    5.9890    3.1440  -23.6560 C   0  0  0  0  0  0
   -4.5880    3.8110  -25.6300 C   0  0  0  0  0  0
    2.2050    3.6940  -23.7230 C   0  0  0  0  0  0
    1.3820    4.8090  -23.4540 C   0  0  0  0  0  0
    3.1740    6.0170  -22.7810 C   0  0  0  0  0  0
    3.6020    3.8900  -23.3990 C   0  0  0  0  0  0
    1.6640    2.5640  -24.3670 C   0  0  0  0  0  0
   -0.4630    3.3810  -24.2940 C   0  0  0  0  0  0
    0.0590    4.6130  -23.7150 C   0  0  0  0  0  0
   -1.9120    3.3810  -24.6630 C   0  0  0  0  0  0
    4.2030    1.3980  -23.0510 C   0  0  0  0  0  0
    5.1250    1.0650  -21.8880 C   0  0  2  0  0  0
    6.7240    2.5940  -22.4390 C   0  0  2  0  0  0
    5.0960    2.0900  -20.7420 C   0  0  0  0  0  0
   -2.2230    3.5120  -26.0970 C   0  0  0  0  0  0
   -1.5240    2.8400  -21.7030 C   0  0  0  0  0  0
   -0.4990    2.5020  -21.1800 C   0  0  0  0  0  0
   -0.7860    5.6650  -23.4000 F   0  0  0  0  0  0
   -3.7250    3.1610  -20.2030 F   0  0  0  0  0  0
    1.8550    5.9780  -22.9410 N   0  0  0  0  0  0
    4.0720    5.0500  -22.9720 N   0  0  0  0  0  0
    0.3610    2.4700  -24.6830 N   0  0  0  0  0  0
    4.5210    2.8380  -23.5460 N   0  0  0  0  0  0
    6.5360    1.1220  -22.3580 N   0  0  1  0  0  0
   -3.7320    3.6740  -27.8720 O   0  0  0  0  0  0
   -5.9648    3.7013  -21.2325 H   0  0  0  0  0  0
   -6.4200    3.9738  -23.6334 H   0  0  0  0  0  0
    5.6328    4.0388  -21.2372 H   0  0  0  0  0  0
    6.8801    3.0782  -20.3259 H   0  0  0  0  0  0
    6.3927    2.6807  -24.5684 H   0  0  0  0  0  0
    6.1333    4.2332  -23.7095 H   0  0  0  0  0  0
   -5.5946    3.9896  -25.9903 H   0  0  0  0  0  0
    2.3052    1.7292  -24.6259 H   0  0  0  0  0  0
    3.1567    1.3496  -22.7150 H   0  0  0  0  0  0
    4.3726    0.6832  -23.8697 H   0  0  0  0  0  0
    4.8959    0.0609  -21.5015 H   0  0  0  0  0  0
    7.7932    2.8492  -22.4804 H   0  0  0  0  0  0
    4.1126    2.5822  -20.7178 H   0  0  0  0  0  0
    5.3865    1.5947  -19.8038 H   0  0  0  0  0  0
   -1.4460    3.4759  -26.8520 H   0  0  0  0  0  0
    0.4031    2.2040  -20.7190 H   0  0  0  0  0  0
    7.1762    0.6378  -21.6355 H   0  0  0  0  0  0
   -2.8828    3.5770  -28.2867 H   0  0  0  0  0  0
    5.1390   10.4980  -22.4040 O   0  0  0  0  0  0
    3.7120    7.5010  -20.8330 N   0  0  1  0  0  0
    7.3720   10.1030  -22.0340 N   0  0  0  0  0  0
    5.7140    9.0290  -20.6390 C   0  0  0  0  0  0
    3.7300    7.3650  -22.3340 C   0  0  0  0  0  0
    4.2480    8.8040  -20.2940 C   0  0  0  0  0  0
    8.0090    8.6170  -20.2630 C   0  0  0  0  0  0
    6.6940    8.4010  -19.9270 C   0  0  0  0  0  0
    6.0920    9.8650  -21.6780 C   0  0  0  0  0  0
    8.3060    9.4590  -21.3020 C   0  0  0  0  0  0
    2.6961    7.4189  -20.4757 H   0  0  0  0  0  0
    7.5802   10.7395  -22.8166 H   0  0  0  0  0  0
    4.7619    7.4750  -22.6989 H   0  0  0  0  0  0
    3.1341    8.1739  -22.7819 H   0  0  0  0  0  0
    4.1219    8.8270  -19.2015 H   0  0  0  0  0  0
    3.6471    9.6369  -20.6879 H   0  0  0  0  0  0
    8.7990    8.1240  -19.7080 H   0  0  0  0  0  0
    6.4312    7.7416  -19.1077 H   0  0  0  0  0  0
    9.3581    9.5950  -21.5250 H   0  0  0  0  0  0
  1  2  2  0  0  0
  1  3  1  0  0  0
  1 34  1  0  0  0
  2  6  1  0  0  0
  2 35  1  0  0  0
  3  5  2  0  0  0
  3 27  1  0  0  0
  4  5  1  0  0  0
  4  6  2  0  0  0
  4 18  1  0  0  0
  5 24  1  0  0  0
  6 10  1  0  0  0
  7 10  2  0  0  0
  7 23  1  0  0  0
  7 33  1  0  0  0
  8 21  1  0  0  0
  8 22  1  0  0  0
  8 36  1  0  0  0
  8 37  1  0  0  0
  9 21  1  0  0  0
  9 31  1  0  0  0
  9 38  1  0  0  0
  9 39  1  0  0  0
 10 40  1  0  0  0
 11 12  1  0  0  0
 11 14  2  0  0  0
 11 15  1  0  0  0
 12 17  1  0  0  0
 12 28  2  0  0  0
 13 28  1  0  0  0
 13 29  2  0  0  0
 13 56  1  0  0  0
 14 29  1  0  0  0
 14 31  1  0  0  0
 15 30  2  0  0  0
 15 41  1  0  0  0
 16 17  2  0  0  0
 16 18  1  0  0  0
 16 30  1  0  0  0
 17 26  1  0  0  0
 18 23  2  0  0  0
 19 20  1  0  0  0
 19 31  1  0  0  0
 19 42  1  0  0  0
 19 43  1  0  0  0
 20 22  1  0  0  0
 20 32  1  0  0  0
 20 44  1  0  0  0
 21 32  1  0  0  0
 21 45  1  0  0  0
 22 46  1  0  0  0
 22 47  1  0  0  0
 23 48  1  0  0  0
 24 25  3  0  0  0
 25 49  1  0  0  0
 32 50  1  0  0  0
 33 51  1  0  0  0
 52 60  2  0  0  0
 53 56  1  0  0  0
 53 57  1  0  0  0
 53 62  1  0  0  0
 54 60  1  0  0  0
 54 61  1  0  0  0
 54 63  1  0  0  0
 55 57  1  0  0  0
 55 59  2  0  0  0
 55 60  1  0  0  0
 56 64  1  0  0  0
 56 65  1  0  0  0
 57 66  1  0  0  0
 57 67  1  0  0  0
 58 59  1  0  0  0
 58 61  2  0  0  0
 58 68  1  0  0  0
 59 69  1  0  0  0
 61 70  1  0  0  0
M  END
> <s_m_entry_id>
282

> <s_m_entry_name>
000000282.1

> <s_m_Source_Path>
/Users/zaksoul/Documents/2

> <s_m_Source_File>
000000282.mol2

> <i_m_Source_File_Index>
1

$$$$
No_0_298
                    3D
 Schrodinger Suite 2022-4.
 70 76  0  0  1  0            999 V2000
   -5.3210    3.2450  -22.0620 C   0  0  0  0  0  0
   -5.5650    3.4290  -23.4020 C   0  0  0  0  0  0
   -4.0820    3.0320  -21.6950 C   0  0  0  0  0  0
   -3.1510    3.1950  -23.8420 C   0  0  0  0  0  0
   -3.0120    2.9520  -22.4190 C   0  0  0  0  0  0
   -4.4950    3.4140  -24.3900 C   0  0  0  0  0  0
   -3.6950    3.4680  -26.5720 C   0  0  0  0  0  0
    5.9410    3.0420  -21.1050 C   0  0  0  0  0  0
    5.8510    3.1870  -23.6570 C   0  0  0  0  0  0
   -4.7220    3.5370  -25.7300 C   0  0  0  0  0  0
    2.0510    3.6090  -23.7520 C   0  0  0  0  0  0
    1.1880    4.6880  -23.4680 C   0  0  0  0  0  0
    2.9300    5.9410  -22.7470 C   0  0  0  0  0  0
    3.4370    3.8450  -23.4090 C   0  0  0  0  0  0
    1.5560    2.4760  -24.4270 C   0  0  0  0  0  0
   -0.5990    3.2180  -24.3590 C   0  0  0  0  0  0
   -0.1260    4.4530  -23.7470 C   0  0  0  0  0  0
   -2.0430    3.1770  -24.7440 C   0  0  0  0  0  0
    4.1200    1.3680  -23.1100 C   0  0  0  0  0  0
    5.0410    1.0400  -21.9450 C   0  0  2  0  0  0
    6.5920    2.6340  -22.4450 C   0  0  2  0  0  0
    4.9650    2.0370  -20.7760 C   0  0  0  0  0  0
   -2.3440    3.3290  -26.1780 C   0  0  0  0  0  0
   -1.6670    2.5810  -21.7930 C   0  0  0  0  0  0
   -0.6360    2.2670  -21.2660 C   0  0  0  0  0  0
   -1.0090    5.4690  -23.4170 F   0  0  0  0  0  0
   -3.8930    2.7930  -20.3100 F   0  0  0  0  0  0
    1.6140    5.8610  -22.9230 N   0  0  0  0  0  0
    3.8630    5.0100  -22.9510 N   0  0  0  0  0  0
    0.2600    2.3440  -24.7600 N   0  0  0  0  0  0
    4.3940    2.8290  -23.5690 N   0  0  0  0  0  0
    6.4540    1.1550  -22.3980 N   0  0  1  0  0  0
   -3.8390    3.4810  -27.9650 O   0  0  0  0  0  0
   -6.1389    3.2791  -21.3515 H   0  0  0  0  0  0
   -6.5784    3.5905  -23.7512 H   0  0  0  0  0  0
    5.4394    4.0139  -21.2221 H   0  0  0  0  0  0
    6.7103    3.0763  -20.3195 H   0  0  0  0  0  0
    6.2793    2.7587  -24.5752 H   0  0  0  0  0  0
    5.9579    4.2815  -23.6842 H   0  0  0  0  0  0
   -5.7304    3.6895  -26.0972 H   0  0  0  0  0  0
    2.2284    1.6701  -24.6980 H   0  0  0  0  0  0
    3.0725    1.2762  -22.7871 H   0  0  0  0  0  0
    4.3229    0.6786  -23.9428 H   0  0  0  0  0  0
    4.8423    0.0202  -21.5839 H   0  0  0  0  0  0
    7.6519    2.9275  -22.4682 H   0  0  0  0  0  0
    3.9648    2.4942  -20.7528 H   0  0  0  0  0  0
    5.2628    1.5302  -19.8462 H   0  0  0  0  0  0
   -1.5582    3.3380  -26.9247 H   0  0  0  0  0  0
    0.2716    1.9898  -20.8027 H   0  0  0  0  0  0
    7.1032    0.6770  -21.6793 H   0  0  0  0  0  0
   -2.9829    3.4226  -28.3727 H   0  0  0  0  0  0
    4.4700   10.5720  -22.2410 O   0  0  0  0  0  0
    3.7420    7.2800  -20.7890 N   0  0  1  0  0  0
    6.7580   10.4250  -22.4060 N   0  0  0  0  0  0
    5.5720    9.0190  -20.8360 C   0  0  0  0  0  0
    3.4350    7.2970  -22.2640 C   0  0  0  0  0  0
    4.2520    8.5790  -20.2180 C   0  0  0  0  0  0
    7.9230    8.8620  -21.0100 C   0  0  0  0  0  0
    6.7460    8.4500  -20.4320 C   0  0  0  0  0  0
    5.6210    9.9950  -21.8190 C   0  0  0  0  0  0
    7.8930    9.8330  -21.9760 C   0  0  0  0  0  0
    2.8464    7.0351  -20.2373 H   0  0  0  0  0  0
    6.7190   11.1573  -23.1293 H   0  0  0  0  0  0
    4.3412    7.5711  -22.8241 H   0  0  0  0  0  0
    2.6751    8.0649  -22.4710 H   0  0  0  0  0  0
    4.3740    8.4770  -19.1296 H   0  0  0  0  0  0
    3.4977    9.3653  -20.3691 H   0  0  0  0  0  0
    8.8628    8.4181  -20.7021 H   0  0  0  0  0  0
    6.7420    7.6850  -19.6640 H   0  0  0  0  0  0
    8.8482   10.1221  -22.3991 H   0  0  0  0  0  0
  1  2  2  0  0  0
  1  3  1  0  0  0
  1 34  1  0  0  0
  2  6  1  0  0  0
  2 35  1  0  0  0
  3  5  2  0  0  0
  3 27  1  0  0  0
  4  5  1  0  0  0
  4  6  2  0  0  0
  4 18  1  0  0  0
  5 24  1  0  0  0
  6 10  1  0  0  0
  7 10  2  0  0  0
  7 23  1  0  0  0
  7 33  1  0  0  0
  8 21  1  0  0  0
  8 22  1  0  0  0
  8 36  1  0  0  0
  8 37  1  0  0  0
  9 21  1  0  0  0
  9 31  1  0  0  0
  9 38  1  0  0  0
  9 39  1  0  0  0
 10 40  1  0  0  0
 11 12  1  0  0  0
 11 14  2  0  0  0
 11 15  1  0  0  0
 12 17  1  0  0  0
 12 28  2  0  0  0
 13 28  1  0  0  0
 13 29  2  0  0  0
 13 56  1  0  0  0
 14 29  1  0  0  0
 14 31  1  0  0  0
 15 30  2  0  0  0
 15 41  1  0  0  0
 16 17  2  0  0  0
 16 18  1  0  0  0
 16 30  1  0  0  0
 17 26  1  0  0  0
 18 23  2  0  0  0
 19 20  1  0  0  0
 19 31  1  0  0  0
 19 42  1  0  0  0
 19 43  1  0  0  0
 20 22  1  0  0  0
 20 32  1  0  0  0
 20 44  1  0  0  0
 21 32  1  0  0  0
 21 45  1  0  0  0
 22 46  1  0  0  0
 22 47  1  0  0  0
 23 48  1  0  0  0
 24 25  3  0  0  0
 25 49  1  0  0  0
 32 50  1  0  0  0
 33 51  1  0  0  0
 52 60  2  0  0  0
 53 56  1  0  0  0
 53 57  1  0  0  0
 53 62  1  0  0  0
 54 60  1  0  0  0
 54 61  1  0  0  0
 54 63  1  0  0  0
 55 57  1  0  0  0
 55 59  2  0  0  0
 55 60  1  0  0  0
 56 64  1  0  0  0
 56 65  1  0  0  0
 57 66  1  0  0  0
 57 67  1  0  0  0
 58 59  1  0  0  0
 58 61  2  0  0  0
 58 68  1  0  0  0
 59 69  1  0  0  0
 61 70  1  0  0  0
M  END
> <s_m_entry_id>
283

> <s_m_entry_name>
000000283.1

> <s_m_Source_Path>
/Users/zaksoul/Documents/2

> <s_m_Source_File>
000000283.mol2

> <i_m_Source_File_Index>
1

$$$$
No_0_299
                    3D
 Schrodinger Suite 2022-4.
 77 83  0  0  1  0            999 V2000
   -5.2950    3.4610  -22.0240 C   0  0  0  0  0  0
   -5.5450    3.6310  -23.3650 C   0  0  0  0  0  0
   -4.0570    3.2350  -21.6630 C   0  0  0  0  0  0
   -3.1370    3.3550  -23.8170 C   0  0  0  0  0  0
   -2.9920    3.1290  -22.3920 C   0  0  0  0  0  0
   -4.4820    3.5870  -24.3600 C   0  0  0  0  0  0
   -3.6960    3.6000  -26.5470 C   0  0  0  0  0  0
    5.9690    3.1050  -21.1370 C   0  0  0  0  0  0
    5.8640    3.2180  -23.6900 C   0  0  0  0  0  0
   -4.7160    3.6960  -25.7000 C   0  0  0  0  0  0
    2.0700    3.6940  -23.7660 C   0  0  0  0  0  0
    1.2250    4.7900  -23.4910 C   0  0  0  0  0  0
    2.9900    6.0270  -22.7980 C   0  0  0  0  0  0
    3.4620    3.9150  -23.4350 C   0  0  0  0  0  0
    1.5550    2.5600  -24.4230 C   0  0  0  0  0  0
   -0.5890    3.3340  -24.3510 C   0  0  0  0  0  0
   -0.0940    4.5700  -23.7580 C   0  0  0  0  0  0
   -2.0360    3.3090  -24.7260 C   0  0  0  0  0  0
    4.1110    1.4320  -23.1080 C   0  0  0  0  0  0
    5.0340    1.1060  -21.9450 C   0  0  2  0  0  0
    6.6050    2.6710  -22.4750 C   0  0  2  0  0  0
    4.9810    2.1190  -20.7890 C   0  0  0  0  0  0
   -2.3440    3.4470  -26.1600 C   0  0  0  0  0  0
   -1.6490    2.7480  -21.7700 C   0  0  0  0  0  0
   -0.6200    2.4250  -21.2460 C   0  0  0  0  0  0
   -0.9600    5.6030  -23.4370 F   0  0  0  0  0  0
   -3.8620    3.0110  -20.2750 F   0  0  0  0  0  0
    1.6720    5.9640  -22.9650 N   0  0  0  0  0  0
    3.9070    5.0790  -22.9950 N   0  0  0  0  0  0
    0.2550    2.4430  -24.7460 N   0  0  0  0  0  0
    4.4020    2.8830  -23.5880 N   0  0  0  0  0  0
    6.4460    1.1950  -22.4080 N   0  0  1  0  0  0
   -3.8490    3.5970  -27.9390 O   0  0  0  0  0  0
   -6.1081    3.5162  -21.3093 H   0  0  0  0  0  0
   -6.5585    3.8026  -23.7092 H   0  0  0  0  0  0
    5.4816    4.0829  -21.2642 H   0  0  0  0  0  0
    6.7439    3.1383  -20.3570 H   0  0  0  0  0  0
    6.2802    2.7715  -24.6051 H   0  0  0  0  0  0
    5.9870    4.3103  -23.7324 H   0  0  0  0  0  0
   -5.7248    3.8576  -26.0624 H   0  0  0  0  0  0
    2.2137    1.7406  -24.6871 H   0  0  0  0  0  0
    3.0645    1.3593  -22.7770 H   0  0  0  0  0  0
    4.2977    0.7284  -23.9327 H   0  0  0  0  0  0
    4.8241    0.0939  -21.5686 H   0  0  0  0  0  0
    7.6692    2.9474  -22.5093 H   0  0  0  0  0  0
    3.9879    2.5913  -20.7648 H   0  0  0  0  0  0
    5.2775    1.6208  -19.8542 H   0  0  0  0  0  0
   -1.5631    3.4340  -26.9118 H   0  0  0  0  0  0
    0.2863    2.1412  -20.7843 H   0  0  0  0  0  0
    7.0929    0.7170  -21.6873 H   0  0  0  0  0  0
   -2.9968    3.5208  -28.3518 H   0  0  0  0  0  0
    4.2280    7.2530  -21.0140 N   0  3  0  0  0  0
    4.9280    8.4930  -20.5070 C   0  0  0  0  0  0
    6.0980    9.8800  -22.2820 C   0  0  0  0  0  0
    7.3690    8.2230  -21.1250 C   0  0  0  0  0  0
    3.5170    7.3810  -22.3370 C   0  0  0  0  0  0
    6.1620    8.8740  -21.3300 C   0  0  0  0  0  0
    8.4010    9.5460  -22.8230 C   0  0  0  0  0  0
    7.2130   10.2050  -23.0220 C   0  0  0  0  0  0
    8.4760    8.5610  -21.8700 C   0  0  0  0  0  0
    4.8520   10.7060  -22.5730 C   0  0  0  0  0  0
    7.6050    7.1350  -20.0880 C   0  0  0  0  0  0
    3.5760    6.9310  -20.3160 H   0  0  0  0  0  0
    4.8902    6.4948  -21.0650 H   0  0  0  0  0  0
    5.2212    8.3429  -19.4575 H   0  0  0  0  0  0
    4.2196    9.3345  -20.4990 H   0  0  0  0  0  0
    4.2136    7.7788  -23.0896 H   0  0  0  0  0  0
    2.6789    8.0861  -22.2350 H   0  0  0  0  0  0
    9.2710    9.8060  -23.4150 H   0  0  0  0  0  0
    7.1580   10.9868  -23.7708 H   0  0  0  0  0  0
    9.4160    8.0460  -21.7080 H   0  0  0  0  0  0
    5.0710   11.4319  -23.3699 H   0  0  0  0  0  0
    4.0382   10.0411  -22.8979 H   0  0  0  0  0  0
    4.5459   11.2422  -21.6626 H   0  0  0  0  0  0
    8.6497    6.7951  -20.1430 H   0  0  0  0  0  0
    7.4020    7.5339  -19.0832 H   0  0  0  0  0  0
    6.9342    6.2862  -20.2869 H   0  0  0  0  0  0
  1  2  2  0  0  0
  1  3  1  0  0  0
  1 34  1  0  0  0
  2  6  1  0  0  0
  2 35  1  0  0  0
  3  5  2  0  0  0
  3 27  1  0  0  0
  4  5  1  0  0  0
  4  6  2  0  0  0
  4 18  1  0  0  0
  5 24  1  0  0  0
  6 10  1  0  0  0
  7 10  2  0  0  0
  7 23  1  0  0  0
  7 33  1  0  0  0
  8 21  1  0  0  0
  8 22  1  0  0  0
  8 36  1  0  0  0
  8 37  1  0  0  0
  9 21  1  0  0  0
  9 31  1  0  0  0
  9 38  1  0  0  0
  9 39  1  0  0  0
 10 40  1  0  0  0
 11 12  1  0  0  0
 11 14  2  0  0  0
 11 15  1  0  0  0
 12 17  1  0  0  0
 12 28  2  0  0  0
 13 28  1  0  0  0
 13 29  2  0  0  0
 13 56  1  0  0  0
 14 29  1  0  0  0
 14 31  1  0  0  0
 15 30  2  0  0  0
 15 41  1  0  0  0
 16 17  2  0  0  0
 16 18  1  0  0  0
 16 30  1  0  0  0
 17 26  1  0  0  0
 18 23  2  0  0  0
 19 20  1  0  0  0
 19 31  1  0  0  0
 19 42  1  0  0  0
 19 43  1  0  0  0
 20 22  1  0  0  0
 20 32  1  0  0  0
 20 44  1  0  0  0
 21 32  1  0  0  0
 21 45  1  0  0  0
 22 46  1  0  0  0
 22 47  1  0  0  0
 23 48  1  0  0  0
 24 25  3  0  0  0
 25 49  1  0  0  0
 32 50  1  0  0  0
 33 51  1  0  0  0
 52 53  1  0  0  0
 52 56  1  0  0  0
 52 63  1  0  0  0
 52 64  1  0  0  0
 53 57  1  0  0  0
 53 65  1  0  0  0
 53 66  1  0  0  0
 54 57  2  0  0  0
 54 59  1  0  0  0
 54 61  1  0  0  0
 55 57  1  0  0  0
 55 60  2  0  0  0
 55 62  1  0  0  0
 56 67  1  0  0  0
 56 68  1  0  0  0
 58 59  2  0  0  0
 58 60  1  0  0  0
 58 69  1  0  0  0
 59 70  1  0  0  0
 60 71  1  0  0  0
 61 72  1  0  0  0
 61 73  1  0  0  0
 61 74  1  0  0  0
 62 75  1  0  0  0
 62 76  1  0  0  0
 62 77  1  0  0  0
M  CHG  1  52   1
M  END
> <s_m_entry_id>
284

> <s_m_entry_name>
000000284.1

> <s_m_Source_Path>
/Users/zaksoul/Documents/2

> <s_m_Source_File>
000000284.mol2

> <i_m_Source_File_Index>
1

$$$$
No_0_300
                    3D
 Schrodinger Suite 2022-4.
 72 79  0  0  1  0            999 V2000
   -5.2600    3.2670  -21.9120 C   0  0  0  0  0  0
   -5.5520    3.4350  -23.2450 C   0  0  0  0  0  0
   -4.0130    3.0370  -21.5890 C   0  0  0  0  0  0
   -3.1600    3.1500  -23.7710 C   0  0  0  0  0  0
   -2.9720    2.9250  -22.3510 C   0  0  0  0  0  0
   -4.5200    3.3860  -24.2720 C   0  0  0  0  0  0
   -3.8030    3.3920  -26.4830 C   0  0  0  0  0  0
    6.0240    2.8700  -21.3760 C   0  0  0  0  0  0
    5.8400    2.9790  -23.9240 C   0  0  0  0  0  0
   -4.7960    3.4930  -25.6040 C   0  0  0  0  0  0
    2.0480    3.4690  -23.8830 C   0  0  0  0  0  0
    1.2150    4.5690  -23.5830 C   0  0  0  0  0  0
    3.0060    5.8000  -22.9480 C   0  0  0  0  0  0
    3.4500    3.6850  -23.5960 C   0  0  0  0  0  0
    1.5080    2.3360  -24.5220 C   0  0  0  0  0  0
   -0.6300    3.1180  -24.3850 C   0  0  0  0  0  0
   -0.1120    4.3540  -23.8090 C   0  0  0  0  0  0
   -2.0890    3.0980  -24.7140 C   0  0  0  0  0  0
    4.0990    1.2000  -23.2850 C   0  0  0  0  0  0
    5.0570    0.8730  -22.1510 C   0  0  2  0  0  0
    6.6170    2.4310  -22.7320 C   0  0  2  0  0  0
    5.0430    1.8880  -20.9950 C   0  0  0  0  0  0
   -2.4400    3.2350  -26.1380 C   0  0  0  0  0  0
   -1.6110    2.5400  -21.7700 C   0  0  0  0  0  0
   -0.5670    2.2140  -21.2780 C   0  0  0  0  0  0
   -0.9640    5.3900  -23.4630 F   0  0  0  0  0  0
   -3.7750    2.8140  -20.2080 F   0  0  0  0  0  0
    1.6830    5.7410  -23.0740 N   0  0  0  0  0  0
    3.9130    4.8480  -23.1720 N   0  0  0  0  0  0
    0.1980    2.2230  -24.8040 N   0  0  0  0  0  0
    4.3810    2.6490  -23.7770 N   0  0  0  0  0  0
    6.4540    0.9550  -22.6580 N   0  0  1  0  0  0
   -3.9990    3.3880  -27.8700 O   0  0  0  0  0  0
   -6.0505    3.3262  -21.1726 H   0  0  0  0  0  0
   -6.5748    3.6107  -23.5582 H   0  0  0  0  0  0
    5.5363    3.8495  -21.4891 H   0  0  0  0  0  0
    6.8224    2.9013  -20.6200 H   0  0  0  0  0  0
    6.2256    2.5288  -24.8506 H   0  0  0  0  0  0
    5.9661    4.0707  -23.9724 H   0  0  0  0  0  0
   -5.8148    3.6586  -25.9352 H   0  0  0  0  0  0
    2.1548    1.5135  -24.8052 H   0  0  0  0  0  0
    3.0629    1.1324  -22.9218 H   0  0  0  0  0  0
    4.2574    0.4948  -24.1143 H   0  0  0  0  0  0
    4.8553   -0.1377  -21.7667 H   0  0  0  0  0  0
    7.6805    2.7034  -22.8006 H   0  0  0  0  0  0
    4.0530    2.3643  -20.9405 H   0  0  0  0  0  0
    5.3670    1.3894  -20.0695 H   0  0  0  0  0  0
   -1.6832    3.2179  -26.9139 H   0  0  0  0  0  0
    0.3523    1.9269  -20.8449 H   0  0  0  0  0  0
    7.1211    0.4760  -21.9566 H   0  0  0  0  0  0
   -3.1602    3.3078  -28.3087 H   0  0  0  0  0  0
    3.5760    7.2840  -21.0060 N   0  0  1  0  0  0
    6.7760   10.4180  -22.0590 N   0  0  0  0  0  0
    6.9140    7.6890  -19.7960 N   0  0  0  0  0  0
    8.7600    9.3360  -21.2420 N   0  0  0  0  0  0
    3.8880    8.6630  -20.4840 C   0  0  0  0  0  0
    3.5520    7.1530  -22.5060 C   0  0  0  0  0  0
    6.5370    8.6910  -20.6090 C   0  0  0  0  0  0
    5.2370    9.1740  -20.9580 C   0  0  0  0  0  0
    5.4470   10.1840  -21.8080 C   0  0  0  0  0  0
    7.4270    9.4860  -21.3090 C   0  0  0  0  0  0
    8.2460    7.5380  -19.7290 C   0  0  0  0  0  0
    9.1390    8.3350  -20.4290 C   0  0  0  0  0  0
    4.3199    6.5871  -20.6491 H   0  0  0  0  0  0
    7.0540   11.1740  -22.7010 H   0  0  0  0  0  0
    3.8680    8.6510  -19.3842 H   0  0  0  0  0  0
    3.0996    9.3614  -20.8012 H   0  0  0  0  0  0
    4.5705    7.2829  -22.9008 H   0  0  0  0  0  0
    2.9329    7.9551  -22.9341 H   0  0  0  0  0  0
    4.6895   10.7956  -22.2847 H   0  0  0  0  0  0
    8.6732    6.7616  -19.1047 H   0  0  0  0  0  0
   10.1921    8.1170  -20.2930 H   0  0  0  0  0  0
  1  2  2  0  0  0
  1  3  1  0  0  0
  1 34  1  0  0  0
  2  6  1  0  0  0
  2 35  1  0  0  0
  3  5  2  0  0  0
  3 27  1  0  0  0
  4  5  1  0  0  0
  4  6  2  0  0  0
  4 18  1  0  0  0
  5 24  1  0  0  0
  6 10  1  0  0  0
  7 10  2  0  0  0
  7 23  1  0  0  0
  7 33  1  0  0  0
  8 21  1  0  0  0
  8 22  1  0  0  0
  8 36  1  0  0  0
  8 37  1  0  0  0
  9 21  1  0  0  0
  9 31  1  0  0  0
  9 38  1  0  0  0
  9 39  1  0  0  0
 10 40  1  0  0  0
 11 12  1  0  0  0
 11 14  2  0  0  0
 11 15  1  0  0  0
 12 17  1  0  0  0
 12 28  2  0  0  0
 13 28  1  0  0  0
 13 29  2  0  0  0
 13 57  1  0  0  0
 14 29  1  0  0  0
 14 31  1  0  0  0
 15 30  2  0  0  0
 15 41  1  0  0  0
 16 17  2  0  0  0
 16 18  1  0  0  0
 16 30  1  0  0  0
 17 26  1  0  0  0
 18 23  2  0  0  0
 19 20  1  0  0  0
 19 31  1  0  0  0
 19 42  1  0  0  0
 19 43  1  0  0  0
 20 22  1  0  0  0
 20 32  1  0  0  0
 20 44  1  0  0  0
 21 32  1  0  0  0
 21 45  1  0  0  0
 22 46  1  0  0  0
 22 47  1  0  0  0
 23 48  1  0  0  0
 24 25  3  0  0  0
 25 49  1  0  0  0
 32 50  1  0  0  0
 33 51  1  0  0  0
 52 56  1  0  0  0
 52 57  1  0  0  0
 52 64  1  0  0  0
 53 60  1  0  0  0
 53 61  1  0  0  0
 53 65  1  0  0  0
 54 58  2  0  0  0
 54 62  1  0  0  0
 55 61  2  0  0  0
 55 63  1  0  0  0
 56 59  1  0  0  0
 56 66  1  0  0  0
 56 67  1  0  0  0
 57 68  1  0  0  0
 57 69  1  0  0  0
 58 59  1  0  0  0
 58 61  1  0  0  0
 59 60  2  0  0  0
 60 70  1  0  0  0
 62 63  2  0  0  0
 62 71  1  0  0  0
 63 72  1  0  0  0
M  END
> <s_m_entry_id>
285

> <s_m_entry_name>
000000285.1

> <s_m_Source_Path>
/Users/zaksoul/Documents/2

> <s_m_Source_File>
000000285.mol2

> <i_m_Source_File_Index>
1

$$$$
No_0_301
                    3D
 Schrodinger Suite 2022-4.
 68 74  0  0  1  0            999 V2000
   -5.2180    3.6150  -22.1390 C   0  0  0  0  0  0
   -5.4650    3.7610  -23.4840 C   0  0  0  0  0  0
   -3.9820    3.3960  -21.7710 C   0  0  0  0  0  0
   -3.0560    3.4790  -23.9240 C   0  0  0  0  0  0
   -2.9150    3.2780  -22.4950 C   0  0  0  0  0  0
   -4.3990    3.7010  -24.4750 C   0  0  0  0  0  0
   -3.6060    3.6760  -26.6600 C   0  0  0  0  0  0
    6.0430    3.2800  -21.2140 C   0  0  0  0  0  0
    5.9450    3.3490  -23.7680 C   0  0  0  0  0  0
   -4.6290    3.7860  -25.8170 C   0  0  0  0  0  0
    2.1520    3.8210  -23.8640 C   0  0  0  0  0  0
    1.3050    4.9210  -23.6100 C   0  0  0  0  0  0
    3.0670    6.1710  -22.9340 C   0  0  0  0  0  0
    3.5430    4.0480  -23.5330 C   0  0  0  0  0  0
    1.6380    2.6760  -24.5030 C   0  0  0  0  0  0
   -0.5060    3.4500  -24.4510 C   0  0  0  0  0  0
   -0.0130    4.6960  -23.8780 C   0  0  0  0  0  0
   -1.9520    3.4170  -24.8290 C   0  0  0  0  0  0
    4.1910    1.5720  -23.1610 C   0  0  0  0  0  0
    5.1110    1.2670  -21.9890 C   0  0  2  0  0  0
    6.6830    2.8230  -22.5420 C   0  0  2  0  0  0
    5.0540    2.2990  -20.8510 C   0  0  0  0  0  0
   -2.2560    3.5310  -26.2660 C   0  0  0  0  0  0
   -1.5730    2.9080  -21.8620 C   0  0  0  0  0  0
   -0.5450    2.5940  -21.3300 C   0  0  0  0  0  0
   -0.8800    5.7340  -23.5770 F   0  0  0  0  0  0
   -3.7900    3.1960  -20.3790 F   0  0  0  0  0  0
    1.7500    6.1040  -23.1030 N   0  0  0  0  0  0
    3.9860    5.2200  -23.1120 N   0  0  0  0  0  0
    0.3390    2.5520  -24.8270 N   0  0  0  0  0  0
    4.4840    3.0140  -23.6650 N   0  0  0  0  0  0
    6.5250    1.3480  -22.4500 N   0  0  1  0  0  0
   -3.7560    3.6490  -28.0520 O   0  0  0  0  0  0
   -6.0339    3.6822  -21.4285 H   0  0  0  0  0  0
   -6.4774    3.9266  -23.8342 H   0  0  0  0  0  0
    5.5546    4.2548  -21.3593 H   0  0  0  0  0  0
    6.8150    3.3274  -20.4319 H   0  0  0  0  0  0
    6.3638    2.8869  -24.6741 H   0  0  0  0  0  0
    6.0682    4.4403  -23.8296 H   0  0  0  0  0  0
   -5.6366    3.9416  -26.1853 H   0  0  0  0  0  0
    2.2980    1.8525  -24.7507 H   0  0  0  0  0  0
    3.1438    1.5044  -22.8311 H   0  0  0  0  0  0
    4.3808    0.8542  -23.9727 H   0  0  0  0  0  0
    4.9002    0.2612  -21.5966 H   0  0  0  0  0  0
    7.7471    3.0994  -22.5783 H   0  0  0  0  0  0
    4.0607    2.7714  -20.8379 H   0  0  0  0  0  0
    5.3479    1.8173  -19.9068 H   0  0  0  0  0  0
   -1.4733    3.5049  -27.0155 H   0  0  0  0  0  0
    0.3602    2.3189  -20.8609 H   0  0  0  0  0  0
    7.1696    0.8830  -21.7188 H   0  0  0  0  0  0
   -2.9024    3.5659  -28.4605 H   0  0  0  0  0  0
    3.5610    7.6780  -20.9950 N   0  0  1  0  0  0
    7.7120    9.3280  -20.6000 N   0  0  0  0  0  0
    5.4730    9.2890  -20.7540 C   0  0  0  0  0  0
    3.5930    7.5330  -22.4950 C   0  0  0  0  0  0
    4.0100    9.0150  -20.4660 C   0  0  0  0  0  0
    6.0090   10.0090  -21.8530 C   0  0  0  0  0  0
    7.3340   10.0050  -21.7160 C   0  0  0  0  0  0
    6.5400    8.9080  -20.0440 C   0  0  0  0  0  0
    2.5511    7.5320  -20.6411 H   0  0  0  0  0  0
    8.7105    9.2410  -20.3629 H   0  0  0  0  0  0
    4.6253    7.6600  -22.8531 H   0  0  0  0  0  0
    2.9829    8.3261  -22.9520 H   0  0  0  0  0  0
    3.8369    9.0550  -19.3804 H   0  0  0  0  0  0
    3.3943    9.8096  -20.9128 H   0  0  0  0  0  0
    5.3452   10.4348  -22.5967 H   0  0  0  0  0  0
    8.0839   10.4529  -22.3579 H   0  0  0  0  0  0
    6.5520    8.3331  -19.1251 H   0  0  0  0  0  0
  1  2  2  0  0  0
  1  3  1  0  0  0
  1 34  1  0  0  0
  2  6  1  0  0  0
  2 35  1  0  0  0
  3  5  2  0  0  0
  3 27  1  0  0  0
  4  5  1  0  0  0
  4  6  2  0  0  0
  4 18  1  0  0  0
  5 24  1  0  0  0
  6 10  1  0  0  0
  7 10  2  0  0  0
  7 23  1  0  0  0
  7 33  1  0  0  0
  8 21  1  0  0  0
  8 22  1  0  0  0
  8 36  1  0  0  0
  8 37  1  0  0  0
  9 21  1  0  0  0
  9 31  1  0  0  0
  9 38  1  0  0  0
  9 39  1  0  0  0
 10 40  1  0  0  0
 11 12  1  0  0  0
 11 14  2  0  0  0
 11 15  1  0  0  0
 12 17  1  0  0  0
 12 28  2  0  0  0
 13 28  1  0  0  0
 13 29  2  0  0  0
 13 55  1  0  0  0
 14 29  1  0  0  0
 14 31  1  0  0  0
 15 30  2  0  0  0
 15 41  1  0  0  0
 16 17  2  0  0  0
 16 18  1  0  0  0
 16 30  1  0  0  0
 17 26  1  0  0  0
 18 23  2  0  0  0
 19 20  1  0  0  0
 19 31  1  0  0  0
 19 42  1  0  0  0
 19 43  1  0  0  0
 20 22  1  0  0  0
 20 32  1  0  0  0
 20 44  1  0  0  0
 21 32  1  0  0  0
 21 45  1  0  0  0
 22 46  1  0  0  0
 22 47  1  0  0  0
 23 48  1  0  0  0
 24 25  3  0  0  0
 25 49  1  0  0  0
 32 50  1  0  0  0
 33 51  1  0  0  0
 52 55  1  0  0  0
 52 56  1  0  0  0
 52 60  1  0  0  0
 53 58  1  0  0  0
 53 59  1  0  0  0
 53 61  1  0  0  0
 54 56  1  0  0  0
 54 57  1  0  0  0
 54 59  2  0  0  0
 55 62  1  0  0  0
 55 63  1  0  0  0
 56 64  1  0  0  0
 56 65  1  0  0  0
 57 58  2  0  0  0
 57 66  1  0  0  0
 58 67  1  0  0  0
 59 68  1  0  0  0
M  END
> <s_m_entry_id>
286

> <s_m_entry_name>
000000286.1

> <s_m_Source_Path>
/Users/zaksoul/Documents/2

> <s_m_Source_File>
000000286.mol2

> <i_m_Source_File_Index>
1

$$$$
No_0_302
                    3D
 Schrodinger Suite 2022-4.
 68 74  0  0  1  0            999 V2000
   -5.3620    3.4660  -22.0250 C   0  0  0  0  0  0
   -5.5970    3.6020  -23.3730 C   0  0  0  0  0  0
   -4.1300    3.2410  -21.6450 C   0  0  0  0  0  0
   -3.1860    3.3000  -23.7910 C   0  0  0  0  0  0
   -3.0580    3.1090  -22.3590 C   0  0  0  0  0  0
   -4.5230    3.5260  -24.3540 C   0  0  0  0  0  0
   -3.7130    3.4770  -26.5320 C   0  0  0  0  0  0
    5.8880    3.0600  -21.0050 C   0  0  0  0  0  0
    5.8120    3.1070  -23.5610 C   0  0  0  0  0  0
   -4.7420    3.6010  -25.6990 C   0  0  0  0  0  0
    2.0230    3.6060  -23.6920 C   0  0  0  0  0  0
    1.1820    4.7140  -23.4540 C   0  0  0  0  0  0
    2.9480    5.9560  -22.7740 C   0  0  0  0  0  0
    3.4130    3.8260  -23.3510 C   0  0  0  0  0  0
    1.5070    2.4580  -24.3240 C   0  0  0  0  0  0
   -0.6320    3.2480  -24.2960 C   0  0  0  0  0  0
   -0.1350    4.4960  -23.7300 C   0  0  0  0  0  0
   -2.0760    3.2220  -24.6860 C   0  0  0  0  0  0
    4.0400    1.3480  -22.9530 C   0  0  0  0  0  0
    4.9490    1.0460  -21.7710 C   0  0  2  0  0  0
    6.5370    2.5870  -22.3250 C   0  0  2  0  0  0
    4.8900    2.0890  -20.6420 C   0  0  0  0  0  0
   -2.3670    3.3250  -26.1270 C   0  0  0  0  0  0
   -1.7250    2.7350  -21.7120 C   0  0  0  0  0  0
   -0.7030    2.4190  -21.1690 C   0  0  0  0  0  0
   -0.9980    5.5420  -23.4450 F   0  0  0  0  0  0
   -3.9510    3.0520  -20.2500 F   0  0  0  0  0  0
    1.6310    5.8970  -22.9540 N   0  0  0  0  0  0
    3.8610    4.9980  -22.9370 N   0  0  0  0  0  0
    0.2100    2.3410  -24.6580 N   0  0  0  0  0  0
    4.3470    2.7840  -23.4670 N   0  0  0  0  0  0
    6.3670    1.1140  -22.2210 N   0  0  1  0  0  0
   -3.8520    3.4380  -27.9250 O   0  0  0  0  0  0
   -6.1829    3.5453  -21.3215 H   0  0  0  0  0  0
   -6.6054    3.7717  -23.7326 H   0  0  0  0  0  0
    5.4084    4.0373  -21.1625 H   0  0  0  0  0  0
    6.6549    3.1084  -20.2179 H   0  0  0  0  0  0
    6.2349    2.6336  -24.4593 H   0  0  0  0  0  0
    5.9432    4.1969  -23.6306 H   0  0  0  0  0  0
   -5.7456    3.7606  -26.0764 H   0  0  0  0  0  0
    2.1627    1.6276  -24.5600 H   0  0  0  0  0  0
    2.9897    1.2905  -22.6312 H   0  0  0  0  0  0
    4.2319    0.6220  -23.7568 H   0  0  0  0  0  0
    4.7279    0.0454  -21.3712 H   0  0  0  0  0  0
    7.6033    2.8556  -22.3543 H   0  0  0  0  0  0
    3.9000    2.5684  -20.6410 H   0  0  0  0  0  0
    5.1726    1.6136  -19.6912 H   0  0  0  0  0  0
   -1.5782    3.2879  -26.8696 H   0  0  0  0  0  0
    0.1964    2.1412  -20.6903 H   0  0  0  0  0  0
    7.0022    0.6499  -21.4810 H   0  0  0  0  0  0
   -2.9959    3.3461  -28.3264 H   0  0  0  0  0  0
    3.7790    7.3500  -20.8660 N   0  0  1  0  0  0
    7.8090    9.2780  -21.2510 N   0  0  0  0  0  0
    5.6000    9.0790  -20.9110 C   0  0  0  0  0  0
    3.4790    7.3190  -22.3420 C   0  0  0  0  0  0
    4.2580    8.6740  -20.3330 C   0  0  0  0  0  0
    5.8300    9.9180  -22.0320 C   0  0  0  0  0  0
    7.1500   10.0050  -22.1920 C   0  0  0  0  0  0
    6.8200    8.7300  -20.4900 C   0  0  0  0  0  0
    2.8858    7.1019  -20.3119 H   0  0  0  0  0  0
    8.8386    9.2500  -21.2500 H   0  0  0  0  0  0
    4.3948    7.5500  -22.9059 H   0  0  0  0  0  0
    2.7365    8.0945  -22.5812 H   0  0  0  0  0  0
    4.3329    8.6220  -19.2368 H   0  0  0  0  0  0
    3.5129    9.4511  -20.5590 H   0  0  0  0  0  0
    4.9920   10.3450  -22.5710 H   0  0  0  0  0  0
    7.7080   10.5550  -22.9411 H   0  0  0  0  0  0
    7.0730    8.0920  -19.6510 H   0  0  0  0  0  0
  1  2  2  0  0  0
  1  3  1  0  0  0
  1 34  1  0  0  0
  2  6  1  0  0  0
  2 35  1  0  0  0
  3  5  2  0  0  0
  3 27  1  0  0  0
  4  5  1  0  0  0
  4  6  2  0  0  0
  4 18  1  0  0  0
  5 24  1  0  0  0
  6 10  1  0  0  0
  7 10  2  0  0  0
  7 23  1  0  0  0
  7 33  1  0  0  0
  8 21  1  0  0  0
  8 22  1  0  0  0
  8 36  1  0  0  0
  8 37  1  0  0  0
  9 21  1  0  0  0
  9 31  1  0  0  0
  9 38  1  0  0  0
  9 39  1  0  0  0
 10 40  1  0  0  0
 11 12  1  0  0  0
 11 14  2  0  0  0
 11 15  1  0  0  0
 12 17  1  0  0  0
 12 28  2  0  0  0
 13 28  1  0  0  0
 13 29  2  0  0  0
 13 55  1  0  0  0
 14 29  1  0  0  0
 14 31  1  0  0  0
 15 30  2  0  0  0
 15 41  1  0  0  0
 16 17  2  0  0  0
 16 18  1  0  0  0
 16 30  1  0  0  0
 17 26  1  0  0  0
 18 23  2  0  0  0
 19 20  1  0  0  0
 19 31  1  0  0  0
 19 42  1  0  0  0
 19 43  1  0  0  0
 20 22  1  0  0  0
 20 32  1  0  0  0
 20 44  1  0  0  0
 21 32  1  0  0  0
 21 45  1  0  0  0
 22 46  1  0  0  0
 22 47  1  0  0  0
 23 48  1  0  0  0
 24 25  3  0  0  0
 25 49  1  0  0  0
 32 50  1  0  0  0
 33 51  1  0  0  0
 52 55  1  0  0  0
 52 56  1  0  0  0
 52 60  1  0  0  0
 53 58  1  0  0  0
 53 59  1  0  0  0
 53 61  1  0  0  0
 54 56  1  0  0  0
 54 57  1  0  0  0
 54 59  2  0  0  0
 55 62  1  0  0  0
 55 63  1  0  0  0
 56 64  1  0  0  0
 56 65  1  0  0  0
 57 58  2  0  0  0
 57 66  1  0  0  0
 58 67  1  0  0  0
 59 68  1  0  0  0
M  END
> <s_m_entry_id>
287

> <s_m_entry_name>
000000287.1

> <s_m_Source_Path>
/Users/zaksoul/Documents/2

> <s_m_Source_File>
000000287.mol2

> <i_m_Source_File_Index>
1

$$$$
No_0_303
                    3D
 Schrodinger Suite 2022-4.
 68 74  0  0  1  0            999 V2000
   -5.1820    3.2920  -22.2680 C   0  0  0  0  0  0
   -5.4190    3.4710  -23.6100 C   0  0  0  0  0  0
   -3.9460    3.0740  -21.8950 C   0  0  0  0  0  0
   -3.0040    3.2230  -24.0380 C   0  0  0  0  0  0
   -2.8730    2.9850  -22.6130 C   0  0  0  0  0  0
   -4.3450    3.4470  -24.5930 C   0  0  0  0  0  0
   -3.5350    3.4880  -26.7720 C   0  0  0  0  0  0
    6.0740    3.0330  -21.2590 C   0  0  0  0  0  0
    5.9960    3.1690  -23.8120 C   0  0  0  0  0  0
   -4.5650    3.5660  -25.9350 C   0  0  0  0  0  0
    2.1990    3.6100  -23.9260 C   0  0  0  0  0  0
    1.3400    4.6950  -23.6500 C   0  0  0  0  0  0
    3.0860    5.9420  -22.9270 C   0  0  0  0  0  0
    3.5850    3.8400  -23.5780 C   0  0  0  0  0  0
    1.7020    2.4770  -24.5990 C   0  0  0  0  0  0
   -0.4500    3.2300  -24.5440 C   0  0  0  0  0  0
    0.0270    4.4660  -23.9340 C   0  0  0  0  0  0
   -1.8930    3.1950  -24.9350 C   0  0  0  0  0  0
    4.2530    1.3610  -23.2660 C   0  0  0  0  0  0
    5.1670    1.0330  -22.0950 C   0  0  2  0  0  0
    6.7290    2.6170  -22.5940 C   0  0  2  0  0  0
    5.0910    2.0340  -20.9310 C   0  0  0  0  0  0
   -2.1860    3.3440  -26.3710 C   0  0  0  0  0  0
   -1.5330    2.6100  -21.9800 C   0  0  0  0  0  0
   -0.5060    2.2920  -21.4470 C   0  0  0  0  0  0
   -0.8520    5.4870  -23.6130 F   0  0  0  0  0  0
   -3.7640    2.8390  -20.5080 F   0  0  0  0  0  0
    1.7710    5.8680  -23.1080 N   0  0  0  0  0  0
    4.0150    5.0050  -23.1220 N   0  0  0  0  0  0
    0.4070    2.3510  -24.9370 N   0  0  0  0  0  0
    4.5370    2.8190  -23.7300 N   0  0  0  0  0  0
    6.5830    1.1390  -22.5420 N   0  0  1  0  0  0
   -3.6730    3.4960  -28.1650 O   0  0  0  0  0  0
   -6.0039    3.3331  -21.5625 H   0  0  0  0  0  0
   -6.4299    3.6375  -23.9640 H   0  0  0  0  0  0
    5.5788    4.0073  -21.3831 H   0  0  0  0  0  0
    6.8398    3.0663  -20.4700 H   0  0  0  0  0  0
    6.4268    2.7342  -24.7260 H   0  0  0  0  0  0
    6.1090    4.2627  -23.8433 H   0  0  0  0  0  0
   -5.5712    3.7215  -26.3072 H   0  0  0  0  0  0
    2.3707    1.6657  -24.8631 H   0  0  0  0  0  0
    3.2038    1.2752  -22.9469 H   0  0  0  0  0  0
    4.4557    0.6671  -24.0951 H   0  0  0  0  0  0
    4.9622    0.0151  -21.7318 H   0  0  0  0  0  0
    7.7905    2.9046  -22.6142 H   0  0  0  0  0  0
    4.0935    2.4974  -20.9128 H   0  0  0  0  0  0
    5.3826    1.5304  -19.9975 H   0  0  0  0  0  0
   -1.3973    3.3450  -27.1146 H   0  0  0  0  0  0
    0.3982    2.0119  -20.9789 H   0  0  0  0  0  0
    7.2263    0.6603  -21.8186 H   0  0  0  0  0  0
   -2.8154    3.4317  -28.5686 H   0  0  0  0  0  0
    4.2320    7.1950  -21.0850 N   0  0  1  0  0  0
    7.8920    9.5770  -22.1040 N   0  0  0  0  0  0
    5.8490    9.1050  -21.3060 C   0  0  0  0  0  0
    3.5960    7.2970  -22.4470 C   0  0  0  0  0  0
    4.7170    8.4950  -20.5000 C   0  0  0  0  0  0
    5.7410   10.0830  -22.3280 C   0  0  0  0  0  0
    6.9750   10.3280  -22.7670 C   0  0  0  0  0  0
    7.1570    8.8440  -21.2200 C   0  0  0  0  0  0
    3.5170    6.7920  -20.3830 H   0  0  0  0  0  0
    8.8919    9.6600  -22.3370 H   0  0  0  0  0  0
    4.3312    7.6871  -23.1662 H   0  0  0  0  0  0
    2.7592    8.0098  -22.4070 H   0  0  0  0  0  0
    5.0531    8.3290  -19.4658 H   0  0  0  0  0  0
    3.8810    9.2080  -20.4480 H   0  0  0  0  0  0
    4.7682   10.4749  -22.6020 H   0  0  0  0  0  0
    7.2948   11.0156  -23.5416 H   0  0  0  0  0  0
    7.6500    8.1470  -20.5520 H   0  0  0  0  0  0
  1  2  2  0  0  0
  1  3  1  0  0  0
  1 34  1  0  0  0
  2  6  1  0  0  0
  2 35  1  0  0  0
  3  5  2  0  0  0
  3 27  1  0  0  0
  4  5  1  0  0  0
  4  6  2  0  0  0
  4 18  1  0  0  0
  5 24  1  0  0  0
  6 10  1  0  0  0
  7 10  2  0  0  0
  7 23  1  0  0  0
  7 33  1  0  0  0
  8 21  1  0  0  0
  8 22  1  0  0  0
  8 36  1  0  0  0
  8 37  1  0  0  0
  9 21  1  0  0  0
  9 31  1  0  0  0
  9 38  1  0  0  0
  9 39  1  0  0  0
 10 40  1  0  0  0
 11 12  1  0  0  0
 11 14  2  0  0  0
 11 15  1  0  0  0
 12 17  1  0  0  0
 12 28  2  0  0  0
 13 28  1  0  0  0
 13 29  2  0  0  0
 13 55  1  0  0  0
 14 29  1  0  0  0
 14 31  1  0  0  0
 15 30  2  0  0  0
 15 41  1  0  0  0
 16 17  2  0  0  0
 16 18  1  0  0  0
 16 30  1  0  0  0
 17 26  1  0  0  0
 18 23  2  0  0  0
 19 20  1  0  0  0
 19 31  1  0  0  0
 19 42  1  0  0  0
 19 43  1  0  0  0
 20 22  1  0  0  0
 20 32  1  0  0  0
 20 44  1  0  0  0
 21 32  1  0  0  0
 21 45  1  0  0  0
 22 46  1  0  0  0
 22 47  1  0  0  0
 23 48  1  0  0  0
 24 25  3  0  0  0
 25 49  1  0  0  0
 32 50  1  0  0  0
 33 51  1  0  0  0
 52 55  1  0  0  0
 52 56  1  0  0  0
 52 60  1  0  0  0
 53 58  1  0  0  0
 53 59  1  0  0  0
 53 61  1  0  0  0
 54 56  1  0  0  0
 54 57  1  0  0  0
 54 59  2  0  0  0
 55 62  1  0  0  0
 55 63  1  0  0  0
 56 64  1  0  0  0
 56 65  1  0  0  0
 57 58  2  0  0  0
 57 66  1  0  0  0
 58 67  1  0  0  0
 59 68  1  0  0  0
M  END
> <s_m_entry_id>
288

> <s_m_entry_name>
000000288.1

> <s_m_Source_Path>
/Users/zaksoul/Documents/2

> <s_m_Source_File>
000000288.mol2

> <i_m_Source_File_Index>
1

$$$$
No_0_304
                    3D
 Schrodinger Suite 2022-4.
 68 74  0  0  1  0            999 V2000
   -5.2390    3.2910  -22.0920 C   0  0  0  0  0  0
   -5.4830    3.4940  -23.4300 C   0  0  0  0  0  0
   -4.0010    3.0660  -21.7300 C   0  0  0  0  0  0
   -3.0710    3.2520  -23.8750 C   0  0  0  0  0  0
   -2.9320    2.9890  -22.4550 C   0  0  0  0  0  0
   -4.4140    3.4870  -24.4190 C   0  0  0  0  0  0
   -3.6160    3.5650  -26.6010 C   0  0  0  0  0  0
    6.0220    3.0110  -21.1500 C   0  0  0  0  0  0
    5.9310    3.1910  -23.6990 C   0  0  0  0  0  0
   -4.6420    3.6290  -25.7570 C   0  0  0  0  0  0
    2.1330    3.6360  -23.7850 C   0  0  0  0  0  0
    1.2760    4.7160  -23.4850 C   0  0  0  0  0  0
    3.0270    5.9500  -22.7500 C   0  0  0  0  0  0
    3.5210    3.8600  -23.4400 C   0  0  0  0  0  0
    1.6320    2.5150  -24.4750 C   0  0  0  0  0  0
   -0.5190    3.2680  -24.3950 C   0  0  0  0  0  0
   -0.0380    4.4920  -23.7660 C   0  0  0  0  0  0
   -1.9640    3.2400  -24.7790 C   0  0  0  0  0  0
    4.1900    1.3750  -23.1760 C   0  0  0  0  0  0
    5.1100    1.0260  -22.0160 C   0  0  2  0  0  0
    6.6700    2.6180  -22.4960 C   0  0  2  0  0  0
    5.0410    2.0070  -20.8340 C   0  0  0  0  0  0
   -2.2660    3.4140  -26.2100 C   0  0  0  0  0  0
   -1.5890    2.6030  -21.8360 C   0  0  0  0  0  0
   -0.5590    2.2760  -21.3150 C   0  0  0  0  0  0
   -0.9160    5.5080  -23.4220 F   0  0  0  0  0  0
   -3.8120    2.8070  -20.3480 F   0  0  0  0  0  0
    1.7100    5.8790  -22.9260 N   0  0  0  0  0  0
    3.9540    5.0160  -22.9670 N   0  0  0  0  0  0
    0.3350    2.3950  -24.8080 N   0  0  0  0  0  0
    4.4720    2.8400  -23.6150 N   0  0  0  0  0  0
    6.5240    1.1390  -22.4690 N   0  0  1  0  0  0
   -3.7620    3.5980  -27.9930 O   0  0  0  0  0  0
   -6.0570    3.3201  -21.3814 H   0  0  0  0  0  0
   -6.4959    3.6667  -23.7753 H   0  0  0  0  0  0
    5.5266    3.9876  -21.2539 H   0  0  0  0  0  0
    6.7921    3.0302  -20.3648 H   0  0  0  0  0  0
    6.3559    2.7731  -24.6236 H   0  0  0  0  0  0
    6.0439    4.2851  -23.7121 H   0  0  0  0  0  0
   -5.6503    3.7915  -26.1202 H   0  0  0  0  0  0
    2.2990    1.7084  -24.7573 H   0  0  0  0  0  0
    3.1427    1.2842  -22.8521 H   0  0  0  0  0  0
    4.3879    0.6955  -24.0181 H   0  0  0  0  0  0
    4.9071    0.0022  -21.6687 H   0  0  0  0  0  0
    7.7315    2.9056  -22.5162 H   0  0  0  0  0  0
    4.0438    2.4703  -20.8027 H   0  0  0  0  0  0
    5.3365    1.4865  -19.9111 H   0  0  0  0  0  0
   -1.4807    3.4280  -26.9571 H   0  0  0  0  0  0
    0.3470    1.9870  -20.8560 H   0  0  0  0  0  0
    7.1709    0.6482  -21.7569 H   0  0  0  0  0  0
   -2.9067    3.5397  -28.4024 H   0  0  0  0  0  0
    4.4880    7.1270  -21.0910 N   0  0  1  0  0  0
    7.6220    9.9320  -22.6470 N   0  0  0  0  0  0
    5.8670    9.1940  -21.4590 C   0  0  0  0  0  0
    3.5390    7.2960  -22.2490 C   0  0  0  0  0  0
    5.0060    8.4070  -20.4900 C   0  0  0  0  0  0
    5.4490   10.2500  -22.3110 C   0  0  0  0  0  0
    6.5220   10.6520  -22.9910 C   0  0  0  0  0  0
    7.1730    9.0530  -21.7070 C   0  0  0  0  0  0
    3.9918    6.5938  -20.2936 H   0  0  0  0  0  0
    8.5289   10.1310  -23.0929 H   0  0  0  0  0  0
    4.0520    7.8200  -23.0690 H   0  0  0  0  0  0
    2.6879    7.9191  -21.9370 H   0  0  0  0  0  0
    5.5897    8.1771  -19.5864 H   0  0  0  0  0  0
    4.1583    9.0288  -20.1661 H   0  0  0  0  0  0
    4.4139   10.5720  -22.3080 H   0  0  0  0  0  0
    6.5990   11.4358  -23.7358 H   0  0  0  0  0  0
    7.8591    8.3459  -21.2549 H   0  0  0  0  0  0
  1  2  2  0  0  0
  1  3  1  0  0  0
  1 34  1  0  0  0
  2  6  1  0  0  0
  2 35  1  0  0  0
  3  5  2  0  0  0
  3 27  1  0  0  0
  4  5  1  0  0  0
  4  6  2  0  0  0
  4 18  1  0  0  0
  5 24  1  0  0  0
  6 10  1  0  0  0
  7 10  2  0  0  0
  7 23  1  0  0  0
  7 33  1  0  0  0
  8 21  1  0  0  0
  8 22  1  0  0  0
  8 36  1  0  0  0
  8 37  1  0  0  0
  9 21  1  0  0  0
  9 31  1  0  0  0
  9 38  1  0  0  0
  9 39  1  0  0  0
 10 40  1  0  0  0
 11 12  1  0  0  0
 11 14  2  0  0  0
 11 15  1  0  0  0
 12 17  1  0  0  0
 12 28  2  0  0  0
 13 28  1  0  0  0
 13 29  2  0  0  0
 13 55  1  0  0  0
 14 29  1  0  0  0
 14 31  1  0  0  0
 15 30  2  0  0  0
 15 41  1  0  0  0
 16 17  2  0  0  0
 16 18  1  0  0  0
 16 30  1  0  0  0
 17 26  1  0  0  0
 18 23  2  0  0  0
 19 20  1  0  0  0
 19 31  1  0  0  0
 19 42  1  0  0  0
 19 43  1  0  0  0
 20 22  1  0  0  0
 20 32  1  0  0  0
 20 44  1  0  0  0
 21 32  1  0  0  0
 21 45  1  0  0  0
 22 46  1  0  0  0
 22 47  1  0  0  0
 23 48  1  0  0  0
 24 25  3  0  0  0
 25 49  1  0  0  0
 32 50  1  0  0  0
 33 51  1  0  0  0
 52 55  1  0  0  0
 52 56  1  0  0  0
 52 60  1  0  0  0
 53 58  1  0  0  0
 53 59  1  0  0  0
 53 61  1  0  0  0
 54 56  1  0  0  0
 54 57  1  0  0  0
 54 59  2  0  0  0
 55 62  1  0  0  0
 55 63  1  0  0  0
 56 64  1  0  0  0
 56 65  1  0  0  0
 57 58  2  0  0  0
 57 66  1  0  0  0
 58 67  1  0  0  0
 59 68  1  0  0  0
M  END
> <s_m_entry_id>
289

> <s_m_entry_name>
000000289.1

> <s_m_Source_Path>
/Users/zaksoul/Documents/2

> <s_m_Source_File>
000000289.mol2

> <i_m_Source_File_Index>
1

$$$$
No_0_305
                    3D
 Schrodinger Suite 2022-4.
 68 74  0  0  1  0            999 V2000
   -5.3210    3.2450  -22.0620 C   0  0  0  0  0  0
   -5.5650    3.4290  -23.4020 C   0  0  0  0  0  0
   -4.0820    3.0320  -21.6950 C   0  0  0  0  0  0
   -3.1510    3.1950  -23.8420 C   0  0  0  0  0  0
   -3.0120    2.9520  -22.4190 C   0  0  0  0  0  0
   -4.4950    3.4140  -24.3900 C   0  0  0  0  0  0
   -3.6950    3.4680  -26.5720 C   0  0  0  0  0  0
    5.9410    3.0420  -21.1050 C   0  0  0  0  0  0
    5.8510    3.1870  -23.6570 C   0  0  0  0  0  0
   -4.7220    3.5370  -25.7300 C   0  0  0  0  0  0
    2.0510    3.6090  -23.7520 C   0  0  0  0  0  0
    1.1880    4.6880  -23.4680 C   0  0  0  0  0  0
    2.9300    5.9410  -22.7470 C   0  0  0  0  0  0
    3.4370    3.8450  -23.4090 C   0  0  0  0  0  0
    1.5560    2.4760  -24.4270 C   0  0  0  0  0  0
   -0.5990    3.2180  -24.3590 C   0  0  0  0  0  0
   -0.1260    4.4530  -23.7470 C   0  0  0  0  0  0
   -2.0430    3.1770  -24.7440 C   0  0  0  0  0  0
    4.1200    1.3680  -23.1100 C   0  0  0  0  0  0
    5.0410    1.0400  -21.9450 C   0  0  2  0  0  0
    6.5920    2.6340  -22.4450 C   0  0  2  0  0  0
    4.9650    2.0370  -20.7760 C   0  0  0  0  0  0
   -2.3440    3.3290  -26.1780 C   0  0  0  0  0  0
   -1.6670    2.5810  -21.7930 C   0  0  0  0  0  0
   -0.6360    2.2670  -21.2660 C   0  0  0  0  0  0
   -1.0090    5.4690  -23.4170 F   0  0  0  0  0  0
   -3.8930    2.7930  -20.3100 F   0  0  0  0  0  0
    1.6140    5.8610  -22.9230 N   0  0  0  0  0  0
    3.8630    5.0100  -22.9510 N   0  0  0  0  0  0
    0.2600    2.3440  -24.7600 N   0  0  0  0  0  0
    4.3940    2.8290  -23.5690 N   0  0  0  0  0  0
    6.4540    1.1550  -22.3980 N   0  0  1  0  0  0
   -3.8390    3.4810  -27.9650 O   0  0  0  0  0  0
   -6.1389    3.2791  -21.3515 H   0  0  0  0  0  0
   -6.5784    3.5905  -23.7512 H   0  0  0  0  0  0
    5.4394    4.0139  -21.2221 H   0  0  0  0  0  0
    6.7103    3.0763  -20.3195 H   0  0  0  0  0  0
    6.2793    2.7587  -24.5752 H   0  0  0  0  0  0
    5.9579    4.2815  -23.6842 H   0  0  0  0  0  0
   -5.7304    3.6895  -26.0972 H   0  0  0  0  0  0
    2.2284    1.6701  -24.6980 H   0  0  0  0  0  0
    3.0725    1.2762  -22.7871 H   0  0  0  0  0  0
    4.3229    0.6786  -23.9428 H   0  0  0  0  0  0
    4.8423    0.0202  -21.5839 H   0  0  0  0  0  0
    7.6519    2.9275  -22.4682 H   0  0  0  0  0  0
    3.9648    2.4942  -20.7528 H   0  0  0  0  0  0
    5.2628    1.5302  -19.8462 H   0  0  0  0  0  0
   -1.5582    3.3380  -26.9247 H   0  0  0  0  0  0
    0.2716    1.9898  -20.8027 H   0  0  0  0  0  0
    7.1032    0.6770  -21.6793 H   0  0  0  0  0  0
   -2.9829    3.4226  -28.3727 H   0  0  0  0  0  0
    4.5910    7.1460  -21.3100 N   0  0  1  0  0  0
    7.1860   10.2590  -23.2290 N   0  0  0  0  0  0
    5.7350    9.3300  -21.7910 C   0  0  0  0  0  0
    3.4350    7.2970  -22.2640 C   0  0  0  0  0  0
    5.1240    8.4310  -20.7340 C   0  0  0  0  0  0
    5.0970   10.3900  -22.4860 C   0  0  0  0  0  0
    5.9950   10.9080  -23.3230 C   0  0  0  0  0  0
    6.9790    9.3030  -22.2800 C   0  0  0  0  0  0
    4.2880    6.5371  -20.4711 H   0  0  0  0  0  0
    7.9787   10.5499  -23.8188 H   0  0  0  0  0  0
    3.7500    7.8990  -23.1291 H   0  0  0  0  0  0
    2.6161    7.8359  -21.7651 H   0  0  0  0  0  0
    5.8789    8.2030  -19.9671 H   0  0  0  0  0  0
    4.3107    8.9675  -20.2234 H   0  0  0  0  0  0
    4.0612   10.6300  -22.2750 H   0  0  0  0  0  0
    5.8789   11.7314  -24.0184 H   0  0  0  0  0  0
    7.7830    8.6300  -22.0050 H   0  0  0  0  0  0
  1  2  2  0  0  0
  1  3  1  0  0  0
  1 34  1  0  0  0
  2  6  1  0  0  0
  2 35  1  0  0  0
  3  5  2  0  0  0
  3 27  1  0  0  0
  4  5  1  0  0  0
  4  6  2  0  0  0
  4 18  1  0  0  0
  5 24  1  0  0  0
  6 10  1  0  0  0
  7 10  2  0  0  0
  7 23  1  0  0  0
  7 33  1  0  0  0
  8 21  1  0  0  0
  8 22  1  0  0  0
  8 36  1  0  0  0
  8 37  1  0  0  0
  9 21  1  0  0  0
  9 31  1  0  0  0
  9 38  1  0  0  0
  9 39  1  0  0  0
 10 40  1  0  0  0
 11 12  1  0  0  0
 11 14  2  0  0  0
 11 15  1  0  0  0
 12 17  1  0  0  0
 12 28  2  0  0  0
 13 28  1  0  0  0
 13 29  2  0  0  0
 13 55  1  0  0  0
 14 29  1  0  0  0
 14 31  1  0  0  0
 15 30  2  0  0  0
 15 41  1  0  0  0
 16 17  2  0  0  0
 16 18  1  0  0  0
 16 30  1  0  0  0
 17 26  1  0  0  0
 18 23  2  0  0  0
 19 20  1  0  0  0
 19 31  1  0  0  0
 19 42  1  0  0  0
 19 43  1  0  0  0
 20 22  1  0  0  0
 20 32  1  0  0  0
 20 44  1  0  0  0
 21 32  1  0  0  0
 21 45  1  0  0  0
 22 46  1  0  0  0
 22 47  1  0  0  0
 23 48  1  0  0  0
 24 25  3  0  0  0
 25 49  1  0  0  0
 32 50  1  0  0  0
 33 51  1  0  0  0
 52 55  1  0  0  0
 52 56  1  0  0  0
 52 60  1  0  0  0
 53 58  1  0  0  0
 53 59  1  0  0  0
 53 61  1  0  0  0
 54 56  1  0  0  0
 54 57  1  0  0  0
 54 59  2  0  0  0
 55 62  1  0  0  0
 55 63  1  0  0  0
 56 64  1  0  0  0
 56 65  1  0  0  0
 57 58  2  0  0  0
 57 66  1  0  0  0
 58 67  1  0  0  0
 59 68  1  0  0  0
M  END
> <s_m_entry_id>
290

> <s_m_entry_name>
000000290.1

> <s_m_Source_Path>
/Users/zaksoul/Documents/2

> <s_m_Source_File>
000000290.mol2

> <i_m_Source_File_Index>
1

$$$$
No_0_306
                    3D
 Schrodinger Suite 2022-4.
 68 74  0  0  1  0            999 V2000
   -5.1800    3.3990  -21.7690 C   0  0  0  0  0  0
   -5.4560    3.6270  -23.0970 C   0  0  0  0  0  0
   -3.9350    3.1620  -21.4420 C   0  0  0  0  0  0
   -3.0570    3.3800  -23.6060 C   0  0  0  0  0  0
   -2.8840    3.0920  -22.1950 C   0  0  0  0  0  0
   -4.4120    3.6300  -24.1120 C   0  0  0  0  0  0
   -3.6680    3.7420  -26.3120 C   0  0  0  0  0  0
    6.1000    3.0470  -21.1130 C   0  0  0  0  0  0
    5.9460    3.2710  -23.6560 C   0  0  0  0  0  0
   -4.6720    3.7960  -25.4420 C   0  0  0  0  0  0
    2.1500    3.7360  -23.6400 C   0  0  0  0  0  0
    1.3070    4.8160  -23.3000 C   0  0  0  0  0  0
    3.0810    6.0270  -22.5880 C   0  0  0  0  0  0
    3.5480    3.9470  -23.3260 C   0  0  0  0  0  0
    1.6250    2.6300  -24.3360 C   0  0  0  0  0  0
   -0.5190    3.3920  -24.1890 C   0  0  0  0  0  0
   -0.0160    4.6030  -23.5520 C   0  0  0  0  0  0
   -1.9730    3.3780  -24.5370 C   0  0  0  0  0  0
    4.2090    1.4550  -23.1200 C   0  0  0  0  0  0
    5.1560    1.0820  -21.9900 C   0  0  2  0  0  0
    6.7120    2.6740  -22.4810 C   0  0  2  0  0  0
    5.1210    2.0430  -20.7900 C   0  0  0  0  0  0
   -2.3090    3.5770  -25.9580 C   0  0  0  0  0  0
   -1.5280    2.6890  -21.6160 C   0  0  0  0  0  0
   -0.4870    2.3480  -21.1260 C   0  0  0  0  0  0
   -0.8790    5.6170  -23.1690 F   0  0  0  0  0  0
   -3.7120    2.8790  -20.0700 F   0  0  0  0  0  0
    1.7610    5.9660  -22.7320 N   0  0  0  0  0  0
    3.9980    5.0920  -22.8440 N   0  0  0  0  0  0
    0.3200    2.5220  -24.6380 N   0  0  0  0  0  0
    4.4870    2.9260  -23.5420 N   0  0  0  0  0  0
    6.5580    1.1960  -22.4760 N   0  0  1  0  0  0
   -3.8480    3.7990  -27.6990 O   0  0  0  0  0  0
   -5.9792    3.4211  -21.0370 H   0  0  0  0  0  0
   -6.4764    3.8096  -23.4141 H   0  0  0  0  0  0
    5.6076    4.0277  -21.1887 H   0  0  0  0  0  0
    6.8893    3.0490  -20.3469 H   0  0  0  0  0  0
    6.3456    2.8663  -24.5976 H   0  0  0  0  0  0
    6.0650    4.3645  -23.6530 H   0  0  0  0  0  0
   -5.6881    3.9705  -25.7770 H   0  0  0  0  0  0
    2.2806    1.8248  -24.6472 H   0  0  0  0  0  0
    3.1695    1.3642  -22.7718 H   0  0  0  0  0  0
    4.3826    0.7888  -23.9779 H   0  0  0  0  0  0
    4.9552    0.0537  -21.6550 H   0  0  0  0  0  0
    7.7743    2.9565  -22.5234 H   0  0  0  0  0  0
    4.1273    2.5105  -20.7264 H   0  0  0  0  0  0
    5.4377    1.5053  -19.8841 H   0  0  0  0  0  0
   -1.5427    3.6001  -26.7243 H   0  0  0  0  0  0
    0.4289    2.0470  -20.6951 H   0  0  0  0  0  0
    7.2195    0.6894  -21.7888 H   0  0  0  0  0  0
   -3.0039    3.7436  -28.1314 H   0  0  0  0  0  0
    5.1010    7.4770  -22.2850 N   0  0  1  0  0  0
    5.0120   11.6180  -24.0040 N   0  0  0  0  0  0
    5.2390    9.9770  -22.4900 C   0  0  0  0  0  0
    3.6140    7.3620  -22.0780 C   0  0  0  0  0  0
    5.7300    8.7410  -21.7610 C   0  0  0  0  0  0
    4.1780   10.8350  -22.1000 C   0  0  0  0  0  0
    4.0840   11.7880  -23.0250 C   0  0  0  0  0  0
    5.6950   10.4980  -23.6340 C   0  0  0  0  0  0
    5.5987    6.6585  -21.7863 H   0  0  0  0  0  0
    5.0600   12.2820  -24.7900 H   0  0  0  0  0  0
    3.1063    8.1835  -22.6047 H   0  0  0  0  0  0
    3.3850    7.4620  -21.0068 H   0  0  0  0  0  0
    6.8238    8.6720  -21.8550 H   0  0  0  0  0  0
    5.5130    8.8400  -20.6872 H   0  0  0  0  0  0
    3.6263   10.6351  -21.1885 H   0  0  0  0  0  0
    3.3942   12.6228  -23.0730 H   0  0  0  0  0  0
    6.5073   10.1299  -24.2502 H   0  0  0  0  0  0
  1  2  2  0  0  0
  1  3  1  0  0  0
  1 34  1  0  0  0
  2  6  1  0  0  0
  2 35  1  0  0  0
  3  5  2  0  0  0
  3 27  1  0  0  0
  4  5  1  0  0  0
  4  6  2  0  0  0
  4 18  1  0  0  0
  5 24  1  0  0  0
  6 10  1  0  0  0
  7 10  2  0  0  0
  7 23  1  0  0  0
  7 33  1  0  0  0
  8 21  1  0  0  0
  8 22  1  0  0  0
  8 36  1  0  0  0
  8 37  1  0  0  0
  9 21  1  0  0  0
  9 31  1  0  0  0
  9 38  1  0  0  0
  9 39  1  0  0  0
 10 40  1  0  0  0
 11 12  1  0  0  0
 11 14  2  0  0  0
 11 15  1  0  0  0
 12 17  1  0  0  0
 12 28  2  0  0  0
 13 28  1  0  0  0
 13 29  2  0  0  0
 13 55  1  0  0  0
 14 29  1  0  0  0
 14 31  1  0  0  0
 15 30  2  0  0  0
 15 41  1  0  0  0
 16 17  2  0  0  0
 16 18  1  0  0  0
 16 30  1  0  0  0
 17 26  1  0  0  0
 18 23  2  0  0  0
 19 20  1  0  0  0
 19 31  1  0  0  0
 19 42  1  0  0  0
 19 43  1  0  0  0
 20 22  1  0  0  0
 20 32  1  0  0  0
 20 44  1  0  0  0
 21 32  1  0  0  0
 21 45  1  0  0  0
 22 46  1  0  0  0
 22 47  1  0  0  0
 23 48  1  0  0  0
 24 25  3  0  0  0
 25 49  1  0  0  0
 32 50  1  0  0  0
 33 51  1  0  0  0
 52 55  1  0  0  0
 52 56  1  0  0  0
 52 60  1  0  0  0
 53 58  1  0  0  0
 53 59  1  0  0  0
 53 61  1  0  0  0
 54 56  1  0  0  0
 54 57  1  0  0  0
 54 59  2  0  0  0
 55 62  1  0  0  0
 55 63  1  0  0  0
 56 64  1  0  0  0
 56 65  1  0  0  0
 57 58  2  0  0  0
 57 66  1  0  0  0
 58 67  1  0  0  0
 59 68  1  0  0  0
M  END
> <s_m_entry_id>
291

> <s_m_entry_name>
000000291.1

> <s_m_Source_Path>
/Users/zaksoul/Documents/2

> <s_m_Source_File>
000000291.mol2

> <i_m_Source_File_Index>
1

$$$$
No_0_307
                    3D
 Schrodinger Suite 2022-4.
 70 76  0  0  1  0            999 V2000
   -5.1890    3.4370  -21.9460 C   0  0  0  0  0  0
   -5.4480    3.6160  -23.2840 C   0  0  0  0  0  0
   -3.9470    3.2180  -21.5940 C   0  0  0  0  0  0
   -3.0400    3.3640  -23.7510 C   0  0  0  0  0  0
   -2.8860    3.1260  -22.3290 C   0  0  0  0  0  0
   -4.3890    3.5900  -24.2850 C   0  0  0  0  0  0
   -3.6150    3.6280  -26.4760 C   0  0  0  0  0  0
    6.0820    3.1600  -21.1220 C   0  0  0  0  0  0
    5.9620    3.2950  -23.6730 C   0  0  0  0  0  0
   -4.6320    3.7080  -25.6230 C   0  0  0  0  0  0
    2.1650    3.7420  -23.7260 C   0  0  0  0  0  0
    1.3120    4.8290  -23.4360 C   0  0  0  0  0  0
    3.0720    6.0730  -22.7420 C   0  0  0  0  0  0
    3.5570    3.9700  -23.4000 C   0  0  0  0  0  0
    1.6540    2.6100  -24.3900 C   0  0  0  0  0  0
   -0.4950    3.3670  -24.3000 C   0  0  0  0  0  0
   -0.0060    4.6010  -23.6980 C   0  0  0  0  0  0
   -1.9440    3.3340  -24.6670 C   0  0  0  0  0  0
    4.2260    1.4900  -23.0980 C   0  0  0  0  0  0
    5.1580    1.1610  -21.9430 C   0  0  2  0  0  0
    6.7140    2.7420  -22.4680 C   0  0  2  0  0  0
    5.1030    2.1630  -20.7780 C   0  0  0  0  0  0
   -2.2610    3.4820  -26.0980 C   0  0  0  0  0  0
   -1.5370    2.7490  -21.7180 C   0  0  0  0  0  0
   -0.5020    2.4300  -21.2020 C   0  0  0  0  0  0
   -0.8780    5.6240  -23.3630 F   0  0  0  0  0  0
   -3.7430    2.9830  -20.2090 F   0  0  0  0  0  0
    1.7540    6.0010  -22.9020 N   0  0  0  0  0  0
    3.9950    5.1340  -22.9530 N   0  0  0  0  0  0
    0.3540    2.4850  -24.7060 N   0  0  0  0  0  0
    4.5040    2.9470  -23.5670 N   0  0  0  0  0  0
    6.5670    1.2640  -22.4130 N   0  0  1  0  0  0
   -3.7760    3.6350  -27.8680 O   0  0  0  0  0  0
   -5.9992    3.4802  -21.2271 H   0  0  0  0  0  0
   -6.4641    3.7837  -23.6224 H   0  0  0  0  0  0
    5.5864    4.1351  -21.2381 H   0  0  0  0  0  0
    6.8605    3.1923  -20.3455 H   0  0  0  0  0  0
    6.3766    2.8592  -24.5940 H   0  0  0  0  0  0
    6.0771    4.3884  -23.7073 H   0  0  0  0  0  0
   -5.6439    3.8656  -25.9784 H   0  0  0  0  0  0
    2.3171    1.7974  -24.6639 H   0  0  0  0  0  0
    3.1819    1.4063  -22.7621 H   0  0  0  0  0  0
    4.4137    0.7947  -23.9295 H   0  0  0  0  0  0
    4.9572    0.1441  -21.5748 H   0  0  0  0  0  0
    7.7756    3.0276  -22.5053 H   0  0  0  0  0  0
    4.1068    2.6283  -20.7437 H   0  0  0  0  0  0
    5.4087    1.6596  -19.8489 H   0  0  0  0  0  0
   -1.4845    3.4810  -26.8544 H   0  0  0  0  0  0
    0.4091    2.1490  -20.7480 H   0  0  0  0  0  0
    7.2210    0.7853  -21.6992 H   0  0  0  0  0  0
   -2.9252    3.5687  -28.2855 H   0  0  0  0  0  0
    3.9140    7.4050  -20.7990 N   0  0  1  0  0  0
    7.7460    9.9010  -21.2820 N   0  0  0  0  0  0
    8.1040    8.8410  -20.5290 N   0  0  0  0  0  0
    4.4020    8.7060  -20.2140 C   0  0  0  0  0  0
    3.5920    7.4270  -22.2720 C   0  0  0  0  0  0
    5.8590    9.0130  -20.5330 C   0  0  0  0  0  0
    6.9270    8.3350  -20.0920 C   0  0  0  0  0  0
    6.4440   10.0290  -21.3070 C   0  0  0  0  0  0
    5.7680   11.1430  -22.0800 C   0  0  0  0  0  0
    4.6694    6.6446  -20.6669 H   0  0  0  0  0  0
    9.0999    8.6050  -20.4130 H   0  0  0  0  0  0
    4.2630    8.6910  -19.1229 H   0  0  0  0  0  0
    3.7692    9.5298  -20.5759 H   0  0  0  0  0  0
    4.4964    7.6901  -22.8402 H   0  0  0  0  0  0
    2.8333    8.1987  -22.4689 H   0  0  0  0  0  0
    6.9170    7.4622  -19.4492 H   0  0  0  0  0  0
    4.6772   11.0619  -21.9639 H   0  0  0  0  0  0
    6.1059   12.1157  -21.6931 H   0  0  0  0  0  0
    6.0298   11.0621  -23.1453 H   0  0  0  0  0  0
  1  2  2  0  0  0
  1  3  1  0  0  0
  1 34  1  0  0  0
  2  6  1  0  0  0
  2 35  1  0  0  0
  3  5  2  0  0  0
  3 27  1  0  0  0
  4  5  1  0  0  0
  4  6  2  0  0  0
  4 18  1  0  0  0
  5 24  1  0  0  0
  6 10  1  0  0  0
  7 10  2  0  0  0
  7 23  1  0  0  0
  7 33  1  0  0  0
  8 21  1  0  0  0
  8 22  1  0  0  0
  8 36  1  0  0  0
  8 37  1  0  0  0
  9 21  1  0  0  0
  9 31  1  0  0  0
  9 38  1  0  0  0
  9 39  1  0  0  0
 10 40  1  0  0  0
 11 12  1  0  0  0
 11 14  2  0  0  0
 11 15  1  0  0  0
 12 17  1  0  0  0
 12 28  2  0  0  0
 13 28  1  0  0  0
 13 29  2  0  0  0
 13 56  1  0  0  0
 14 29  1  0  0  0
 14 31  1  0  0  0
 15 30  2  0  0  0
 15 41  1  0  0  0
 16 17  2  0  0  0
 16 18  1  0  0  0
 16 30  1  0  0  0
 17 26  1  0  0  0
 18 23  2  0  0  0
 19 20  1  0  0  0
 19 31  1  0  0  0
 19 42  1  0  0  0
 19 43  1  0  0  0
 20 22  1  0  0  0
 20 32  1  0  0  0
 20 44  1  0  0  0
 21 32  1  0  0  0
 21 45  1  0  0  0
 22 46  1  0  0  0
 22 47  1  0  0  0
 23 48  1  0  0  0
 24 25  3  0  0  0
 25 49  1  0  0  0
 32 50  1  0  0  0
 33 51  1  0  0  0
 52 55  1  0  0  0
 52 56  1  0  0  0
 52 61  1  0  0  0
 53 54  1  0  0  0
 53 59  2  0  0  0
 54 58  1  0  0  0
 54 62  1  0  0  0
 55 57  1  0  0  0
 55 63  1  0  0  0
 55 64  1  0  0  0
 56 65  1  0  0  0
 56 66  1  0  0  0
 57 58  2  0  0  0
 57 59  1  0  0  0
 58 67  1  0  0  0
 59 60  1  0  0  0
 60 68  1  0  0  0
 60 69  1  0  0  0
 60 70  1  0  0  0
M  END
> <s_m_entry_id>
292

> <s_m_entry_name>
000000292.1

> <s_m_Source_Path>
/Users/zaksoul/Documents/2

> <s_m_Source_File>
000000292.mol2

> <i_m_Source_File_Index>
1

$$$$
No_0_308
                    3D
 Schrodinger Suite 2022-4.
 70 76  0  0  1  0            999 V2000
   -5.0060    3.3340  -21.9890 C   0  0  0  0  0  0
   -5.2850    3.5230  -23.3220 C   0  0  0  0  0  0
   -3.7580    3.1250  -21.6560 C   0  0  0  0  0  0
   -2.8820    3.3020  -23.8240 C   0  0  0  0  0  0
   -2.7050    3.0530  -22.4060 C   0  0  0  0  0  0
   -4.2400    3.5170  -24.3370 C   0  0  0  0  0  0
   -3.4970    3.5840  -26.5390 C   0  0  0  0  0  0
    6.2770    3.1770  -21.3210 C   0  0  0  0  0  0
    6.1220    3.3330  -23.8690 C   0  0  0  0  0  0
   -4.5030    3.6450  -25.6710 C   0  0  0  0  0  0
    2.3190    3.7380  -23.8660 C   0  0  0  0  0  0
    1.4580    4.8130  -23.5540 C   0  0  0  0  0  0
    3.2130    6.0700  -22.8730 C   0  0  0  0  0  0
    3.7130    3.9790  -23.5570 C   0  0  0  0  0  0
    1.8120    2.6070  -24.5330 C   0  0  0  0  0  0
   -0.3440    3.3380  -24.4070 C   0  0  0  0  0  0
    0.1390    4.5730  -23.8010 C   0  0  0  0  0  0
   -1.7980    3.2920  -24.7550 C   0  0  0  0  0  0
    4.4130    1.5040  -23.2870 C   0  0  0  0  0  0
    5.3650    1.1750  -22.1470 C   0  0  2  0  0  0
    6.8960    2.7790  -22.6790 C   0  0  2  0  0  0
    5.3150    2.1660  -20.9730 C   0  0  0  0  0  0
   -2.1360    3.4500  -26.1800 C   0  0  0  0  0  0
   -1.3440    2.6860  -21.8170 C   0  0  0  0  0  0
   -0.2980    2.3730  -21.3180 C   0  0  0  0  0  0
   -0.7400    5.5830  -23.4440 F   0  0  0  0  0  0
   -3.5320    2.8800  -20.2770 F   0  0  0  0  0  0
    1.8940    5.9850  -23.0160 N   0  0  0  0  0  0
    4.1440    5.1440  -23.1040 N   0  0  0  0  0  0
    0.5080    2.4700  -24.8330 N   0  0  0  0  0  0
    4.6690    2.9680  -23.7460 N   0  0  0  0  0  0
    6.7660    1.2990  -22.6360 N   0  0  1  0  0  0
   -3.6770    3.6030  -27.9270 O   0  0  0  0  0  0
   -5.8061    3.3611  -21.2582 H   0  0  0  0  0  0
   -6.3078    3.6816  -23.6442 H   0  0  0  0  0  0
    5.7694    4.1478  -21.4209 H   0  0  0  0  0  0
    7.0660    3.2113  -20.5553 H   0  0  0  0  0  0
    6.5280    2.9109  -24.8001 H   0  0  0  0  0  0
    6.2229    4.4281  -23.8942 H   0  0  0  0  0  0
   -5.5212    3.7946  -26.0114 H   0  0  0  0  0  0
    2.4801    1.8045  -24.8239 H   0  0  0  0  0  0
    3.3745    1.4061  -22.9378 H   0  0  0  0  0  0
    4.5977    0.8189  -24.1275 H   0  0  0  0  0  0
    5.1803    0.1526  -21.7857 H   0  0  0  0  0  0
    7.9538    3.0768  -22.7285 H   0  0  0  0  0  0
    4.3140    2.6191  -20.9205 H   0  0  0  0  0  0
    5.6378    1.6566  -20.0530 H   0  0  0  0  0  0
   -1.3696    3.4650  -26.9464 H   0  0  0  0  0  0
    0.6222    2.0980  -20.8789 H   0  0  0  0  0  0
    7.4349    0.8203  -21.9361 H   0  0  0  0  0  0
   -2.8316    3.5496  -28.3571 H   0  0  0  0  0  0
    4.3360    7.3250  -21.0220 N   0  0  1  0  0  0
    7.8150   10.1600  -22.0250 N   0  0  0  0  0  0
    8.3890    9.0830  -21.4510 N   0  0  0  0  0  0
    4.8440    8.6170  -20.4330 C   0  0  0  0  0  0
    3.7240    7.4260  -22.3970 C   0  0  0  0  0  0
    6.1820    9.0660  -21.0030 C   0  0  0  0  0  0
    7.3600    8.4500  -20.8390 C   0  0  0  0  0  0
    6.5290   10.1810  -21.7840 C   0  0  0  0  0  0
    5.6390   11.2880  -22.3110 C   0  0  0  0  0  0
    5.1522    6.6228  -21.1070 H   0  0  0  0  0  0
    9.4014    8.9229  -21.5530 H   0  0  0  0  0  0
    4.9281    8.5129  -19.3412 H   0  0  0  0  0  0
    4.0966    9.4083  -20.5919 H   0  0  0  0  0  0
    4.4751    7.8041  -23.1061 H   0  0  0  0  0  0
    2.8910    8.1440  -22.3750 H   0  0  0  0  0  0
    7.5390    7.5362  -20.2841 H   0  0  0  0  0  0
    4.6018   11.1071  -21.9923 H   0  0  0  0  0  0
    5.9810   12.2551  -21.9139 H   0  0  0  0  0  0
    5.6860   11.3050  -23.4099 H   0  0  0  0  0  0
  1  2  2  0  0  0
  1  3  1  0  0  0
  1 34  1  0  0  0
  2  6  1  0  0  0
  2 35  1  0  0  0
  3  5  2  0  0  0
  3 27  1  0  0  0
  4  5  1  0  0  0
  4  6  2  0  0  0
  4 18  1  0  0  0
  5 24  1  0  0  0
  6 10  1  0  0  0
  7 10  2  0  0  0
  7 23  1  0  0  0
  7 33  1  0  0  0
  8 21  1  0  0  0
  8 22  1  0  0  0
  8 36  1  0  0  0
  8 37  1  0  0  0
  9 21  1  0  0  0
  9 31  1  0  0  0
  9 38  1  0  0  0
  9 39  1  0  0  0
 10 40  1  0  0  0
 11 12  1  0  0  0
 11 14  2  0  0  0
 11 15  1  0  0  0
 12 17  1  0  0  0
 12 28  2  0  0  0
 13 28  1  0  0  0
 13 29  2  0  0  0
 13 56  1  0  0  0
 14 29  1  0  0  0
 14 31  1  0  0  0
 15 30  2  0  0  0
 15 41  1  0  0  0
 16 17  2  0  0  0
 16 18  1  0  0  0
 16 30  1  0  0  0
 17 26  1  0  0  0
 18 23  2  0  0  0
 19 20  1  0  0  0
 19 31  1  0  0  0
 19 42  1  0  0  0
 19 43  1  0  0  0
 20 22  1  0  0  0
 20 32  1  0  0  0
 20 44  1  0  0  0
 21 32  1  0  0  0
 21 45  1  0  0  0
 22 46  1  0  0  0
 22 47  1  0  0  0
 23 48  1  0  0  0
 24 25  3  0  0  0
 25 49  1  0  0  0
 32 50  1  0  0  0
 33 51  1  0  0  0
 52 55  1  0  0  0
 52 56  1  0  0  0
 52 61  1  0  0  0
 53 54  1  0  0  0
 53 59  2  0  0  0
 54 58  1  0  0  0
 54 62  1  0  0  0
 55 57  1  0  0  0
 55 63  1  0  0  0
 55 64  1  0  0  0
 56 65  1  0  0  0
 56 66  1  0  0  0
 57 58  2  0  0  0
 57 59  1  0  0  0
 58 67  1  0  0  0
 59 60  1  0  0  0
 60 68  1  0  0  0
 60 69  1  0  0  0
 60 70  1  0  0  0
M  END
> <s_m_entry_id>
293

> <s_m_entry_name>
000000293.1

> <s_m_Source_Path>
/Users/zaksoul/Documents/2

> <s_m_Source_File>
000000293.mol2

> <i_m_Source_File_Index>
1

$$$$
No_0_309
                    3D
 Schrodinger Suite 2022-4.
 70 76  0  0  1  0            999 V2000
   -5.2580    3.5960  -21.9910 C   0  0  0  0  0  0
   -5.4860    3.7930  -23.3330 C   0  0  0  0  0  0
   -4.0250    3.3670  -21.6140 C   0  0  0  0  0  0
   -3.0700    3.5370  -23.7490 C   0  0  0  0  0  0
   -2.9480    3.2810  -22.3270 C   0  0  0  0  0  0
   -4.4060    3.7740  -24.3100 C   0  0  0  0  0  0
   -3.5830    3.8370  -26.4830 C   0  0  0  0  0  0
    5.9900    3.2670  -20.9190 C   0  0  0  0  0  0
    5.9290    3.4340  -23.4700 C   0  0  0  0  0  0
   -4.6180    3.9110  -25.6510 C   0  0  0  0  0  0
    2.1350    3.8960  -23.6020 C   0  0  0  0  0  0
    1.2800    4.9820  -23.3180 C   0  0  0  0  0  0
    3.0280    6.2110  -22.5690 C   0  0  0  0  0  0
    3.5200    4.1150  -23.2430 C   0  0  0  0  0  0
    1.6350    2.7740  -24.2910 C   0  0  0  0  0  0
   -0.5120    3.5370  -24.2400 C   0  0  0  0  0  0
   -0.0330    4.7630  -23.6120 C   0  0  0  0  0  0
   -1.9530    3.5140  -24.6400 C   0  0  0  0  0  0
    4.1730    1.6280  -22.9570 C   0  0  0  0  0  0
    5.0790    1.2820  -21.7850 C   0  0  2  0  0  0
    6.6520    2.8640  -22.2550 C   0  0  2  0  0  0
    5.0010    2.2700  -20.6090 C   0  0  0  0  0  0
   -2.2370    3.6820  -26.0760 C   0  0  0  0  0  0
   -1.6140    2.8920  -21.6900 C   0  0  0  0  0  0
   -0.5920    2.5620  -21.1550 C   0  0  0  0  0  0
   -0.9090    5.7850  -23.2840 F   0  0  0  0  0  0
   -3.8530    3.1150  -20.2280 F   0  0  0  0  0  0
    1.7130    6.1460  -22.7600 N   0  0  0  0  0  0
    3.9520    5.2710  -22.7710 N   0  0  0  0  0  0
    0.3420    2.6580  -24.6390 N   0  0  0  0  0  0
    4.4670    3.0900  -23.4010 N   0  0  0  0  0  0
    6.4980    1.3860  -22.2220 N   0  0  1  0  0  0
   -3.7120    3.8630  -27.8770 O   0  0  0  0  0  0
   -6.0833    3.6331  -21.2892 H   0  0  0  0  0  0
   -6.4942    3.9687  -23.6905 H   0  0  0  0  0  0
    5.5004    4.2453  -21.0341 H   0  0  0  0  0  0
    6.7519    3.2872  -20.1258 H   0  0  0  0  0  0
    6.3619    3.0082  -24.3872 H   0  0  0  0  0  0
    6.0471    4.5275  -23.4882 H   0  0  0  0  0  0
   -5.6209    4.0767  -26.0275 H   0  0  0  0  0  0
    2.3022    1.9634  -24.5609 H   0  0  0  0  0  0
    3.1215    1.5442  -22.6452 H   0  0  0  0  0  0
    4.3780    0.9433  -23.7932 H   0  0  0  0  0  0
    4.8662    0.2614  -21.4341 H   0  0  0  0  0  0
    7.7153    3.1457  -22.2661 H   0  0  0  0  0  0
    4.0054    2.7375  -20.5918 H   0  0  0  0  0  0
    5.2834    1.7527  -19.6802 H   0  0  0  0  0  0
   -1.4439    3.6880  -26.8149 H   0  0  0  0  0  0
    0.3081    2.2720  -20.6850 H   0  0  0  0  0  0
    7.1342    0.8952  -21.5003 H   0  0  0  0  0  0
   -2.8523    3.7986  -28.2761 H   0  0  0  0  0  0
    5.0370    7.5350  -21.8850 N   0  0  1  0  0  0
    5.6250   11.7640  -23.5920 N   0  0  0  0  0  0
    6.5270   10.9930  -24.2330 N   0  0  0  0  0  0
    5.6520    8.8060  -21.3570 C   0  0  0  0  0  0
    3.5410    7.5570  -22.0700 C   0  0  0  0  0  0
    5.7940    9.9000  -22.4070 C   0  0  0  0  0  0
    6.6000    9.8730  -23.4750 C   0  0  0  0  0  0
    5.1770   11.1560  -22.5240 C   0  0  0  0  0  0
    4.1500   11.8010  -21.6140 C   0  0  0  0  0  0
    5.4571    7.3059  -22.8532 H   0  0  0  0  0  0
    6.9708   11.3318  -25.0985 H   0  0  0  0  0  0
    6.6397    8.5831  -20.9271 H   0  0  0  0  0  0
    5.0493    9.1828  -20.5175 H   0  0  0  0  0  0
    3.2731    8.3417  -22.7928 H   0  0  0  0  0  0
    3.0570    7.8020  -21.1131 H   0  0  0  0  0  0
    7.2671    9.0679  -23.7610 H   0  0  0  0  0  0
    3.9181   11.1193  -20.7824 H   0  0  0  0  0  0
    4.5549   12.7419  -21.2131 H   0  0  0  0  0  0
    3.2326   12.0091  -22.1842 H   0  0  0  0  0  0
  1  2  2  0  0  0
  1  3  1  0  0  0
  1 34  1  0  0  0
  2  6  1  0  0  0
  2 35  1  0  0  0
  3  5  2  0  0  0
  3 27  1  0  0  0
  4  5  1  0  0  0
  4  6  2  0  0  0
  4 18  1  0  0  0
  5 24  1  0  0  0
  6 10  1  0  0  0
  7 10  2  0  0  0
  7 23  1  0  0  0
  7 33  1  0  0  0
  8 21  1  0  0  0
  8 22  1  0  0  0
  8 36  1  0  0  0
  8 37  1  0  0  0
  9 21  1  0  0  0
  9 31  1  0  0  0
  9 38  1  0  0  0
  9 39  1  0  0  0
 10 40  1  0  0  0
 11 12  1  0  0  0
 11 14  2  0  0  0
 11 15  1  0  0  0
 12 17  1  0  0  0
 12 28  2  0  0  0
 13 28  1  0  0  0
 13 29  2  0  0  0
 13 56  1  0  0  0
 14 29  1  0  0  0
 14 31  1  0  0  0
 15 30  2  0  0  0
 15 41  1  0  0  0
 16 17  2  0  0  0
 16 18  1  0  0  0
 16 30  1  0  0  0
 17 26  1  0  0  0
 18 23  2  0  0  0
 19 20  1  0  0  0
 19 31  1  0  0  0
 19 42  1  0  0  0
 19 43  1  0  0  0
 20 22  1  0  0  0
 20 32  1  0  0  0
 20 44  1  0  0  0
 21 32  1  0  0  0
 21 45  1  0  0  0
 22 46  1  0  0  0
 22 47  1  0  0  0
 23 48  1  0  0  0
 24 25  3  0  0  0
 25 49  1  0  0  0
 32 50  1  0  0  0
 33 51  1  0  0  0
 52 55  1  0  0  0
 52 56  1  0  0  0
 52 61  1  0  0  0
 53 54  1  0  0  0
 53 59  2  0  0  0
 54 58  1  0  0  0
 54 62  1  0  0  0
 55 57  1  0  0  0
 55 63  1  0  0  0
 55 64  1  0  0  0
 56 65  1  0  0  0
 56 66  1  0  0  0
 57 58  2  0  0  0
 57 59  1  0  0  0
 58 67  1  0  0  0
 59 60  1  0  0  0
 60 68  1  0  0  0
 60 69  1  0  0  0
 60 70  1  0  0  0
M  END
> <s_m_entry_id>
294

> <s_m_entry_name>
000000294.1

> <s_m_Source_Path>
/Users/zaksoul/Documents/2

> <s_m_Source_File>
000000294.mol2

> <i_m_Source_File_Index>
1

$$$$
No_0_310
                    3D
 Schrodinger Suite 2022-4.
 71 77  0  0  1  0            999 V2000
   -5.3630    3.3380  -21.9660 C   0  0  0  0  0  0
   -5.6300    3.5200  -23.3020 C   0  0  0  0  0  0
   -4.1210    3.1040  -21.6230 C   0  0  0  0  0  0
   -3.2290    3.2410  -23.7870 C   0  0  0  0  0  0
   -3.0670    3.0010  -22.3660 C   0  0  0  0  0  0
   -4.5800    3.4820  -24.3100 C   0  0  0  0  0  0
   -3.8220    3.5130  -26.5080 C   0  0  0  0  0  0
    5.9100    2.9350  -21.2270 C   0  0  0  0  0  0
    5.7730    3.0720  -23.7770 C   0  0  0  0  0  0
   -4.8310    3.6040  -25.6460 C   0  0  0  0  0  0
    1.9800    3.5610  -23.8000 C   0  0  0  0  0  0
    1.1420    4.6580  -23.5040 C   0  0  0  0  0  0
    2.9210    5.8820  -22.8230 C   0  0  0  0  0  0
    3.3770    3.7740  -23.4850 C   0  0  0  0  0  0
    1.4520    2.4350  -24.4610 C   0  0  0  0  0  0
   -0.6880    3.2160  -24.3540 C   0  0  0  0  0  0
   -0.1810    4.4450  -23.7560 C   0  0  0  0  0  0
   -2.1400    3.1990  -24.7110 C   0  0  0  0  0  0
    4.0200    1.2860  -23.1890 C   0  0  0  0  0  0
    4.9580    0.9460  -22.0410 C   0  0  2  0  0  0
    6.5280    2.5110  -22.5770 C   0  0  2  0  0  0
    4.9230    1.9490  -20.8750 C   0  0  0  0  0  0
   -2.4660    3.3520  -26.1400 C   0  0  0  0  0  0
   -1.7170    2.6090  -21.7650 C   0  0  0  0  0  0
   -0.6820    2.2780  -21.2570 C   0  0  0  0  0  0
   -1.0390    5.4770  -23.4140 F   0  0  0  0  0  0
   -3.9090    2.8670  -20.2400 F   0  0  0  0  0  0
    1.6000    5.8240  -22.9730 N   0  0  0  0  0  0
    3.8320    4.9330  -23.0410 N   0  0  0  0  0  0
    0.1480    2.3250  -24.7680 N   0  0  0  0  0  0
    4.3110    2.7400  -23.6600 N   0  0  0  0  0  0
    6.3640    1.0340  -22.5210 N   0  0  1  0  0  0
   -3.9930    3.5230  -27.8980 O   0  0  0  0  0  0
   -6.1668    3.3892  -21.2405 H   0  0  0  0  0  0
   -6.6467    3.6997  -23.6322 H   0  0  0  0  0  0
    5.4243    3.9156  -21.3391 H   0  0  0  0  0  0
    6.6947    2.9582  -20.4565 H   0  0  0  0  0  0
    6.1756    2.6320  -24.7013 H   0  0  0  0  0  0
    5.8992    4.1642  -23.8113 H   0  0  0  0  0  0
   -5.8435    3.7736  -25.9942 H   0  0  0  0  0  0
    2.1045    1.6159  -24.7411 H   0  0  0  0  0  0
    2.9778    1.2143  -22.8446 H   0  0  0  0  0  0
    4.1946    0.5897  -24.0225 H   0  0  0  0  0  0
    4.7480   -0.0686  -21.6715 H   0  0  0  0  0  0
    7.5924    2.7847  -22.6224 H   0  0  0  0  0  0
    3.9319    2.4244  -20.8336 H   0  0  0  0  0  0
    5.2297    1.4406  -19.9490 H   0  0  0  0  0  0
   -1.6950    3.3430  -26.9019 H   0  0  0  0  0  0
    0.2291    1.9860  -20.8100 H   0  0  0  0  0  0
    7.0185    0.5474  -21.8130 H   0  0  0  0  0  0
   -3.1460    3.4478  -28.3215 H   0  0  0  0  0  0
    3.7890    7.1970  -20.8860 N   0  0  1  0  0  0
    5.9040    9.8380  -21.5770 N   0  0  0  0  0  0
    8.1120    8.3350  -20.6750 N   0  0  0  0  0  0
    4.3370    8.4830  -20.3220 C   0  0  0  0  0  0
    3.4590    7.2300  -22.3560 C   0  0  0  0  0  0
    5.7670    8.7900  -20.7510 C   0  0  0  0  0  0
    6.8530    8.0500  -20.3110 C   0  0  0  0  0  0
    6.6940    6.8490  -19.3940 C   0  0  0  0  0  0
    8.2390    9.3840  -21.4960 C   0  0  0  0  0  0
    7.1640   10.1140  -21.9370 C   0  0  0  0  0  0
    4.5141    6.4079  -20.7520 H   0  0  0  0  0  0
    4.2840    8.4510  -19.2237 H   0  0  0  0  0  0
    3.6816    9.3175  -20.6122 H   0  0  0  0  0  0
    4.3634    7.4821  -22.9292 H   0  0  0  0  0  0
    2.7064    8.0096  -22.5449 H   0  0  0  0  0  0
    5.6291    6.7050  -19.1590 H   0  0  0  0  0  0
    7.0829    5.9502  -19.8949 H   0  0  0  0  0  0
    7.2540    7.0210  -18.4630 H   0  0  0  0  0  0
    9.2210    9.6880  -21.8400 H   0  0  0  0  0  0
    7.3669   10.9436  -22.6046 H   0  0  0  0  0  0
  1  2  2  0  0  0
  1  3  1  0  0  0
  1 34  1  0  0  0
  2  6  1  0  0  0
  2 35  1  0  0  0
  3  5  2  0  0  0
  3 27  1  0  0  0
  4  5  1  0  0  0
  4  6  2  0  0  0
  4 18  1  0  0  0
  5 24  1  0  0  0
  6 10  1  0  0  0
  7 10  2  0  0  0
  7 23  1  0  0  0
  7 33  1  0  0  0
  8 21  1  0  0  0
  8 22  1  0  0  0
  8 36  1  0  0  0
  8 37  1  0  0  0
  9 21  1  0  0  0
  9 31  1  0  0  0
  9 38  1  0  0  0
  9 39  1  0  0  0
 10 40  1  0  0  0
 11 12  1  0  0  0
 11 14  2  0  0  0
 11 15  1  0  0  0
 12 17  1  0  0  0
 12 28  2  0  0  0
 13 28  1  0  0  0
 13 29  2  0  0  0
 13 56  1  0  0  0
 14 29  1  0  0  0
 14 31  1  0  0  0
 15 30  2  0  0  0
 15 41  1  0  0  0
 16 17  2  0  0  0
 16 18  1  0  0  0
 16 30  1  0  0  0
 17 26  1  0  0  0
 18 23  2  0  0  0
 19 20  1  0  0  0
 19 31  1  0  0  0
 19 42  1  0  0  0
 19 43  1  0  0  0
 20 22  1  0  0  0
 20 32  1  0  0  0
 20 44  1  0  0  0
 21 32  1  0  0  0
 21 45  1  0  0  0
 22 46  1  0  0  0
 22 47  1  0  0  0
 23 48  1  0  0  0
 24 25  3  0  0  0
 25 49  1  0  0  0
 32 50  1  0  0  0
 33 51  1  0  0  0
 52 55  1  0  0  0
 52 56  1  0  0  0
 52 62  1  0  0  0
 53 57  2  0  0  0
 53 61  1  0  0  0
 54 58  2  0  0  0
 54 60  1  0  0  0
 55 57  1  0  0  0
 55 63  1  0  0  0
 55 64  1  0  0  0
 56 65  1  0  0  0
 56 66  1  0  0  0
 57 58  1  0  0  0
 58 59  1  0  0  0
 59 67  1  0  0  0
 59 68  1  0  0  0
 59 69  1  0  0  0
 60 61  2  0  0  0
 60 70  1  0  0  0
 61 71  1  0  0  0
M  END
> <s_m_entry_id>
295

> <s_m_entry_name>
000000295.1

> <s_m_Source_Path>
/Users/zaksoul/Documents/2

> <s_m_Source_File>
000000295.mol2

> <i_m_Source_File_Index>
1

$$$$
No_0_311
                    3D
 Schrodinger Suite 2022-4.
 71 77  0  0  1  0            999 V2000
   -5.1380    3.3910  -22.0100 C   0  0  0  0  0  0
   -5.3870    3.5680  -23.3500 C   0  0  0  0  0  0
   -3.8990    3.1770  -21.6470 C   0  0  0  0  0  0
   -2.9750    3.3280  -23.7970 C   0  0  0  0  0  0
   -2.8310    3.0910  -22.3740 C   0  0  0  0  0  0
   -4.3210    3.5470  -24.3420 C   0  0  0  0  0  0
   -3.5290    3.5880  -26.5270 C   0  0  0  0  0  0
    6.1260    3.1720  -21.0950 C   0  0  0  0  0  0
    6.0270    3.3050  -23.6460 C   0  0  0  0  0  0
   -4.5530    3.6640  -25.6820 C   0  0  0  0  0  0
    2.2280    3.7330  -23.7300 C   0  0  0  0  0  0
    1.3670    4.8150  -23.4470 C   0  0  0  0  0  0
    3.1150    6.0690  -22.7400 C   0  0  0  0  0  0
    3.6160    3.9680  -23.3930 C   0  0  0  0  0  0
    1.7290    2.5980  -24.3970 C   0  0  0  0  0  0
   -0.4250    3.3440  -24.3250 C   0  0  0  0  0  0
    0.0530    4.5810  -23.7200 C   0  0  0  0  0  0
   -1.8710    3.3030  -24.7040 C   0  0  0  0  0  0
    4.2950    1.4920  -23.0850 C   0  0  0  0  0  0
    5.2200    1.1680  -21.9210 C   0  0  2  0  0  0
    6.7720    2.7570  -22.4340 C   0  0  2  0  0  0
    5.1500    2.1700  -20.7570 C   0  0  0  0  0  0
   -2.1770    3.4500  -26.1380 C   0  0  0  0  0  0
   -1.4850    2.7220  -21.7510 C   0  0  0  0  0  0
   -0.4520    2.4080  -21.2270 C   0  0  0  0  0  0
   -0.8280    5.6000  -23.3920 F   0  0  0  0  0  0
   -3.7040    2.9440  -20.2610 F   0  0  0  0  0  0
    1.7980    5.9900  -22.9100 N   0  0  0  0  0  0
    4.0450    5.1340  -22.9420 N   0  0  0  0  0  0
    0.4310    2.4660  -24.7250 N   0  0  0  0  0  0
    4.5700    2.9500  -23.5520 N   0  0  0  0  0  0
    6.6320    1.2780  -22.3800 N   0  0  1  0  0  0
   -3.6790    3.5950  -27.9200 O   0  0  0  0  0  0
   -5.9539    3.4301  -21.2974 H   0  0  0  0  0  0
   -6.4013    3.7305  -23.6961 H   0  0  0  0  0  0
    5.6261    4.1445  -21.2152 H   0  0  0  0  0  0
    6.8983    3.2083  -20.3126 H   0  0  0  0  0  0
    6.4506    2.8713  -24.5638 H   0  0  0  0  0  0
    6.1360    4.3991  -23.6793 H   0  0  0  0  0  0
   -5.5630    3.8156  -26.0454 H   0  0  0  0  0  0
    2.3985    1.7890  -24.6660 H   0  0  0  0  0  0
    3.2488    1.4032  -22.7571 H   0  0  0  0  0  0
    4.4938    0.7976  -23.9146 H   0  0  0  0  0  0
    5.0212    0.1500  -21.5548 H   0  0  0  0  0  0
    7.8325    3.0476  -22.4633 H   0  0  0  0  0  0
    4.1508    2.6292  -20.7318 H   0  0  0  0  0  0
    5.4507    1.6676  -19.8258 H   0  0  0  0  0  0
   -1.3941    3.4530  -26.8878 H   0  0  0  0  0  0
    0.4566    2.1308  -20.7657 H   0  0  0  0  0  0
    7.2824    0.8020  -21.6611 H   0  0  0  0  0  0
   -2.8245    3.5327  -28.3304 H   0  0  0  0  0  0
    4.3340    7.3020  -20.9420 N   0  0  1  0  0  0
    5.9220   10.2380  -21.8230 N   0  0  0  0  0  0
    8.4260    8.9480  -21.6960 N   0  0  0  0  0  0
    4.8830    8.5890  -20.3840 C   0  0  0  0  0  0
    3.6240    7.4260  -22.2650 C   0  0  0  0  0  0
    6.1120    9.1120  -21.1210 C   0  0  0  0  0  0
    7.3420    8.4760  -21.0630 C   0  0  0  0  0  0
    7.5490    7.1870  -20.2860 C   0  0  0  0  0  0
    8.2280   10.0750  -22.3910 C   0  0  0  0  0  0
    7.0080   10.7020  -22.4550 C   0  0  0  0  0  0
    5.1409    6.6000  -21.0920 H   0  0  0  0  0  0
    5.1269    8.4510  -19.3203 H   0  0  0  0  0  0
    4.0963    9.3577  -20.3970 H   0  0  0  0  0  0
    4.3150    7.8400  -23.0140 H   0  0  0  0  0  0
    2.7759    8.1191  -22.1630 H   0  0  0  0  0  0
    6.6035    6.8898  -19.8088 H   0  0  0  0  0  0
    7.8768    6.3934  -20.9736 H   0  0  0  0  0  0
    8.3171    7.3420  -19.5139 H   0  0  0  0  0  0
    9.0495   10.5303  -22.9323 H   0  0  0  0  0  0
    6.9450   11.6079  -23.0469 H   0  0  0  0  0  0
  1  2  2  0  0  0
  1  3  1  0  0  0
  1 34  1  0  0  0
  2  6  1  0  0  0
  2 35  1  0  0  0
  3  5  2  0  0  0
  3 27  1  0  0  0
  4  5  1  0  0  0
  4  6  2  0  0  0
  4 18  1  0  0  0
  5 24  1  0  0  0
  6 10  1  0  0  0
  7 10  2  0  0  0
  7 23  1  0  0  0
  7 33  1  0  0  0
  8 21  1  0  0  0
  8 22  1  0  0  0
  8 36  1  0  0  0
  8 37  1  0  0  0
  9 21  1  0  0  0
  9 31  1  0  0  0
  9 38  1  0  0  0
  9 39  1  0  0  0
 10 40  1  0  0  0
 11 12  1  0  0  0
 11 14  2  0  0  0
 11 15  1  0  0  0
 12 17  1  0  0  0
 12 28  2  0  0  0
 13 28  1  0  0  0
 13 29  2  0  0  0
 13 56  1  0  0  0
 14 29  1  0  0  0
 14 31  1  0  0  0
 15 30  2  0  0  0
 15 41  1  0  0  0
 16 17  2  0  0  0
 16 18  1  0  0  0
 16 30  1  0  0  0
 17 26  1  0  0  0
 18 23  2  0  0  0
 19 20  1  0  0  0
 19 31  1  0  0  0
 19 42  1  0  0  0
 19 43  1  0  0  0
 20 22  1  0  0  0
 20 32  1  0  0  0
 20 44  1  0  0  0
 21 32  1  0  0  0
 21 45  1  0  0  0
 22 46  1  0  0  0
 22 47  1  0  0  0
 23 48  1  0  0  0
 24 25  3  0  0  0
 25 49  1  0  0  0
 32 50  1  0  0  0
 33 51  1  0  0  0
 52 55  1  0  0  0
 52 56  1  0  0  0
 52 62  1  0  0  0
 53 57  2  0  0  0
 53 61  1  0  0  0
 54 58  2  0  0  0
 54 60  1  0  0  0
 55 57  1  0  0  0
 55 63  1  0  0  0
 55 64  1  0  0  0
 56 65  1  0  0  0
 56 66  1  0  0  0
 57 58  1  0  0  0
 58 59  1  0  0  0
 59 67  1  0  0  0
 59 68  1  0  0  0
 59 69  1  0  0  0
 60 61  2  0  0  0
 60 70  1  0  0  0
 61 71  1  0  0  0
M  END
> <s_m_entry_id>
296

> <s_m_entry_name>
000000296.1

> <s_m_Source_Path>
/Users/zaksoul/Documents/2

> <s_m_Source_File>
000000296.mol2

> <i_m_Source_File_Index>
1

$$$$
No_0_312
                    3D
 Schrodinger Suite 2022-4.
 69 75  0  0  1  0            999 V2000
   -5.1970    3.4610  -21.8570 C   0  0  0  0  0  0
   -5.4750    3.6500  -23.1900 C   0  0  0  0  0  0
   -3.9550    3.2170  -21.5260 C   0  0  0  0  0  0
   -3.0810    3.3550  -23.6980 C   0  0  0  0  0  0
   -2.9070    3.1090  -22.2800 C   0  0  0  0  0  0
   -4.4340    3.6080  -24.2090 C   0  0  0  0  0  0
   -3.6960    3.6400  -26.4120 C   0  0  0  0  0  0
    6.0780    2.9740  -21.2230 C   0  0  0  0  0  0
    5.9190    3.1200  -23.7710 C   0  0  0  0  0  0
   -4.6970    3.7360  -25.5420 C   0  0  0  0  0  0
    2.1300    3.6380  -23.7580 C   0  0  0  0  0  0
    1.3020    4.7390  -23.4510 C   0  0  0  0  0  0
    3.0960    5.9480  -22.7820 C   0  0  0  0  0  0
    3.5310    3.8390  -23.4560 C   0  0  0  0  0  0
    1.5880    2.5170  -24.4180 C   0  0  0  0  0  0
   -0.5450    3.3130  -24.2890 C   0  0  0  0  0  0
   -0.0240    4.5370  -23.6920 C   0  0  0  0  0  0
   -2.0010    3.3080  -24.6320 C   0  0  0  0  0  0
    4.1590    1.3460  -23.1740 C   0  0  0  0  0  0
    5.1050    0.9950  -22.0350 C   0  0  2  0  0  0
    6.6810    2.5500  -22.5800 C   0  0  2  0  0  0
    5.0870    1.9940  -20.8660 C   0  0  0  0  0  0
   -2.3380    3.4680  -26.0580 C   0  0  0  0  0  0
   -1.5550    2.7050  -21.6920 C   0  0  0  0  0  0
   -0.5180    2.3650  -21.1950 C   0  0  0  0  0  0
   -0.8710    5.5740  -23.3380 F   0  0  0  0  0  0
   -3.7310    2.9730  -20.1460 F   0  0  0  0  0  0
    1.7740    5.9010  -22.9200 N   0  0  0  0  0  0
    3.9990    4.9930  -23.0110 N   0  0  0  0  0  0
    0.2800    2.4180  -24.7130 N   0  0  0  0  0  0
    4.4560    2.7990  -23.6420 N   0  0  0  0  0  0
    6.5070    1.0750  -22.5280 N   0  0  1  0  0  0
   -3.8800    3.6560  -27.8010 O   0  0  0  0  0  0
   -5.9940    3.5162  -21.1243 H   0  0  0  0  0  0
   -6.4935    3.8376  -23.5101 H   0  0  0  0  0  0
    5.5984    3.9585  -21.3270 H   0  0  0  0  0  0
    6.8702    2.9891  -20.4600 H   0  0  0  0  0  0
    6.3097    2.6808  -24.7008 H   0  0  0  0  0  0
    6.0531    4.2113  -23.8033 H   0  0  0  0  0  0
   -5.7115    3.9136  -25.8802 H   0  0  0  0  0  0
    2.2316    1.6937  -24.7062 H   0  0  0  0  0  0
    3.1196    1.2804  -22.8198 H   0  0  0  0  0  0
    4.3205    0.6505  -24.0108 H   0  0  0  0  0  0
    4.8911   -0.0192  -21.6667 H   0  0  0  0  0  0
    7.7471    2.8155  -22.6345 H   0  0  0  0  0  0
    4.0998    2.4765  -20.8135 H   0  0  0  0  0  0
    5.3986    1.4807  -19.9443 H   0  0  0  0  0  0
   -1.5741    3.4560  -26.8270 H   0  0  0  0  0  0
    0.3952    2.0649  -20.7579 H   0  0  0  0  0  0
    7.1638    0.5808  -21.8274 H   0  0  0  0  0  0
   -3.0379    3.5758  -28.2334 H   0  0  0  0  0  0
    6.5030    9.3800  -22.4650 O   0  0  0  0  0  0
    4.3890    7.1520  -21.0100 N   0  0  1  0  0  0
    8.4320    8.5670  -22.0680 N   0  0  0  0  0  0
    5.1270    8.3860  -20.5610 C   0  0  0  0  0  0
    3.6480    7.2900  -22.3150 C   0  0  0  0  0  0
    6.4180    8.5940  -21.3360 C   0  0  0  0  0  0
    8.0830    7.1580  -19.9760 C   0  0  0  0  0  0
    7.6190    8.0820  -21.0820 C   0  0  0  0  0  0
    7.7080    9.3280  -22.8530 C   0  0  0  0  0  0
    5.0898    6.3403  -21.1380 H   0  0  0  0  0  0
    5.3541    8.3060  -19.4877 H   0  0  0  0  0  0
    4.4790    9.2659  -20.6870 H   0  0  0  0  0  0
    4.3269    7.6930  -23.0809 H   0  0  0  0  0  0
    2.8202    8.0038  -22.1920 H   0  0  0  0  0  0
    7.2349    6.9180  -19.3179 H   0  0  0  0  0  0
    8.4789    6.2303  -20.4149 H   0  0  0  0  0  0
    8.8733    7.6522  -19.3918 H   0  0  0  0  0  0
    8.1670    9.8170  -23.7110 H   0  0  0  0  0  0
  1  2  2  0  0  0
  1  3  1  0  0  0
  1 34  1  0  0  0
  2  6  1  0  0  0
  2 35  1  0  0  0
  3  5  2  0  0  0
  3 27  1  0  0  0
  4  5  1  0  0  0
  4  6  2  0  0  0
  4 18  1  0  0  0
  5 24  1  0  0  0
  6 10  1  0  0  0
  7 10  2  0  0  0
  7 23  1  0  0  0
  7 33  1  0  0  0
  8 21  1  0  0  0
  8 22  1  0  0  0
  8 36  1  0  0  0
  8 37  1  0  0  0
  9 21  1  0  0  0
  9 31  1  0  0  0
  9 38  1  0  0  0
  9 39  1  0  0  0
 10 40  1  0  0  0
 11 12  1  0  0  0
 11 14  2  0  0  0
 11 15  1  0  0  0
 12 17  1  0  0  0
 12 28  2  0  0  0
 13 28  1  0  0  0
 13 29  2  0  0  0
 13 56  1  0  0  0
 14 29  1  0  0  0
 14 31  1  0  0  0
 15 30  2  0  0  0
 15 41  1  0  0  0
 16 17  2  0  0  0
 16 18  1  0  0  0
 16 30  1  0  0  0
 17 26  1  0  0  0
 18 23  2  0  0  0
 19 20  1  0  0  0
 19 31  1  0  0  0
 19 42  1  0  0  0
 19 43  1  0  0  0
 20 22  1  0  0  0
 20 32  1  0  0  0
 20 44  1  0  0  0
 21 32  1  0  0  0
 21 45  1  0  0  0
 22 46  1  0  0  0
 22 47  1  0  0  0
 23 48  1  0  0  0
 24 25  3  0  0  0
 25 49  1  0  0  0
 32 50  1  0  0  0
 33 51  1  0  0  0
 52 57  1  0  0  0
 52 60  1  0  0  0
 53 55  1  0  0  0
 53 56  1  0  0  0
 53 61  1  0  0  0
 54 59  1  0  0  0
 54 60  2  0  0  0
 55 57  1  0  0  0
 55 62  1  0  0  0
 55 63  1  0  0  0
 56 64  1  0  0  0
 56 65  1  0  0  0
 57 59  2  0  0  0
 58 59  1  0  0  0
 58 66  1  0  0  0
 58 67  1  0  0  0
 58 68  1  0  0  0
 60 69  1  0  0  0
M  END
> <s_m_entry_id>
297

> <s_m_entry_name>
000000297.1

> <s_m_Source_Path>
/Users/zaksoul/Documents/2

> <s_m_Source_File>
000000297.mol2

> <i_m_Source_File_Index>
1

$$$$
No_0_313
                    3D
 Schrodinger Suite 2022-4.
 69 75  0  0  1  0            999 V2000
   -5.2880    3.4580  -22.1370 C   0  0  0  0  0  0
   -5.5030    3.6850  -23.4760 C   0  0  0  0  0  0
   -4.0620    3.2030  -21.7550 C   0  0  0  0  0  0
   -3.0870    3.3980  -23.8790 C   0  0  0  0  0  0
   -2.9810    3.1130  -22.4610 C   0  0  0  0  0  0
   -4.4150    3.6680  -24.4450 C   0  0  0  0  0  0
   -3.5740    3.7590  -26.6100 C   0  0  0  0  0  0
    5.9450    2.9300  -20.9860 C   0  0  0  0  0  0
    5.9060    3.1460  -23.5340 C   0  0  0  0  0  0
   -4.6140    3.8330  -25.7850 C   0  0  0  0  0  0
    2.1210    3.6710  -23.6850 C   0  0  0  0  0  0
    1.2810    4.7650  -23.3870 C   0  0  0  0  0  0
    3.0420    5.9520  -22.6010 C   0  0  0  0  0  0
    3.5070    3.8610  -23.3120 C   0  0  0  0  0  0
    1.6100    2.5710  -24.4000 C   0  0  0  0  0  0
   -0.5260    3.3670  -24.3500 C   0  0  0  0  0  0
   -0.0330    4.5730  -23.6950 C   0  0  0  0  0  0
   -1.9640    3.3750  -24.7620 C   0  0  0  0  0  0
    4.1190    1.3600  -23.0690 C   0  0  0  0  0  0
    5.0090    0.9760  -21.8970 C   0  0  2  0  0  0
    6.6100    2.5420  -22.3250 C   0  0  2  0  0  0
    4.9380    1.9420  -20.7030 C   0  0  0  0  0  0
   -2.2340    3.5750  -26.1960 C   0  0  0  0  0  0
   -1.6580    2.6910  -21.8220 C   0  0  0  0  0  0
   -0.6460    2.3340  -21.2860 C   0  0  0  0  0  0
   -0.8950    5.6020  -23.3540 F   0  0  0  0  0  0
   -3.9050    2.9210  -20.3730 F   0  0  0  0  0  0
    1.7280    5.9110  -22.8030 N   0  0  0  0  0  0
    3.9530    5.0010  -22.8140 N   0  0  0  0  0  0
    0.3170    2.4820  -24.7590 N   0  0  0  0  0  0
    4.4390    2.8250  -23.4830 N   0  0  0  0  0  0
    6.4330    1.0660  -22.3210 N   0  0  1  0  0  0
   -3.6920    3.8140  -28.0040 O   0  0  0  0  0  0
   -6.1184    3.4952  -21.4412 H   0  0  0  0  0  0
   -6.5052    3.8828  -23.8385 H   0  0  0  0  0  0
    5.4717    3.9179  -21.0859 H   0  0  0  0  0  0
    6.7003    2.9219  -20.1863 H   0  0  0  0  0  0
    6.3399    2.7323  -24.4563 H   0  0  0  0  0  0
    6.0422    4.2375  -23.5300 H   0  0  0  0  0  0
   -5.6114    4.0216  -26.1653 H   0  0  0  0  0  0
    2.2656    1.7548  -24.6811 H   0  0  0  0  0  0
    3.0637    1.2864  -22.7674 H   0  0  0  0  0  0
    4.3188    0.6880  -23.9166 H   0  0  0  0  0  0
    4.7778   -0.0478  -21.5678 H   0  0  0  0  0  0
    7.6777    2.8064  -22.3220 H   0  0  0  0  0  0
    3.9499    2.4250  -20.6838 H   0  0  0  0  0  0
    5.2044    1.4032  -19.7817 H   0  0  0  0  0  0
   -1.4351    3.5820  -26.9287 H   0  0  0  0  0  0
    0.2455    2.0212  -20.8143 H   0  0  0  0  0  0
    7.0557    0.5514  -21.6042 H   0  0  0  0  0  0
   -2.8303    3.7438  -28.3978 H   0  0  0  0  0  0
    6.1920    9.6330  -22.4550 O   0  0  0  0  0  0
    4.5510    7.0670  -20.9460 N   0  0  1  0  0  0
    8.2150    8.9650  -22.5090 N   0  0  0  0  0  0
    5.2680    8.3070  -20.4810 C   0  0  0  0  0  0
    3.5730    7.2800  -22.0720 C   0  0  0  0  0  0
    6.3740    8.7200  -21.4380 C   0  0  0  0  0  0
    8.3620    7.3050  -20.5850 C   0  0  0  0  0  0
    7.6350    8.2990  -21.4660 C   0  0  0  0  0  0
    7.3040    9.7380  -23.0520 C   0  0  0  0  0  0
    5.2722    6.3438  -21.2971 H   0  0  0  0  0  0
    5.6959    8.1300  -19.4832 H   0  0  0  0  0  0
    4.5462    9.1308  -20.3790 H   0  0  0  0  0  0
    4.0670    7.8280  -22.8879 H   0  0  0  0  0  0
    2.7328    7.8942  -21.7159 H   0  0  0  0  0  0
    7.6711    6.9150  -19.8231 H   0  0  0  0  0  0
    8.7360    6.4740  -21.2010 H   0  0  0  0  0  0
    9.2088    7.8029  -20.0901 H   0  0  0  0  0  0
    7.5590   10.3610  -23.9080 H   0  0  0  0  0  0
  1  2  2  0  0  0
  1  3  1  0  0  0
  1 34  1  0  0  0
  2  6  1  0  0  0
  2 35  1  0  0  0
  3  5  2  0  0  0
  3 27  1  0  0  0
  4  5  1  0  0  0
  4  6  2  0  0  0
  4 18  1  0  0  0
  5 24  1  0  0  0
  6 10  1  0  0  0
  7 10  2  0  0  0
  7 23  1  0  0  0
  7 33  1  0  0  0
  8 21  1  0  0  0
  8 22  1  0  0  0
  8 36  1  0  0  0
  8 37  1  0  0  0
  9 21  1  0  0  0
  9 31  1  0  0  0
  9 38  1  0  0  0
  9 39  1  0  0  0
 10 40  1  0  0  0
 11 12  1  0  0  0
 11 14  2  0  0  0
 11 15  1  0  0  0
 12 17  1  0  0  0
 12 28  2  0  0  0
 13 28  1  0  0  0
 13 29  2  0  0  0
 13 56  1  0  0  0
 14 29  1  0  0  0
 14 31  1  0  0  0
 15 30  2  0  0  0
 15 41  1  0  0  0
 16 17  2  0  0  0
 16 18  1  0  0  0
 16 30  1  0  0  0
 17 26  1  0  0  0
 18 23  2  0  0  0
 19 20  1  0  0  0
 19 31  1  0  0  0
 19 42  1  0  0  0
 19 43  1  0  0  0
 20 22  1  0  0  0
 20 32  1  0  0  0
 20 44  1  0  0  0
 21 32  1  0  0  0
 21 45  1  0  0  0
 22 46  1  0  0  0
 22 47  1  0  0  0
 23 48  1  0  0  0
 24 25  3  0  0  0
 25 49  1  0  0  0
 32 50  1  0  0  0
 33 51  1  0  0  0
 52 57  1  0  0  0
 52 60  1  0  0  0
 53 55  1  0  0  0
 53 56  1  0  0  0
 53 61  1  0  0  0
 54 59  1  0  0  0
 54 60  2  0  0  0
 55 57  1  0  0  0
 55 62  1  0  0  0
 55 63  1  0  0  0
 56 64  1  0  0  0
 56 65  1  0  0  0
 57 59  2  0  0  0
 58 59  1  0  0  0
 58 66  1  0  0  0
 58 67  1  0  0  0
 58 68  1  0  0  0
 60 69  1  0  0  0
M  END
> <s_m_entry_id>
298

> <s_m_entry_name>
000000298.1

> <s_m_Source_Path>
/Users/zaksoul/Documents/2

> <s_m_Source_File>
000000298.mol2

> <i_m_Source_File_Index>
1

$$$$
No_0_314
                    3D
 Schrodinger Suite 2022-4.
 69 75  0  0  1  0            999 V2000
   -5.3210    3.2450  -22.0620 C   0  0  0  0  0  0
   -5.5650    3.4290  -23.4020 C   0  0  0  0  0  0
   -4.0820    3.0320  -21.6950 C   0  0  0  0  0  0
   -3.1510    3.1950  -23.8420 C   0  0  0  0  0  0
   -3.0120    2.9520  -22.4190 C   0  0  0  0  0  0
   -4.4950    3.4140  -24.3900 C   0  0  0  0  0  0
   -3.6950    3.4680  -26.5720 C   0  0  0  0  0  0
    5.9410    3.0420  -21.1050 C   0  0  0  0  0  0
    5.8510    3.1870  -23.6570 C   0  0  0  0  0  0
   -4.7220    3.5370  -25.7300 C   0  0  0  0  0  0
    2.0510    3.6090  -23.7520 C   0  0  0  0  0  0
    1.1880    4.6880  -23.4680 C   0  0  0  0  0  0
    2.9300    5.9410  -22.7470 C   0  0  0  0  0  0
    3.4370    3.8450  -23.4090 C   0  0  0  0  0  0
    1.5560    2.4760  -24.4270 C   0  0  0  0  0  0
   -0.5990    3.2180  -24.3590 C   0  0  0  0  0  0
   -0.1260    4.4530  -23.7470 C   0  0  0  0  0  0
   -2.0430    3.1770  -24.7440 C   0  0  0  0  0  0
    4.1200    1.3680  -23.1100 C   0  0  0  0  0  0
    5.0410    1.0400  -21.9450 C   0  0  2  0  0  0
    6.5920    2.6340  -22.4450 C   0  0  2  0  0  0
    4.9650    2.0370  -20.7760 C   0  0  0  0  0  0
   -2.3440    3.3290  -26.1780 C   0  0  0  0  0  0
   -1.6670    2.5810  -21.7930 C   0  0  0  0  0  0
   -0.6360    2.2670  -21.2660 C   0  0  0  0  0  0
   -1.0090    5.4690  -23.4170 F   0  0  0  0  0  0
   -3.8930    2.7930  -20.3100 F   0  0  0  0  0  0
    1.6140    5.8610  -22.9230 N   0  0  0  0  0  0
    3.8630    5.0100  -22.9510 N   0  0  0  0  0  0
    0.2600    2.3440  -24.7600 N   0  0  0  0  0  0
    4.3940    2.8290  -23.5690 N   0  0  0  0  0  0
    6.4540    1.1550  -22.3980 N   0  0  1  0  0  0
   -3.8390    3.4810  -27.9650 O   0  0  0  0  0  0
   -6.1389    3.2791  -21.3515 H   0  0  0  0  0  0
   -6.5784    3.5905  -23.7512 H   0  0  0  0  0  0
    5.4394    4.0139  -21.2221 H   0  0  0  0  0  0
    6.7103    3.0763  -20.3195 H   0  0  0  0  0  0
    6.2793    2.7587  -24.5752 H   0  0  0  0  0  0
    5.9579    4.2815  -23.6842 H   0  0  0  0  0  0
   -5.7304    3.6895  -26.0972 H   0  0  0  0  0  0
    2.2284    1.6701  -24.6980 H   0  0  0  0  0  0
    3.0725    1.2762  -22.7871 H   0  0  0  0  0  0
    4.3229    0.6786  -23.9428 H   0  0  0  0  0  0
    4.8423    0.0202  -21.5839 H   0  0  0  0  0  0
    7.6519    2.9275  -22.4682 H   0  0  0  0  0  0
    3.9648    2.4942  -20.7528 H   0  0  0  0  0  0
    5.2628    1.5302  -19.8462 H   0  0  0  0  0  0
   -1.5582    3.3380  -26.9247 H   0  0  0  0  0  0
    0.2716    1.9898  -20.8027 H   0  0  0  0  0  0
    7.1032    0.6770  -21.6793 H   0  0  0  0  0  0
   -2.9829    3.4226  -28.3727 H   0  0  0  0  0  0
    5.6170    9.9610  -23.0920 O   0  0  0  0  0  0
    4.6790    7.1500  -21.4270 N   0  0  1  0  0  0
    7.6210    9.5420  -23.6830 N   0  0  0  0  0  0
    5.3570    8.4430  -21.0580 C   0  0  0  0  0  0
    3.4350    7.2970  -22.2640 C   0  0  0  0  0  0
    6.1410    9.0300  -22.2200 C   0  0  0  0  0  0
    8.4150    7.8230  -21.9820 C   0  0  0  0  0  0
    7.3920    8.7640  -22.5830 C   0  0  0  0  0  0
    6.5290   10.2250  -23.9300 C   0  0  0  0  0  0
    5.3617    6.5352  -21.9948 H   0  0  0  0  0  0
    6.0350    8.2710  -20.2090 H   0  0  0  0  0  0
    4.6015    9.1685  -20.7222 H   0  0  0  0  0  0
    3.6509    7.9377  -23.1317 H   0  0  0  0  0  0
    2.6500    7.7890  -21.6710 H   0  0  0  0  0  0
    7.9791    7.3182  -21.1073 H   0  0  0  0  0  0
    8.7081    7.0718  -22.7302 H   0  0  0  0  0  0
    9.3012    8.3951  -21.6699 H   0  0  0  0  0  0
    6.4960   10.9134  -24.7732 H   0  0  0  0  0  0
  1  2  2  0  0  0
  1  3  1  0  0  0
  1 34  1  0  0  0
  2  6  1  0  0  0
  2 35  1  0  0  0
  3  5  2  0  0  0
  3 27  1  0  0  0
  4  5  1  0  0  0
  4  6  2  0  0  0
  4 18  1  0  0  0
  5 24  1  0  0  0
  6 10  1  0  0  0
  7 10  2  0  0  0
  7 23  1  0  0  0
  7 33  1  0  0  0
  8 21  1  0  0  0
  8 22  1  0  0  0
  8 36  1  0  0  0
  8 37  1  0  0  0
  9 21  1  0  0  0
  9 31  1  0  0  0
  9 38  1  0  0  0
  9 39  1  0  0  0
 10 40  1  0  0  0
 11 12  1  0  0  0
 11 14  2  0  0  0
 11 15  1  0  0  0
 12 17  1  0  0  0
 12 28  2  0  0  0
 13 28  1  0  0  0
 13 29  2  0  0  0
 13 56  1  0  0  0
 14 29  1  0  0  0
 14 31  1  0  0  0
 15 30  2  0  0  0
 15 41  1  0  0  0
 16 17  2  0  0  0
 16 18  1  0  0  0
 16 30  1  0  0  0
 17 26  1  0  0  0
 18 23  2  0  0  0
 19 20  1  0  0  0
 19 31  1  0  0  0
 19 42  1  0  0  0
 19 43  1  0  0  0
 20 22  1  0  0  0
 20 32  1  0  0  0
 20 44  1  0  0  0
 21 32  1  0  0  0
 21 45  1  0  0  0
 22 46  1  0  0  0
 22 47  1  0  0  0
 23 48  1  0  0  0
 24 25  3  0  0  0
 25 49  1  0  0  0
 32 50  1  0  0  0
 33 51  1  0  0  0
 52 57  1  0  0  0
 52 60  1  0  0  0
 53 55  1  0  0  0
 53 56  1  0  0  0
 53 61  1  0  0  0
 54 59  1  0  0  0
 54 60  2  0  0  0
 55 57  1  0  0  0
 55 62  1  0  0  0
 55 63  1  0  0  0
 56 64  1  0  0  0
 56 65  1  0  0  0
 57 59  2  0  0  0
 58 59  1  0  0  0
 58 66  1  0  0  0
 58 67  1  0  0  0
 58 68  1  0  0  0
 60 69  1  0  0  0
M  END
> <s_m_entry_id>
299

> <s_m_entry_name>
000000299.1

> <s_m_Source_Path>
/Users/zaksoul/Documents/2

> <s_m_Source_File>
000000299.mol2

> <i_m_Source_File_Index>
1

$$$$
No_0_315
                    3D
 Schrodinger Suite 2022-4.
 73 79  0  0  1  0            999 V2000
   -5.2100    3.4300  -22.2090 C   0  0  0  0  0  0
   -5.4390    3.6040  -23.5530 C   0  0  0  0  0  0
   -3.9810    3.1840  -21.8300 C   0  0  0  0  0  0
   -3.0290    3.2910  -23.9710 C   0  0  0  0  0  0
   -2.9080    3.0610  -22.5440 C   0  0  0  0  0  0
   -4.3620    3.5440  -24.5330 C   0  0  0  0  0  0
   -3.5450    3.5470  -26.7090 C   0  0  0  0  0  0
    6.0330    2.8950  -21.1640 C   0  0  0  0  0  0
    5.9660    3.0110  -23.7170 C   0  0  0  0  0  0
   -4.5760    3.6580  -25.8760 C   0  0  0  0  0  0
    2.1820    3.5470  -23.8470 C   0  0  0  0  0  0
    1.3500    4.6560  -23.5820 C   0  0  0  0  0  0
    3.1240    5.8640  -22.8640 C   0  0  0  0  0  0
    3.5720    3.7460  -23.4960 C   0  0  0  0  0  0
    1.6580    2.4220  -24.5120 C   0  0  0  0  0  0
   -0.4740    3.2300  -24.4700 C   0  0  0  0  0  0
    0.0320    4.4580  -23.8680 C   0  0  0  0  0  0
   -1.9170    3.2280  -24.8650 C   0  0  0  0  0  0
    4.1760    1.2530  -23.1620 C   0  0  0  0  0  0
    5.0780    0.9110  -21.9860 C   0  0  2  0  0  0
    6.6810    2.4520  -22.4930 C   0  0  2  0  0  0
    5.0240    1.9240  -20.8300 C   0  0  0  0  0  0
   -2.2020    3.3720  -26.3030 C   0  0  0  0  0  0
   -1.5800    2.6580  -21.9040 C   0  0  0  0  0  0
   -0.5630    2.3190  -21.3660 C   0  0  0  0  0  0
   -0.8220    5.5040  -23.5580 F   0  0  0  0  0  0
   -3.8090    2.9560  -20.4410 F   0  0  0  0  0  0
    1.8080    5.8220  -23.0490 N   0  0  0  0  0  0
    4.0290    4.9020  -23.0490 N   0  0  0  0  0  0
    0.3610    2.3260  -24.8530 N   0  0  0  0  0  0
    4.4980    2.6990  -23.6370 N   0  0  0  0  0  0
    6.4980    0.9780  -22.4290 N   0  0  1  0  0  0
   -3.6790    3.5470  -28.1030 O   0  0  0  0  0  0
   -6.0319    3.4972  -21.5055 H   0  0  0  0  0  0
   -6.4444    3.7928  -23.9116 H   0  0  0  0  0  0
    5.5625    3.8805  -21.2963 H   0  0  0  0  0  0
    6.7969    2.9152  -20.3728 H   0  0  0  0  0  0
    6.3877    2.5591  -24.6269 H   0  0  0  0  0  0
    6.1072    4.1012  -23.7573 H   0  0  0  0  0  0
   -5.5767    3.8367  -26.2524 H   0  0  0  0  0  0
    2.3064    1.5919  -24.7680 H   0  0  0  0  0  0
    3.1239    1.1965  -22.8460 H   0  0  0  0  0  0
    4.3636    0.5468  -23.9842 H   0  0  0  0  0  0
    4.8469   -0.0983  -21.6146 H   0  0  0  0  0  0
    7.7498    2.7114  -22.5122 H   0  0  0  0  0  0
    4.0386    2.4127  -20.8189 H   0  0  0  0  0  0
    5.2995    1.4205  -19.8916 H   0  0  0  0  0  0
   -1.4110    3.3469  -27.0438 H   0  0  0  0  0  0
    0.3320    2.0200  -20.8920 H   0  0  0  0  0  0
    7.1269    0.4892  -21.6996 H   0  0  0  0  0  0
   -2.8223    3.4570  -28.5036 H   0  0  0  0  0  0
    3.6220    7.3340  -20.8930 N   0  0  1  0  0  0
    6.8950   10.3730  -21.7790 N   0  0  0  0  0  0
    7.5110    9.4960  -20.9620 N   0  0  0  0  0  0
    3.9300    8.7030  -20.3440 C   0  0  0  0  0  0
    6.5090    8.8110  -20.3620 C   0  0  0  0  0  0
    3.6670    7.2100  -22.3940 C   0  0  0  0  0  0
    5.2970    9.2140  -20.7640 C   0  0  0  0  0  0
    8.9620    9.3640  -20.8170 C   0  0  0  0  0  0
    4.6190   11.0740  -22.4730 C   0  0  0  0  0  0
    5.5980   10.2320  -21.6820 C   0  0  0  0  0  0
    4.3380    6.6230  -20.5080 H   0  0  0  0  0  0
    3.8700    8.6790  -19.2459 H   0  0  0  0  0  0
    3.1571    9.4119  -20.6759 H   0  0  0  0  0  0
    6.7380    8.0329  -19.6429 H   0  0  0  0  0  0
    4.7044    7.3280  -22.7401 H   0  0  0  0  0  0
    3.0761    8.0209  -22.8449 H   0  0  0  0  0  0
    9.1879    8.5734  -20.0863 H   0  0  0  0  0  0
    9.4062    9.1009  -21.7883 H   0  0  0  0  0  0
    9.3851   10.3171  -20.4669 H   0  0  0  0  0  0
    3.5905   10.7738  -22.2239 H   0  0  0  0  0  0
    4.7609   12.1353  -22.2212 H   0  0  0  0  0  0
    4.7940   10.9270  -23.5490 H   0  0  0  0  0  0
  1  2  2  0  0  0
  1  3  1  0  0  0
  1 34  1  0  0  0
  2  6  1  0  0  0
  2 35  1  0  0  0
  3  5  2  0  0  0
  3 27  1  0  0  0
  4  5  1  0  0  0
  4  6  2  0  0  0
  4 18  1  0  0  0
  5 24  1  0  0  0
  6 10  1  0  0  0
  7 10  2  0  0  0
  7 23  1  0  0  0
  7 33  1  0  0  0
  8 21  1  0  0  0
  8 22  1  0  0  0
  8 36  1  0  0  0
  8 37  1  0  0  0
  9 21  1  0  0  0
  9 31  1  0  0  0
  9 38  1  0  0  0
  9 39  1  0  0  0
 10 40  1  0  0  0
 11 12  1  0  0  0
 11 14  2  0  0  0
 11 15  1  0  0  0
 12 17  1  0  0  0
 12 28  2  0  0  0
 13 28  1  0  0  0
 13 29  2  0  0  0
 13 57  1  0  0  0
 14 29  1  0  0  0
 14 31  1  0  0  0
 15 30  2  0  0  0
 15 41  1  0  0  0
 16 17  2  0  0  0
 16 18  1  0  0  0
 16 30  1  0  0  0
 17 26  1  0  0  0
 18 23  2  0  0  0
 19 20  1  0  0  0
 19 31  1  0  0  0
 19 42  1  0  0  0
 19 43  1  0  0  0
 20 22  1  0  0  0
 20 32  1  0  0  0
 20 44  1  0  0  0
 21 32  1  0  0  0
 21 45  1  0  0  0
 22 46  1  0  0  0
 22 47  1  0  0  0
 23 48  1  0  0  0
 24 25  3  0  0  0
 25 49  1  0  0  0
 32 50  1  0  0  0
 33 51  1  0  0  0
 52 55  1  0  0  0
 52 57  1  0  0  0
 52 62  1  0  0  0
 53 54  1  0  0  0
 53 61  2  0  0  0
 54 56  1  0  0  0
 54 59  1  0  0  0
 55 58  1  0  0  0
 55 63  1  0  0  0
 55 64  1  0  0  0
 56 58  2  0  0  0
 56 65  1  0  0  0
 57 66  1  0  0  0
 57 67  1  0  0  0
 58 61  1  0  0  0
 59 68  1  0  0  0
 59 69  1  0  0  0
 59 70  1  0  0  0
 60 61  1  0  0  0
 60 71  1  0  0  0
 60 72  1  0  0  0
 60 73  1  0  0  0
M  END
> <s_m_entry_id>
300

> <s_m_entry_name>
000000300.1

> <s_m_Source_Path>
/Users/zaksoul/Documents/2

> <s_m_Source_File>
000000300.mol2

> <i_m_Source_File_Index>
1

$$$$
No_0_316
                    3D
 Schrodinger Suite 2022-4.
 69 75  0  0  1  0            999 V2000
   -5.2930    3.3760  -22.0510 C   0  0  0  0  0  0
   -5.5630    3.5790  -23.3840 C   0  0  0  0  0  0
   -4.0490    3.1430  -21.7150 C   0  0  0  0  0  0
   -3.1620    3.3190  -23.8780 C   0  0  0  0  0  0
   -2.9960    3.0570  -22.4620 C   0  0  0  0  0  0
   -4.5150    3.5620  -24.3950 C   0  0  0  0  0  0
   -3.7610    3.6320  -26.5930 C   0  0  0  0  0  0
    5.9830    3.0150  -21.3410 C   0  0  0  0  0  0
    5.8410    3.1920  -23.8880 C   0  0  0  0  0  0
   -4.7690    3.7040  -25.7280 C   0  0  0  0  0  0
    2.0460    3.6640  -23.8960 C   0  0  0  0  0  0
    1.2030    4.7510  -23.5800 C   0  0  0  0  0  0
    2.9770    5.9730  -22.8830 C   0  0  0  0  0  0
    3.4420    3.8780  -23.5800 C   0  0  0  0  0  0
    1.5220    2.5460  -24.5740 C   0  0  0  0  0  0
   -0.6220    3.3150  -24.4510 C   0  0  0  0  0  0
   -0.1190    4.5370  -23.8340 C   0  0  0  0  0  0
   -2.0750    3.2970  -24.8050 C   0  0  0  0  0  0
    4.0980    1.3890  -23.3260 C   0  0  0  0  0  0
    5.0390    1.0350  -22.1850 C   0  0  2  0  0  0
    6.6000    2.6150  -22.6990 C   0  0  2  0  0  0
    5.0010    2.0180  -21.0030 C   0  0  0  0  0  0
   -2.4040    3.4710  -26.2300 C   0  0  0  0  0  0
   -1.6430    2.6620  -21.8690 C   0  0  0  0  0  0
   -0.6050    2.3270  -21.3690 C   0  0  0  0  0  0
   -0.9820    5.5590  -23.4740 F   0  0  0  0  0  0
   -3.8330    2.8840  -20.3360 F   0  0  0  0  0  0
    1.6570    5.9120  -23.0320 N   0  0  0  0  0  0
    3.8920    5.0320  -23.1180 N   0  0  0  0  0  0
    0.2170    2.4350  -24.8800 N   0  0  0  0  0  0
    4.3810    2.8520  -23.7730 N   0  0  0  0  0  0
    6.4440    1.1380  -22.6660 N   0  0  1  0  0  0
   -3.9350    3.6640  -27.9820 O   0  0  0  0  0  0
   -6.0953    3.4121  -21.3230 H   0  0  0  0  0  0
   -6.5814    3.7586  -23.7091 H   0  0  0  0  0  0
    5.4925    3.9950  -21.4359 H   0  0  0  0  0  0
    6.7693    3.0291  -20.5719 H   0  0  0  0  0  0
    6.2439    2.7689  -24.8200 H   0  0  0  0  0  0
    5.9621    4.2852  -23.9042 H   0  0  0  0  0  0
   -5.7831    3.8737  -26.0714 H   0  0  0  0  0  0
    2.1778    1.7346  -24.8682 H   0  0  0  0  0  0
    3.0568    1.3063  -22.9810 H   0  0  0  0  0  0
    4.2736    0.7067  -24.1708 H   0  0  0  0  0  0
    4.8351    0.0134  -21.8317 H   0  0  0  0  0  0
    7.6631    2.8944  -22.7414 H   0  0  0  0  0  0
    4.0079    2.4883  -20.9515 H   0  0  0  0  0  0
    5.3128    1.4972  -20.0856 H   0  0  0  0  0  0
   -1.6345    3.4780  -26.9935 H   0  0  0  0  0  0
    0.3086    2.0328  -20.9287 H   0  0  0  0  0  0
    7.1017    0.6418  -21.9677 H   0  0  0  0  0  0
   -3.0891    3.5987  -28.4094 H   0  0  0  0  0  0
    8.1330    9.0480  -20.6210 O   0  0  0  0  0  0
    4.1110    7.1800  -21.0200 N   0  0  1  0  0  0
    7.6970   10.0010  -21.5650 N   0  0  0  0  0  0
    4.5160    8.4670  -20.3430 C   0  0  0  0  0  0
    3.5100    7.3160  -22.3950 C   0  0  0  0  0  0
    5.9310    8.9190  -20.6790 C   0  0  0  0  0  0
    5.5670   10.7860  -22.4900 C   0  0  0  0  0  0
    7.0470    8.4500  -20.1380 C   0  0  0  0  0  0
    6.4020    9.9050  -21.5830 C   0  0  0  0  0  0
    4.9763    6.5438  -21.1340 H   0  0  0  0  0  0
    4.4189    8.3529  -19.2532 H   0  0  0  0  0  0
    3.8059    9.2621  -20.6140 H   0  0  0  0  0  0
    4.2753    7.6821  -23.0952 H   0  0  0  0  0  0
    2.6883    8.0467  -22.3650 H   0  0  0  0  0  0
    4.5019   10.5470  -22.3540 H   0  0  0  0  0  0
    5.7411   11.8425  -22.2379 H   0  0  0  0  0  0
    5.8509   10.6080  -23.5377 H   0  0  0  0  0  0
    6.9980    7.6625  -19.3875 H   0  0  0  0  0  0
  1  2  2  0  0  0
  1  3  1  0  0  0
  1 34  1  0  0  0
  2  6  1  0  0  0
  2 35  1  0  0  0
  3  5  2  0  0  0
  3 27  1  0  0  0
  4  5  1  0  0  0
  4  6  2  0  0  0
  4 18  1  0  0  0
  5 24  1  0  0  0
  6 10  1  0  0  0
  7 10  2  0  0  0
  7 23  1  0  0  0
  7 33  1  0  0  0
  8 21  1  0  0  0
  8 22  1  0  0  0
  8 36  1  0  0  0
  8 37  1  0  0  0
  9 21  1  0  0  0
  9 31  1  0  0  0
  9 38  1  0  0  0
  9 39  1  0  0  0
 10 40  1  0  0  0
 11 12  1  0  0  0
 11 14  2  0  0  0
 11 15  1  0  0  0
 12 17  1  0  0  0
 12 28  2  0  0  0
 13 28  1  0  0  0
 13 29  2  0  0  0
 13 56  1  0  0  0
 14 29  1  0  0  0
 14 31  1  0  0  0
 15 30  2  0  0  0
 15 41  1  0  0  0
 16 17  2  0  0  0
 16 18  1  0  0  0
 16 30  1  0  0  0
 17 26  1  0  0  0
 18 23  2  0  0  0
 19 20  1  0  0  0
 19 31  1  0  0  0
 19 42  1  0  0  0
 19 43  1  0  0  0
 20 22  1  0  0  0
 20 32  1  0  0  0
 20 44  1  0  0  0
 21 32  1  0  0  0
 21 45  1  0  0  0
 22 46  1  0  0  0
 22 47  1  0  0  0
 23 48  1  0  0  0
 24 25  3  0  0  0
 25 49  1  0  0  0
 32 50  1  0  0  0
 33 51  1  0  0  0
 52 54  1  0  0  0
 52 59  1  0  0  0
 53 55  1  0  0  0
 53 56  1  0  0  0
 53 61  1  0  0  0
 54 60  2  0  0  0
 55 57  1  0  0  0
 55 62  1  0  0  0
 55 63  1  0  0  0
 56 64  1  0  0  0
 56 65  1  0  0  0
 57 59  2  0  0  0
 57 60  1  0  0  0
 58 60  1  0  0  0
 58 66  1  0  0  0
 58 67  1  0  0  0
 58 68  1  0  0  0
 59 69  1  0  0  0
M  END
> <s_m_entry_id>
301

> <s_m_entry_name>
000000301.1

> <s_m_Source_Path>
/Users/zaksoul/Documents/2

> <s_m_Source_File>
000000301.mol2

> <i_m_Source_File_Index>
1

$$$$
No_0_317
                    3D
 Schrodinger Suite 2022-4.
 69 75  0  0  1  0            999 V2000
   -5.2590    3.5750  -22.0470 C   0  0  0  0  0  0
   -5.4840    3.7350  -23.3930 C   0  0  0  0  0  0
   -4.0330    3.3230  -21.6630 C   0  0  0  0  0  0
   -3.0770    3.3950  -23.8030 C   0  0  0  0  0  0
   -2.9600    3.1820  -22.3740 C   0  0  0  0  0  0
   -4.4070    3.6530  -24.3700 C   0  0  0  0  0  0
   -3.5860    3.6210  -26.5450 C   0  0  0  0  0  0
    5.9770    2.9510  -20.9750 C   0  0  0  0  0  0
    5.9150    3.0370  -23.5300 C   0  0  0  0  0  0
   -4.6170    3.7520  -25.7150 C   0  0  0  0  0  0
    2.1360    3.6050  -23.6730 C   0  0  0  0  0  0
    1.3140    4.7250  -23.4240 C   0  0  0  0  0  0
    3.0980    5.9260  -22.7170 C   0  0  0  0  0  0
    3.5280    3.7950  -23.3220 C   0  0  0  0  0  0
    1.6030    2.4770  -24.3250 C   0  0  0  0  0  0
   -0.5220    3.3040  -24.2970 C   0  0  0  0  0  0
   -0.0050    4.5350  -23.7100 C   0  0  0  0  0  0
   -1.9640    3.3110  -24.6940 C   0  0  0  0  0  0
    4.1090    1.3010  -22.9560 C   0  0  0  0  0  0
    5.0050    0.9660  -21.7750 C   0  0  2  0  0  0
    6.6230    2.4860  -22.2980 C   0  0  2  0  0  0
    4.9590    1.9940  -20.6310 C   0  0  0  0  0  0
   -2.2450    3.4400  -26.1350 C   0  0  0  0  0  0
   -1.6370    2.7750  -21.7260 C   0  0  0  0  0  0
   -0.6240    2.4330  -21.1820 C   0  0  0  0  0  0
   -0.8510    5.5920  -23.4140 F   0  0  0  0  0  0
   -3.8660    3.1100  -20.2700 F   0  0  0  0  0  0
    1.7820    5.8930  -22.9040 N   0  0  0  0  0  0
    3.9950    4.9530  -22.8890 N   0  0  0  0  0  0
    0.3050    2.3880  -24.6670 N   0  0  0  0  0  0
    4.4440    2.7390  -23.4480 N   0  0  0  0  0  0
    6.4260    1.0150  -22.2160 N   0  0  1  0  0  0
   -3.7170    3.6050  -27.9390 O   0  0  0  0  0  0
   -6.0819    3.6593  -21.3465 H   0  0  0  0  0  0
   -6.4871    3.9276  -23.7561 H   0  0  0  0  0  0
    5.5158    3.9390  -21.1203 H   0  0  0  0  0  0
    6.7399    2.9742  -20.1829 H   0  0  0  0  0  0
    6.3339    2.5697  -24.4334 H   0  0  0  0  0  0
    6.0654    4.1254  -23.5835 H   0  0  0  0  0  0
   -5.6155    3.9346  -26.0953 H   0  0  0  0  0  0
    2.2444    1.6379  -24.5689 H   0  0  0  0  0  0
    3.0558    1.2586  -22.6413 H   0  0  0  0  0  0
    4.2906    0.5838  -23.7700 H   0  0  0  0  0  0
    4.7638   -0.0360  -21.3905 H   0  0  0  0  0  0
    7.6942    2.7354  -22.3182 H   0  0  0  0  0  0
    3.9774    2.4904  -20.6280 H   0  0  0  0  0  0
    5.2285    1.4994  -19.6862 H   0  0  0  0  0  0
   -1.4529    3.3978  -26.8739 H   0  0  0  0  0  0
    0.2672    2.1309  -20.7029 H   0  0  0  0  0  0
    7.0492    0.5297  -21.4795 H   0  0  0  0  0  0
   -2.8605    3.5030  -28.3371 H   0  0  0  0  0  0
    8.4550    9.3080  -21.7010 O   0  0  0  0  0  0
    4.6360    7.0880  -21.1370 N   0  0  1  0  0  0
    7.6950   10.2850  -22.3780 N   0  0  0  0  0  0
    5.1280    8.3510  -20.4710 C   0  0  0  0  0  0
    3.6520    7.2720  -22.2620 C   0  0  0  0  0  0
    6.3460    8.9660  -21.1450 C   0  0  0  0  0  0
    5.3360   10.9250  -22.5730 C   0  0  0  0  0  0
    7.6020    8.5690  -20.9950 C   0  0  0  0  0  0
    6.4610   10.0630  -22.0380 C   0  0  0  0  0  0
    5.4742    6.5519  -21.5571 H   0  0  0  0  0  0
    5.3611    8.1409  -19.4167 H   0  0  0  0  0  0
    4.3133    9.0897  -20.4450 H   0  0  0  0  0  0
    4.1511    7.7671  -23.1081 H   0  0  0  0  0  0
    2.8242    7.9128  -21.9241 H   0  0  0  0  0  0
    4.3770   10.5720  -22.1660 H   0  0  0  0  0  0
    5.4989   11.9702  -22.2712 H   0  0  0  0  0  0
    5.3140   10.8610  -23.6709 H   0  0  0  0  0  0
    7.8320    7.7230  -20.3490 H   0  0  0  0  0  0
  1  2  2  0  0  0
  1  3  1  0  0  0
  1 34  1  0  0  0
  2  6  1  0  0  0
  2 35  1  0  0  0
  3  5  2  0  0  0
  3 27  1  0  0  0
  4  5  1  0  0  0
  4  6  2  0  0  0
  4 18  1  0  0  0
  5 24  1  0  0  0
  6 10  1  0  0  0
  7 10  2  0  0  0
  7 23  1  0  0  0
  7 33  1  0  0  0
  8 21  1  0  0  0
  8 22  1  0  0  0
  8 36  1  0  0  0
  8 37  1  0  0  0
  9 21  1  0  0  0
  9 31  1  0  0  0
  9 38  1  0  0  0
  9 39  1  0  0  0
 10 40  1  0  0  0
 11 12  1  0  0  0
 11 14  2  0  0  0
 11 15  1  0  0  0
 12 17  1  0  0  0
 12 28  2  0  0  0
 13 28  1  0  0  0
 13 29  2  0  0  0
 13 56  1  0  0  0
 14 29  1  0  0  0
 14 31  1  0  0  0
 15 30  2  0  0  0
 15 41  1  0  0  0
 16 17  2  0  0  0
 16 18  1  0  0  0
 16 30  1  0  0  0
 17 26  1  0  0  0
 18 23  2  0  0  0
 19 20  1  0  0  0
 19 31  1  0  0  0
 19 42  1  0  0  0
 19 43  1  0  0  0
 20 22  1  0  0  0
 20 32  1  0  0  0
 20 44  1  0  0  0
 21 32  1  0  0  0
 21 45  1  0  0  0
 22 46  1  0  0  0
 22 47  1  0  0  0
 23 48  1  0  0  0
 24 25  3  0  0  0
 25 49  1  0  0  0
 32 50  1  0  0  0
 33 51  1  0  0  0
 52 54  1  0  0  0
 52 59  1  0  0  0
 53 55  1  0  0  0
 53 56  1  0  0  0
 53 61  1  0  0  0
 54 60  2  0  0  0
 55 57  1  0  0  0
 55 62  1  0  0  0
 55 63  1  0  0  0
 56 64  1  0  0  0
 56 65  1  0  0  0
 57 59  2  0  0  0
 57 60  1  0  0  0
 58 60  1  0  0  0
 58 66  1  0  0  0
 58 67  1  0  0  0
 58 68  1  0  0  0
 59 69  1  0  0  0
M  END
> <s_m_entry_id>
302

> <s_m_entry_name>
000000302.1

> <s_m_Source_Path>
/Users/zaksoul/Documents/2

> <s_m_Source_File>
000000302.mol2

> <i_m_Source_File_Index>
1

$$$$
No_0_318
                    3D
 Schrodinger Suite 2022-4.
 74 80  0  0  1  0            999 V2000
   -5.0370    3.4560  -22.1180 C   0  0  0  0  0  0
   -5.2860    3.6350  -23.4580 C   0  0  0  0  0  0
   -3.7960    3.2490  -21.7550 C   0  0  0  0  0  0
   -2.8720    3.4080  -23.9050 C   0  0  0  0  0  0
   -2.7280    3.1700  -22.4820 C   0  0  0  0  0  0
   -4.2190    3.6210  -24.4500 C   0  0  0  0  0  0
   -3.4270    3.6700  -26.6340 C   0  0  0  0  0  0
    6.2290    3.2940  -21.1990 C   0  0  0  0  0  0
    6.1300    3.4310  -23.7510 C   0  0  0  0  0  0
   -4.4520    3.7390  -25.7890 C   0  0  0  0  0  0
    2.3280    3.8390  -23.8340 C   0  0  0  0  0  0
    1.4620    4.9170  -23.5500 C   0  0  0  0  0  0
    3.2030    6.1780  -22.8400 C   0  0  0  0  0  0
    3.7150    4.0820  -23.4970 C   0  0  0  0  0  0
    1.8350    2.7030  -24.5040 C   0  0  0  0  0  0
   -0.3220    3.4380  -24.4320 C   0  0  0  0  0  0
    0.1490    4.6770  -23.8240 C   0  0  0  0  0  0
   -1.7680    3.3910  -24.8110 C   0  0  0  0  0  0
    4.4070    1.6080  -23.1930 C   0  0  0  0  0  0
    5.3330    1.2860  -22.0300 C   0  0  2  0  0  0
    6.8770    2.8840  -22.5390 C   0  0  2  0  0  0
    5.2570    2.2860  -20.8640 C   0  0  0  0  0  0
   -2.0740    3.5380  -26.2450 C   0  0  0  0  0  0
   -1.3800    2.8060  -21.8600 C   0  0  0  0  0  0
   -0.3460    2.4960  -21.3360 C   0  0  0  0  0  0
   -0.7370    5.6900  -23.4950 F   0  0  0  0  0  0
   -3.6010    3.0140  -20.3700 F   0  0  0  0  0  0
    1.8870    6.0930  -23.0110 N   0  0  0  0  0  0
    4.1380    5.2490  -23.0440 N   0  0  0  0  0  0
    0.5380    2.5660  -24.8320 N   0  0  0  0  0  0
    4.6740    3.0680  -23.6570 N   0  0  0  0  0  0
    6.7440    1.4050  -22.4880 N   0  0  1  0  0  0
   -3.5760    3.6790  -28.0270 O   0  0  0  0  0  0
   -5.8531    3.4901  -21.4053 H   0  0  0  0  0  0
   -6.3010    3.7926  -23.8044 H   0  0  0  0  0  0
    5.7242    4.2642  -21.3171 H   0  0  0  0  0  0
    7.0003    3.3324  -20.4156 H   0  0  0  0  0  0
    6.5560    3.0010  -24.6695 H   0  0  0  0  0  0
    6.2329    4.5258  -23.7813 H   0  0  0  0  0  0
   -5.4622    3.8866  -26.1535 H   0  0  0  0  0  0
    2.5085    1.8980  -24.7750 H   0  0  0  0  0  0
    3.3610    1.5132  -22.8662 H   0  0  0  0  0  0
    4.6087    0.9161  -24.0240 H   0  0  0  0  0  0
    5.1392    0.2667  -21.6647 H   0  0  0  0  0  0
    7.9358    3.1808  -22.5673 H   0  0  0  0  0  0
    4.2555    2.7403  -20.8378 H   0  0  0  0  0  0
    5.5598    1.7834  -19.9335 H   0  0  0  0  0  0
   -1.2911    3.5470  -26.9947 H   0  0  0  0  0  0
    0.5636    2.2231  -20.8742 H   0  0  0  0  0  0
    7.3970    0.9315  -21.7698 H   0  0  0  0  0  0
   -2.7212    3.6216  -28.4376 H   0  0  0  0  0  0
    8.0180    9.9940  -21.8190 O   0  0  0  0  0  0
    4.3520    7.4350  -21.0060 N   0  3  0  0  0  0
    4.8400    8.7350  -20.4190 C   0  0  0  0  0  0
    3.7050    7.5370  -22.3630 C   0  0  0  0  0  0
    6.2570    9.0870  -20.8430 C   0  0  0  0  0  0
    7.4460    8.5360  -20.3040 C   0  0  0  0  0  0
    6.6850    9.9620  -21.7510 C   0  0  0  0  0  0
    9.9350    8.8700  -20.6710 C   0  0  0  0  0  0
    5.8270   10.8560  -22.6240 C   0  0  0  0  0  0
    8.4630    9.1190  -20.9210 C   0  0  0  0  0  0
    3.7093    6.9992  -20.3633 H   0  0  0  0  0  0
    5.1178    6.7811  -21.0510 H   0  0  0  0  0  0
    4.7900    8.6820  -19.3214 H   0  0  0  0  0  0
    4.1589    9.5472  -20.7131 H   0  0  0  0  0  0
    4.4326    7.9333  -23.0866 H   0  0  0  0  0  0
    2.8620    8.2420  -22.3140 H   0  0  0  0  0  0
    7.3910    7.7760  -19.5260 H   0  0  0  0  0  0
   10.0501    8.1075  -19.8865 H   0  0  0  0  0  0
   10.4088    8.5162  -21.5985 H   0  0  0  0  0  0
   10.4160    9.8050  -20.3480 H   0  0  0  0  0  0
    4.7648   10.6690  -22.4080 H   0  0  0  0  0  0
    6.0641   11.9096  -22.4149 H   0  0  0  0  0  0
    6.0290   10.6380  -23.6831 H   0  0  0  0  0  0
  1  2  2  0  0  0
  1  3  1  0  0  0
  1 34  1  0  0  0
  2  6  1  0  0  0
  2 35  1  0  0  0
  3  5  2  0  0  0
  3 27  1  0  0  0
  4  5  1  0  0  0
  4  6  2  0  0  0
  4 18  1  0  0  0
  5 24  1  0  0  0
  6 10  1  0  0  0
  7 10  2  0  0  0
  7 23  1  0  0  0
  7 33  1  0  0  0
  8 21  1  0  0  0
  8 22  1  0  0  0
  8 36  1  0  0  0
  8 37  1  0  0  0
  9 21  1  0  0  0
  9 31  1  0  0  0
  9 38  1  0  0  0
  9 39  1  0  0  0
 10 40  1  0  0  0
 11 12  1  0  0  0
 11 14  2  0  0  0
 11 15  1  0  0  0
 12 17  1  0  0  0
 12 28  2  0  0  0
 13 28  1  0  0  0
 13 29  2  0  0  0
 13 55  1  0  0  0
 14 29  1  0  0  0
 14 31  1  0  0  0
 15 30  2  0  0  0
 15 41  1  0  0  0
 16 17  2  0  0  0
 16 18  1  0  0  0
 16 30  1  0  0  0
 17 26  1  0  0  0
 18 23  2  0  0  0
 19 20  1  0  0  0
 19 31  1  0  0  0
 19 42  1  0  0  0
 19 43  1  0  0  0
 20 22  1  0  0  0
 20 32  1  0  0  0
 20 44  1  0  0  0
 21 32  1  0  0  0
 21 45  1  0  0  0
 22 46  1  0  0  0
 22 47  1  0  0  0
 23 48  1  0  0  0
 24 25  3  0  0  0
 25 49  1  0  0  0
 32 50  1  0  0  0
 33 51  1  0  0  0
 52 58  1  0  0  0
 52 61  1  0  0  0
 53 54  1  0  0  0
 53 55  1  0  0  0
 53 62  1  0  0  0
 53 63  1  0  0  0
 54 56  1  0  0  0
 54 64  1  0  0  0
 54 65  1  0  0  0
 55 66  1  0  0  0
 55 67  1  0  0  0
 56 57  1  0  0  0
 56 58  2  0  0  0
 57 61  2  0  0  0
 57 68  1  0  0  0
 58 60  1  0  0  0
 59 61  1  0  0  0
 59 69  1  0  0  0
 59 70  1  0  0  0
 59 71  1  0  0  0
 60 72  1  0  0  0
 60 73  1  0  0  0
 60 74  1  0  0  0
M  CHG  1  53   1
M  END
> <s_m_entry_id>
303

> <s_m_entry_name>
000000303.1

> <s_m_Source_Path>
/Users/zaksoul/Documents/2

> <s_m_Source_File>
000000303.mol2

> <i_m_Source_File_Index>
1

$$$$
No_0_319
                    3D
 Schrodinger Suite 2022-4.
 74 80  0  0  1  0            999 V2000
   -5.4860    3.4040  -22.1070 C   0  0  0  0  0  0
   -5.7090    3.5600  -23.4550 C   0  0  0  0  0  0
   -4.2600    3.1530  -21.7210 C   0  0  0  0  0  0
   -3.3010    3.2190  -23.8600 C   0  0  0  0  0  0
   -3.1860    3.0100  -22.4290 C   0  0  0  0  0  0
   -4.6300    3.4750  -24.4300 C   0  0  0  0  0  0
   -3.8060    3.4370  -26.6030 C   0  0  0  0  0  0
    5.7480    2.7840  -21.0160 C   0  0  0  0  0  0
    5.6910    2.8620  -23.5710 C   0  0  0  0  0  0
   -4.8380    3.5700  -25.7750 C   0  0  0  0  0  0
    1.9120    3.4300  -23.7220 C   0  0  0  0  0  0
    1.0890    4.5500  -23.4770 C   0  0  0  0  0  0
    2.8720    5.7530  -22.7710 C   0  0  0  0  0  0
    3.3030    3.6210  -23.3700 C   0  0  0  0  0  0
    1.3800    2.2990  -24.3720 C   0  0  0  0  0  0
   -0.7450    3.1270  -24.3490 C   0  0  0  0  0  0
   -0.2290    4.3590  -23.7650 C   0  0  0  0  0  0
   -2.1860    3.1320  -24.7490 C   0  0  0  0  0  0
    3.8840    1.1280  -22.9960 C   0  0  0  0  0  0
    4.7790    0.7970  -21.8110 C   0  0  2  0  0  0
    6.3970    2.3150  -22.3360 C   0  0  2  0  0  0
    4.7300    1.8280  -20.6710 C   0  0  0  0  0  0
   -2.4650    3.2560  -26.1900 C   0  0  0  0  0  0
   -1.8640    2.6050  -21.7780 C   0  0  0  0  0  0
   -0.8520    2.2640  -21.2320 C   0  0  0  0  0  0
   -1.0750    5.4170  -23.4730 F   0  0  0  0  0  0
   -4.0950    2.9440  -20.3270 F   0  0  0  0  0  0
    1.5560    5.7200  -22.9600 N   0  0  0  0  0  0
    3.7690    4.7800  -22.9390 N   0  0  0  0  0  0
    0.0830    2.2090  -24.7150 N   0  0  0  0  0  0
    4.2200    2.5640  -23.4910 N   0  0  0  0  0  0
    6.2000    0.8440  -22.2510 N   0  0  1  0  0  0
   -3.9350    3.4170  -27.9970 O   0  0  0  0  0  0
   -6.3098    3.4893  -21.4076 H   0  0  0  0  0  0
   -6.7116    3.7519  -23.8197 H   0  0  0  0  0  0
    5.2879    3.7719  -21.1653 H   0  0  0  0  0  0
    6.5098    2.8102  -20.2229 H   0  0  0  0  0  0
    6.1118    2.3918  -24.4720 H   0  0  0  0  0  0
    5.8414    3.9502  -23.6275 H   0  0  0  0  0  0
   -5.8359    3.7517  -26.1575 H   0  0  0  0  0  0
    2.0226    1.4596  -24.6120 H   0  0  0  0  0  0
    2.8305    1.0866  -22.6822 H   0  0  0  0  0  0
    4.0678    0.4079  -23.8070 H   0  0  0  0  0  0
    4.5368   -0.2040  -21.4245 H   0  0  0  0  0  0
    7.4682    2.5644  -22.3562 H   0  0  0  0  0  0
    3.7486    2.3248  -20.6710 H   0  0  0  0  0  0
    4.9985    1.3365  -19.7243 H   0  0  0  0  0  0
   -1.6720    3.2128  -26.9278 H   0  0  0  0  0  0
    0.0388    1.9651  -20.7501 H   0  0  0  0  0  0
    6.8222    0.3608  -21.5123 H   0  0  0  0  0  0
   -3.0781    3.3131  -28.3938 H   0  0  0  0  0  0
    7.6240    9.7780  -22.6910 O   0  0  0  0  0  0
    4.4100    6.9370  -21.1920 N   0  3  0  0  0  0
    4.9810    8.2170  -20.6370 C   0  0  0  0  0  0
    3.4250    7.1010  -22.3200 C   0  0  0  0  0  0
    6.2210    8.6900  -21.3790 C   0  0  0  0  0  0
    7.5320    8.1760  -21.2170 C   0  0  0  0  0  0
    6.3580    9.6570  -22.2840 C   0  0  0  0  0  0
    9.8200    8.6940  -22.1840 C   0  0  0  0  0  0
    5.2650   10.5580  -22.8210 C   0  0  0  0  0  0
    8.3260    8.8680  -22.0210 C   0  0  0  0  0  0
    3.9781    6.4142  -20.4462 H   0  0  0  0  0  0
    5.1640    6.3390  -21.4920 H   0  0  0  0  0  0
    5.2230    8.0780  -19.5730 H   0  0  0  0  0  0
    4.2136    9.0044  -20.6690 H   0  0  0  0  0  0
    3.9200    7.5970  -23.1679 H   0  0  0  0  0  0
    2.5958    7.7451  -21.9919 H   0  0  0  0  0  0
    7.7150    7.3570  -20.5230 H   0  0  0  0  0  0
   10.1690    7.8830  -21.5280 H   0  0  0  0  0  0
   10.0479    8.4431  -23.2305 H   0  0  0  0  0  0
   10.3309    9.6297  -21.9131 H   0  0  0  0  0  0
    4.3051   10.2890  -22.3560 H   0  0  0  0  0  0
    5.5040   11.6059  -22.5870 H   0  0  0  0  0  0
    5.1900   10.4341  -23.9114 H   0  0  0  0  0  0
  1  2  2  0  0  0
  1  3  1  0  0  0
  1 34  1  0  0  0
  2  6  1  0  0  0
  2 35  1  0  0  0
  3  5  2  0  0  0
  3 27  1  0  0  0
  4  5  1  0  0  0
  4  6  2  0  0  0
  4 18  1  0  0  0
  5 24  1  0  0  0
  6 10  1  0  0  0
  7 10  2  0  0  0
  7 23  1  0  0  0
  7 33  1  0  0  0
  8 21  1  0  0  0
  8 22  1  0  0  0
  8 36  1  0  0  0
  8 37  1  0  0  0
  9 21  1  0  0  0
  9 31  1  0  0  0
  9 38  1  0  0  0
  9 39  1  0  0  0
 10 40  1  0  0  0
 11 12  1  0  0  0
 11 14  2  0  0  0
 11 15  1  0  0  0
 12 17  1  0  0  0
 12 28  2  0  0  0
 13 28  1  0  0  0
 13 29  2  0  0  0
 13 55  1  0  0  0
 14 29  1  0  0  0
 14 31  1  0  0  0
 15 30  2  0  0  0
 15 41  1  0  0  0
 16 17  2  0  0  0
 16 18  1  0  0  0
 16 30  1  0  0  0
 17 26  1  0  0  0
 18 23  2  0  0  0
 19 20  1  0  0  0
 19 31  1  0  0  0
 19 42  1  0  0  0
 19 43  1  0  0  0
 20 22  1  0  0  0
 20 32  1  0  0  0
 20 44  1  0  0  0
 21 32  1  0  0  0
 21 45  1  0  0  0
 22 46  1  0  0  0
 22 47  1  0  0  0
 23 48  1  0  0  0
 24 25  3  0  0  0
 25 49  1  0  0  0
 32 50  1  0  0  0
 33 51  1  0  0  0
 52 58  1  0  0  0
 52 61  1  0  0  0
 53 54  1  0  0  0
 53 55  1  0  0  0
 53 62  1  0  0  0
 53 63  1  0  0  0
 54 56  1  0  0  0
 54 64  1  0  0  0
 54 65  1  0  0  0
 55 66  1  0  0  0
 55 67  1  0  0  0
 56 57  1  0  0  0
 56 58  2  0  0  0
 57 61  2  0  0  0
 57 68  1  0  0  0
 58 60  1  0  0  0
 59 61  1  0  0  0
 59 69  1  0  0  0
 59 70  1  0  0  0
 59 71  1  0  0  0
 60 72  1  0  0  0
 60 73  1  0  0  0
 60 74  1  0  0  0
M  CHG  1  53   1
M  END
> <s_m_entry_id>
304

> <s_m_entry_name>
000000304.1

> <s_m_Source_Path>
/Users/zaksoul/Documents/2

> <s_m_Source_File>
000000304.mol2

> <i_m_Source_File_Index>
1

$$$$
No_0_320
                    3D
 Schrodinger Suite 2022-4.
 72 78  0  0  1  0            999 V2000
   -5.4270    3.3040  -22.2190 C   0  0  0  0  0  0
   -5.6560    3.4700  -23.5640 C   0  0  0  0  0  0
   -4.1950    3.0780  -21.8380 C   0  0  0  0  0  0
   -3.2420    3.1900  -23.9780 C   0  0  0  0  0  0
   -3.1190    2.9680  -22.5500 C   0  0  0  0  0  0
   -4.5780    3.4210  -24.5420 C   0  0  0  0  0  0
   -3.7580    3.4260  -26.7170 C   0  0  0  0  0  0
    5.8210    2.9370  -21.1560 C   0  0  0  0  0  0
    5.7560    3.0410  -23.7110 C   0  0  0  0  0  0
   -4.7910    3.5260  -25.8860 C   0  0  0  0  0  0
    1.9650    3.5220  -23.8480 C   0  0  0  0  0  0
    1.1160    4.6200  -23.5890 C   0  0  0  0  0  0
    2.8720    5.8570  -22.8730 C   0  0  0  0  0  0
    3.3520    3.7420  -23.4960 C   0  0  0  0  0  0
    1.4580    2.3860  -24.5080 C   0  0  0  0  0  0
   -0.6860    3.1630  -24.4730 C   0  0  0  0  0  0
   -0.1980    4.4010  -23.8760 C   0  0  0  0  0  0
   -2.1270    3.1390  -24.8700 C   0  0  0  0  0  0
    3.9910    1.2590  -23.1500 C   0  0  0  0  0  0
    4.8970    0.9360  -21.9720 C   0  0  2  0  0  0
    6.4780    2.4970  -22.4830 C   0  0  2  0  0  0
    4.8270    1.9530  -20.8200 C   0  0  0  0  0  0
   -2.4130    3.2730  -26.3090 C   0  0  0  0  0  0
   -1.7870    2.5870  -21.9060 C   0  0  0  0  0  0
   -0.7660    2.2640  -21.3650 C   0  0  0  0  0  0
   -1.0680    5.4360  -23.5710 F   0  0  0  0  0  0
   -4.0220    2.8580  -20.4470 F   0  0  0  0  0  0
    1.5570    5.7940  -23.0600 N   0  0  0  0  0  0
    3.7920    4.9070  -23.0530 N   0  0  0  0  0  0
    0.1630    2.2700  -24.8510 N   0  0  0  0  0  0
    4.2930    2.7080  -23.6310 N   0  0  0  0  0  0
    6.3160    1.0210  -22.4130 N   0  0  1  0  0  0
   -3.8900    3.4180  -28.1110 O   0  0  0  0  0  0
   -6.2511    3.3632  -21.5173 H   0  0  0  0  0  0
   -6.6638    3.6417  -23.9244 H   0  0  0  0  0  0
    5.3366    3.9149  -21.2943 H   0  0  0  0  0  0
    6.5842    2.9713  -20.3646 H   0  0  0  0  0  0
    6.1861    2.5907  -24.6177 H   0  0  0  0  0  0
    5.8810    4.1330  -23.7544 H   0  0  0  0  0  0
   -5.7938    3.6876  -26.2645 H   0  0  0  0  0  0
    2.1194    1.5650  -24.7599 H   0  0  0  0  0  0
    2.9393    1.1894  -22.8351 H   0  0  0  0  0  0
    4.1908    0.5527  -23.9693 H   0  0  0  0  0  0
    4.6790   -0.0743  -21.5955 H   0  0  0  0  0  0
    7.5428    2.7725  -22.5022 H   0  0  0  0  0  0
    3.8340    2.4263  -20.8129 H   0  0  0  0  0  0
    5.1077    1.4573  -19.8790 H   0  0  0  0  0  0
   -1.6205    3.2559  -27.0484 H   0  0  0  0  0  0
    0.1329    1.9800  -20.8891 H   0  0  0  0  0  0
    6.9505    0.5449  -21.6801 H   0  0  0  0  0  0
   -3.0316    3.3399  -28.5105 H   0  0  0  0  0  0
    7.1230    9.9670  -21.5100 O   0  0  0  0  0  0
    3.6830    7.1980  -20.9310 N   0  0  1  0  0  0
    6.2160   10.9090  -22.0400 N   0  0  0  0  0  0
    3.9460    8.5410  -20.2990 C   0  0  0  0  0  0
    3.3940    7.2120  -22.4080 C   0  0  0  0  0  0
    5.1160    9.3010  -20.9080 C   0  0  0  0  0  0
    5.0440   10.4920  -21.6710 C   0  0  0  0  0  0
    6.4190    9.0480  -20.8480 C   0  0  0  0  0  0
    7.0930    7.8930  -20.1370 C   0  0  0  0  0  0
    3.7780   11.2410  -22.0320 C   0  0  0  0  0  0
    4.5460    6.5620  -20.8000 H   0  0  0  0  0  0
    4.1181    8.4090  -19.2206 H   0  0  0  0  0  0
    3.0378    9.1582  -20.3640 H   0  0  0  0  0  0
    4.3140    7.4590  -22.9580 H   0  0  0  0  0  0
    2.6460    7.9880  -22.6280 H   0  0  0  0  0  0
    6.3306    7.2597  -19.6598 H   0  0  0  0  0  0
    7.6630    7.2960  -20.8640 H   0  0  0  0  0  0
    7.7766    8.2848  -19.3694 H   0  0  0  0  0  0
    2.9081   10.7101  -21.6180 H   0  0  0  0  0  0
    3.8210   12.2571  -21.6129 H   0  0  0  0  0  0
    3.6850   11.2990  -23.1265 H   0  0  0  0  0  0
  1  2  2  0  0  0
  1  3  1  0  0  0
  1 34  1  0  0  0
  2  6  1  0  0  0
  2 35  1  0  0  0
  3  5  2  0  0  0
  3 27  1  0  0  0
  4  5  1  0  0  0
  4  6  2  0  0  0
  4 18  1  0  0  0
  5 24  1  0  0  0
  6 10  1  0  0  0
  7 10  2  0  0  0
  7 23  1  0  0  0
  7 33  1  0  0  0
  8 21  1  0  0  0
  8 22  1  0  0  0
  8 36  1  0  0  0
  8 37  1  0  0  0
  9 21  1  0  0  0
  9 31  1  0  0  0
  9 38  1  0  0  0
  9 39  1  0  0  0
 10 40  1  0  0  0
 11 12  1  0  0  0
 11 14  2  0  0  0
 11 15  1  0  0  0
 12 17  1  0  0  0
 12 28  2  0  0  0
 13 28  1  0  0  0
 13 29  2  0  0  0
 13 56  1  0  0  0
 14 29  1  0  0  0
 14 31  1  0  0  0
 15 30  2  0  0  0
 15 41  1  0  0  0
 16 17  2  0  0  0
 16 18  1  0  0  0
 16 30  1  0  0  0
 17 26  1  0  0  0
 18 23  2  0  0  0
 19 20  1  0  0  0
 19 31  1  0  0  0
 19 42  1  0  0  0
 19 43  1  0  0  0
 20 22  1  0  0  0
 20 32  1  0  0  0
 20 44  1  0  0  0
 21 32  1  0  0  0
 21 45  1  0  0  0
 22 46  1  0  0  0
 22 47  1  0  0  0
 23 48  1  0  0  0
 24 25  3  0  0  0
 25 49  1  0  0  0
 32 50  1  0  0  0
 33 51  1  0  0  0
 52 54  1  0  0  0
 52 59  1  0  0  0
 53 55  1  0  0  0
 53 56  1  0  0  0
 53 62  1  0  0  0
 54 58  2  0  0  0
 55 57  1  0  0  0
 55 63  1  0  0  0
 55 64  1  0  0  0
 56 65  1  0  0  0
 56 66  1  0  0  0
 57 58  1  0  0  0
 57 59  2  0  0  0
 58 61  1  0  0  0
 59 60  1  0  0  0
 60 67  1  0  0  0
 60 68  1  0  0  0
 60 69  1  0  0  0
 61 70  1  0  0  0
 61 71  1  0  0  0
 61 72  1  0  0  0
M  END
> <s_m_entry_id>
305

> <s_m_entry_name>
000000305.1

> <s_m_Source_Path>
/Users/zaksoul/Documents/2

> <s_m_Source_File>
000000305.mol2

> <i_m_Source_File_Index>
1

$$$$
No_0_321
                    3D
 Schrodinger Suite 2022-4.
 70 76  0  0  1  0            999 V2000
   -4.9710    3.4620  -21.8210 C   0  0  0  0  0  0
   -5.2690    3.6440  -23.1510 C   0  0  0  0  0  0
   -3.7220    3.2250  -21.5070 C   0  0  0  0  0  0
   -2.8810    3.3560  -23.6930 C   0  0  0  0  0  0
   -2.6860    3.1170  -22.2760 C   0  0  0  0  0  0
   -4.2430    3.6020  -24.1840 C   0  0  0  0  0  0
   -3.5380    3.6270  -26.3990 C   0  0  0  0  0  0
    6.3150    3.0230  -21.3510 C   0  0  0  0  0  0
    6.1170    3.1570  -23.8970 C   0  0  0  0  0  0
   -4.5260    3.7230  -25.5140 C   0  0  0  0  0  0
    2.3270    3.6590  -23.8310 C   0  0  0  0  0  0
    1.5000    4.7590  -23.5160 C   0  0  0  0  0  0
    3.2980    5.9780  -22.8790 C   0  0  0  0  0  0
    3.7320    3.8680  -23.5490 C   0  0  0  0  0  0
    1.7800    2.5340  -24.4770 C   0  0  0  0  0  0
   -0.3540    3.3220  -24.3210 C   0  0  0  0  0  0
    0.1710    4.5500  -23.7360 C   0  0  0  0  0  0
   -1.8150    3.3100  -24.6420 C   0  0  0  0  0  0
    4.3740    1.3780  -23.2660 C   0  0  0  0  0  0
    5.3370    1.0360  -22.1400 C   0  0  2  0  0  0
    6.8990    2.5950  -22.7150 C   0  0  2  0  0  0
    5.3330    2.0400  -20.9750 C   0  0  0  0  0  0
   -2.1740    3.4620  -26.0630 C   0  0  0  0  0  0
   -1.3240    2.7220  -21.7070 C   0  0  0  0  0  0
   -0.2780    2.3880  -21.2230 C   0  0  0  0  0  0
   -0.6760    5.5860  -23.3750 F   0  0  0  0  0  0
   -3.4780    2.9880  -20.1300 F   0  0  0  0  0  0
    1.9740    5.9250  -22.9970 N   0  0  0  0  0  0
    4.2010    5.0250  -23.1170 N   0  0  0  0  0  0
    0.4680    2.4280  -24.7530 N   0  0  0  0  0  0
    4.6580    2.8310  -23.7450 N   0  0  0  0  0  0
    6.7320    1.1190  -22.6540 N   0  0  1  0  0  0
   -3.7420    3.6360  -27.7840 O   0  0  0  0  0  0
   -5.7568    3.5172  -21.0763 H   0  0  0  0  0  0
   -6.2930    3.8267  -23.4562 H   0  0  0  0  0  0
    5.8296    4.0049  -21.4519 H   0  0  0  0  0  0
    7.1180    3.0442  -20.5995 H   0  0  0  0  0  0
    6.4963    2.7151  -24.8302 H   0  0  0  0  0  0
    6.2461    4.2487  -23.9353 H   0  0  0  0  0  0
   -5.5463    3.8947  -25.8374 H   0  0  0  0  0  0
    2.4224    1.7119  -24.7711 H   0  0  0  0  0  0
    3.3400    1.3104  -22.8968 H   0  0  0  0  0  0
    4.5254    0.6804  -24.1029 H   0  0  0  0  0  0
    5.1331    0.0224  -21.7644 H   0  0  0  0  0  0
    7.9631    2.8645  -22.7867 H   0  0  0  0  0  0
    4.3450    2.5193  -20.9104 H   0  0  0  0  0  0
    5.6600    1.5323  -20.0556 H   0  0  0  0  0  0
   -1.4212    3.4500  -26.8429 H   0  0  0  0  0  0
    0.6429    2.0940  -20.7980 H   0  0  0  0  0  0
    7.4015    0.6313  -21.9610 H   0  0  0  0  0  0
   -2.9059    3.5578  -28.2283 H   0  0  0  0  0  0
    9.8110    8.6750  -20.2050 Br  0  0  0  0  0  0
    3.8810    7.4340  -20.9250 N   0  0  1  0  0  0
    6.2990    9.8250  -21.6520 N   0  0  0  0  0  0
    7.6540    9.7800  -21.5770 N   0  0  0  0  0  0
    4.3750    8.7540  -20.3880 C   0  0  0  0  0  0
    5.8500    8.9980  -20.6670 C   0  0  0  0  0  0
    3.8520    7.3250  -22.4260 C   0  0  0  0  0  0
    5.5530   10.6360  -22.6190 C   0  0  0  0  0  0
    6.8630    8.4470  -19.9890 C   0  0  0  0  0  0
    7.9990    8.9760  -20.6060 C   0  0  0  0  0  0
    4.5209    6.6392  -20.5711 H   0  0  0  0  0  0
    4.1959    8.7970  -19.3035 H   0  0  0  0  0  0
    3.7804    9.5705  -20.8237 H   0  0  0  0  0  0
    4.8696    7.4541  -22.8232 H   0  0  0  0  0  0
    3.2310    8.1330  -22.8400 H   0  0  0  0  0  0
    4.4735   10.4899  -22.4659 H   0  0  0  0  0  0
    5.8030   11.6979  -22.4780 H   0  0  0  0  0  0
    5.8229   10.3301  -23.6406 H   0  0  0  0  0  0
    6.6600    7.7630  -19.1730 H   0  0  0  0  0  0
  1  2  2  0  0  0
  1  3  1  0  0  0
  1 34  1  0  0  0
  2  6  1  0  0  0
  2 35  1  0  0  0
  3  5  2  0  0  0
  3 27  1  0  0  0
  4  5  1  0  0  0
  4  6  2  0  0  0
  4 18  1  0  0  0
  5 24  1  0  0  0
  6 10  1  0  0  0
  7 10  2  0  0  0
  7 23  1  0  0  0
  7 33  1  0  0  0
  8 21  1  0  0  0
  8 22  1  0  0  0
  8 36  1  0  0  0
  8 37  1  0  0  0
  9 21  1  0  0  0
  9 31  1  0  0  0
  9 38  1  0  0  0
  9 39  1  0  0  0
 10 40  1  0  0  0
 11 12  1  0  0  0
 11 14  2  0  0  0
 11 15  1  0  0  0
 12 17  1  0  0  0
 12 28  2  0  0  0
 13 28  1  0  0  0
 13 29  2  0  0  0
 13 58  1  0  0  0
 14 29  1  0  0  0
 14 31  1  0  0  0
 15 30  2  0  0  0
 15 41  1  0  0  0
 16 17  2  0  0  0
 16 18  1  0  0  0
 16 30  1  0  0  0
 17 26  1  0  0  0
 18 23  2  0  0  0
 19 20  1  0  0  0
 19 31  1  0  0  0
 19 42  1  0  0  0
 19 43  1  0  0  0
 20 22  1  0  0  0
 20 32  1  0  0  0
 20 44  1  0  0  0
 21 32  1  0  0  0
 21 45  1  0  0  0
 22 46  1  0  0  0
 22 47  1  0  0  0
 23 48  1  0  0  0
 24 25  3  0  0  0
 25 49  1  0  0  0
 32 50  1  0  0  0
 33 51  1  0  0  0
 52 61  1  0  0  0
 53 56  1  0  0  0
 53 58  1  0  0  0
 53 62  1  0  0  0
 54 55  1  0  0  0
 54 57  1  0  0  0
 54 59  1  0  0  0
 55 61  2  0  0  0
 56 57  1  0  0  0
 56 63  1  0  0  0
 56 64  1  0  0  0
 57 60  2  0  0  0
 58 65  1  0  0  0
 58 66  1  0  0  0
 59 67  1  0  0  0
 59 68  1  0  0  0
 59 69  1  0  0  0
 60 61  1  0  0  0
 60 70  1  0  0  0
M  END
> <s_m_entry_id>
306

> <s_m_entry_name>
000000306.1

> <s_m_Source_Path>
/Users/zaksoul/Documents/2

> <s_m_Source_File>
000000306.mol2

> <i_m_Source_File_Index>
1

$$$$
No_0_322
                    3D
 Schrodinger Suite 2022-4.
 70 76  0  0  1  0            999 V2000
   -5.3210    3.2450  -22.0620 C   0  0  0  0  0  0
   -5.5650    3.4290  -23.4020 C   0  0  0  0  0  0
   -4.0820    3.0320  -21.6950 C   0  0  0  0  0  0
   -3.1510    3.1950  -23.8420 C   0  0  0  0  0  0
   -3.0120    2.9520  -22.4190 C   0  0  0  0  0  0
   -4.4950    3.4140  -24.3900 C   0  0  0  0  0  0
   -3.6950    3.4680  -26.5720 C   0  0  0  0  0  0
    5.9410    3.0420  -21.1050 C   0  0  0  0  0  0
    5.8510    3.1870  -23.6570 C   0  0  0  0  0  0
   -4.7220    3.5370  -25.7300 C   0  0  0  0  0  0
    2.0510    3.6090  -23.7520 C   0  0  0  0  0  0
    1.1880    4.6880  -23.4680 C   0  0  0  0  0  0
    2.9300    5.9410  -22.7470 C   0  0  0  0  0  0
    3.4370    3.8450  -23.4090 C   0  0  0  0  0  0
    1.5560    2.4760  -24.4270 C   0  0  0  0  0  0
   -0.5990    3.2180  -24.3590 C   0  0  0  0  0  0
   -0.1260    4.4530  -23.7470 C   0  0  0  0  0  0
   -2.0430    3.1770  -24.7440 C   0  0  0  0  0  0
    4.1200    1.3680  -23.1100 C   0  0  0  0  0  0
    5.0410    1.0400  -21.9450 C   0  0  2  0  0  0
    6.5920    2.6340  -22.4450 C   0  0  2  0  0  0
    4.9650    2.0370  -20.7760 C   0  0  0  0  0  0
   -2.3440    3.3290  -26.1780 C   0  0  0  0  0  0
   -1.6670    2.5810  -21.7930 C   0  0  0  0  0  0
   -0.6360    2.2670  -21.2660 C   0  0  0  0  0  0
   -1.0090    5.4690  -23.4170 F   0  0  0  0  0  0
   -3.8930    2.7930  -20.3100 F   0  0  0  0  0  0
    1.6140    5.8610  -22.9230 N   0  0  0  0  0  0
    3.8630    5.0100  -22.9510 N   0  0  0  0  0  0
    0.2600    2.3440  -24.7600 N   0  0  0  0  0  0
    4.3940    2.8290  -23.5690 N   0  0  0  0  0  0
    6.4540    1.1550  -22.3980 N   0  0  1  0  0  0
   -3.8390    3.4810  -27.9650 O   0  0  0  0  0  0
   -6.1389    3.2791  -21.3515 H   0  0  0  0  0  0
   -6.5784    3.5905  -23.7512 H   0  0  0  0  0  0
    5.4394    4.0139  -21.2221 H   0  0  0  0  0  0
    6.7103    3.0763  -20.3195 H   0  0  0  0  0  0
    6.2793    2.7587  -24.5752 H   0  0  0  0  0  0
    5.9579    4.2815  -23.6842 H   0  0  0  0  0  0
   -5.7304    3.6895  -26.0972 H   0  0  0  0  0  0
    2.2284    1.6701  -24.6980 H   0  0  0  0  0  0
    3.0725    1.2762  -22.7871 H   0  0  0  0  0  0
    4.3229    0.6786  -23.9428 H   0  0  0  0  0  0
    4.8423    0.0202  -21.5839 H   0  0  0  0  0  0
    7.6519    2.9275  -22.4682 H   0  0  0  0  0  0
    3.9648    2.4942  -20.7528 H   0  0  0  0  0  0
    5.2628    1.5302  -19.8462 H   0  0  0  0  0  0
   -1.5582    3.3380  -26.9247 H   0  0  0  0  0  0
    0.2716    1.9898  -20.8027 H   0  0  0  0  0  0
    7.1032    0.6770  -21.6793 H   0  0  0  0  0  0
   -2.9829    3.4226  -28.3727 H   0  0  0  0  0  0
    9.5600    9.0970  -21.0370 Br  0  0  0  0  0  0
    3.7420    7.2800  -20.7900 N   0  0  1  0  0  0
    5.7460    9.9740  -21.6910 N   0  0  0  0  0  0
    7.0880   10.0720  -21.8700 N   0  0  0  0  0  0
    4.2060    8.5950  -20.2170 C   0  0  0  0  0  0
    5.5710    9.0220  -20.7330 C   0  0  0  0  0  0
    3.4350    7.2970  -22.2640 C   0  0  0  0  0  0
    4.7580   10.7790  -22.4160 C   0  0  0  0  0  0
    6.7420    8.5290  -20.3130 C   0  0  0  0  0  0
    7.6850    9.2310  -21.0680 C   0  0  0  0  0  0
    4.5081    6.5329  -20.6440 H   0  0  0  0  0  0
    4.2360    8.5250  -19.1196 H   0  0  0  0  0  0
    3.4671    9.3759  -20.4500 H   0  0  0  0  0  0
    4.3412    7.5711  -22.8241 H   0  0  0  0  0  0
    2.6751    8.0649  -22.4710 H   0  0  0  0  0  0
    3.7460   10.5030  -22.0850 H   0  0  0  0  0  0
    4.9320   11.8458  -22.2120 H   0  0  0  0  0  0
    4.8530   10.5930  -23.4960 H   0  0  0  0  0  0
    6.7630    7.7596  -19.5496 H   0  0  0  0  0  0
  1  2  2  0  0  0
  1  3  1  0  0  0
  1 34  1  0  0  0
  2  6  1  0  0  0
  2 35  1  0  0  0
  3  5  2  0  0  0
  3 27  1  0  0  0
  4  5  1  0  0  0
  4  6  2  0  0  0
  4 18  1  0  0  0
  5 24  1  0  0  0
  6 10  1  0  0  0
  7 10  2  0  0  0
  7 23  1  0  0  0
  7 33  1  0  0  0
  8 21  1  0  0  0
  8 22  1  0  0  0
  8 36  1  0  0  0
  8 37  1  0  0  0
  9 21  1  0  0  0
  9 31  1  0  0  0
  9 38  1  0  0  0
  9 39  1  0  0  0
 10 40  1  0  0  0
 11 12  1  0  0  0
 11 14  2  0  0  0
 11 15  1  0  0  0
 12 17  1  0  0  0
 12 28  2  0  0  0
 13 28  1  0  0  0
 13 29  2  0  0  0
 13 58  1  0  0  0
 14 29  1  0  0  0
 14 31  1  0  0  0
 15 30  2  0  0  0
 15 41  1  0  0  0
 16 17  2  0  0  0
 16 18  1  0  0  0
 16 30  1  0  0  0
 17 26  1  0  0  0
 18 23  2  0  0  0
 19 20  1  0  0  0
 19 31  1  0  0  0
 19 42  1  0  0  0
 19 43  1  0  0  0
 20 22  1  0  0  0
 20 32  1  0  0  0
 20 44  1  0  0  0
 21 32  1  0  0  0
 21 45  1  0  0  0
 22 46  1  0  0  0
 22 47  1  0  0  0
 23 48  1  0  0  0
 24 25  3  0  0  0
 25 49  1  0  0  0
 32 50  1  0  0  0
 33 51  1  0  0  0
 52 61  1  0  0  0
 53 56  1  0  0  0
 53 58  1  0  0  0
 53 62  1  0  0  0
 54 55  1  0  0  0
 54 57  1  0  0  0
 54 59  1  0  0  0
 55 61  2  0  0  0
 56 57  1  0  0  0
 56 63  1  0  0  0
 56 64  1  0  0  0
 57 60  2  0  0  0
 58 65  1  0  0  0
 58 66  1  0  0  0
 59 67  1  0  0  0
 59 68  1  0  0  0
 59 69  1  0  0  0
 60 61  1  0  0  0
 60 70  1  0  0  0
M  END
> <s_m_entry_id>
307

> <s_m_entry_name>
000000307.1

> <s_m_Source_Path>
/Users/zaksoul/Documents/2

> <s_m_Source_File>
000000307.mol2

> <i_m_Source_File_Index>
1

$$$$
No_0_324
                    3D
 Schrodinger Suite 2022-4.
 74 80  0  0  1  0            999 V2000
   -5.3910    3.3670  -22.1420 C   0  0  0  0  0  0
   -5.6370    3.5140  -23.4860 C   0  0  0  0  0  0
   -4.1530    3.1540  -21.7730 C   0  0  0  0  0  0
   -3.2260    3.2470  -23.9250 C   0  0  0  0  0  0
   -3.0850    3.0430  -22.4960 C   0  0  0  0  0  0
   -4.5700    3.4620  -24.4760 C   0  0  0  0  0  0
   -3.7760    3.4470  -26.6610 C   0  0  0  0  0  0
    5.8710    3.0940  -21.2070 C   0  0  0  0  0  0
    5.7750    3.1680  -23.7620 C   0  0  0  0  0  0
   -4.8000    3.5490  -25.8190 C   0  0  0  0  0  0
    1.9790    3.6190  -23.8600 C   0  0  0  0  0  0
    1.1260    4.7140  -23.6040 C   0  0  0  0  0  0
    2.8810    5.9720  -22.9240 C   0  0  0  0  0  0
    3.3690    3.8530  -23.5270 C   0  0  0  0  0  0
    1.4730    2.4720  -24.5010 C   0  0  0  0  0  0
   -0.6750    3.2330  -24.4490 C   0  0  0  0  0  0
   -0.1900    4.4820  -23.8730 C   0  0  0  0  0  0
   -2.1210    3.1940  -24.8290 C   0  0  0  0  0  0
    4.0310    1.3800  -23.1600 C   0  0  0  0  0  0
    4.9520    1.0770  -21.9880 C   0  0  2  0  0  0
    6.5150    2.6430  -22.5360 C   0  0  2  0  0  0
    4.8880    2.1070  -20.8480 C   0  0  0  0  0  0
   -2.4250    3.3080  -26.2660 C   0  0  0  0  0  0
   -1.7420    2.6800  -21.8630 C   0  0  0  0  0  0
   -0.7130    2.3710  -21.3300 C   0  0  0  0  0  0
   -1.0640    5.5140  -23.5710 F   0  0  0  0  0  0
   -3.9620    2.9520  -20.3810 F   0  0  0  0  0  0
    1.5640    5.8980  -23.0950 N   0  0  0  0  0  0
    3.8050    5.0270  -23.1030 N   0  0  0  0  0  0
    0.1750    2.3410  -24.8270 N   0  0  0  0  0  0
    4.3160    2.8250  -23.6610 N   0  0  0  0  0  0
    6.3650    1.1670  -22.4470 N   0  0  1  0  0  0
   -3.9230    3.4210  -28.0530 O   0  0  0  0  0  0
   -6.2072    3.4282  -21.4312 H   0  0  0  0  0  0
   -6.6498    3.6754  -23.8370 H   0  0  0  0  0  0
    5.3777    4.0665  -21.3513 H   0  0  0  0  0  0
    6.6424    3.1445  -20.4245 H   0  0  0  0  0  0
    6.1978    2.7098  -24.6682 H   0  0  0  0  0  0
    5.8921    4.2602  -23.8205 H   0  0  0  0  0  0
   -5.8082    3.6996  -26.1875 H   0  0  0  0  0  0
    2.1372    1.6523  -24.7498 H   0  0  0  0  0  0
    2.9840    1.3054  -22.8312 H   0  0  0  0  0  0
    4.2258    0.6645  -23.9724 H   0  0  0  0  0  0
    4.7461    0.0695  -21.5973 H   0  0  0  0  0  0
    7.5773    2.9265  -22.5713 H   0  0  0  0  0  0
    3.8922    2.5741  -20.8339 H   0  0  0  0  0  0
    5.1838    1.6255  -19.9042 H   0  0  0  0  0  0
   -1.6413    3.2879  -27.0146 H   0  0  0  0  0  0
    0.1936    2.1001  -20.8612 H   0  0  0  0  0  0
    7.0120    0.7040  -21.7166 H   0  0  0  0  0  0
   -3.0689    3.3438  -28.4617 H   0  0  0  0  0  0
    8.9350    7.7230  -19.9590 F   0  0  0  0  0  0
    3.7040    7.3420  -21.0070 N   0  3  0  0  0  0
    4.2240    8.6470  -20.4620 C   0  0  0  0  0  0
    3.3980    7.3360  -22.4810 C   0  0  0  0  0  0
    5.6580    8.9350  -20.8940 C   0  0  0  0  0  0
    5.9960    9.8570  -21.8680 C   0  0  0  0  0  0
    6.6530    8.2230  -20.2600 C   0  0  0  0  0  0
    8.3110    9.3380  -21.5550 C   0  0  0  0  0  0
    7.3220   10.0510  -22.1910 C   0  0  0  0  0  0
    7.9770    8.4200  -20.5850 C   0  0  0  0  0  0
    4.9660   10.6900  -22.6130 C   0  0  0  0  0  0
    2.8793    7.0721  -20.4942 H   0  0  0  0  0  0
    4.3641    6.6089  -20.8000 H   0  0  0  0  0  0
    4.1690    8.6320  -19.3635 H   0  0  0  0  0  0
    3.5699    9.4671  -20.7930 H   0  0  0  0  0  0
    4.3097    7.5829  -23.0448 H   0  0  0  0  0  0
    2.6421    8.1039  -22.7020 H   0  0  0  0  0  0
    6.3979    7.4988  -19.4948 H   0  0  0  0  0  0
    9.3502    9.4990  -21.8181 H   0  0  0  0  0  0
    7.5941   10.7712  -22.9542 H   0  0  0  0  0  0
    5.4757   11.3466  -23.3335 H   0  0  0  0  0  0
    4.2742   10.0242  -23.1498 H   0  0  0  0  0  0
    4.4011   11.3029  -21.8952 H   0  0  0  0  0  0
  1  2  2  0  0  0
  1  3  1  0  0  0
  1 34  1  0  0  0
  2  6  1  0  0  0
  2 35  1  0  0  0
  3  5  2  0  0  0
  3 27  1  0  0  0
  4  5  1  0  0  0
  4  6  2  0  0  0
  4 18  1  0  0  0
  5 24  1  0  0  0
  6 10  1  0  0  0
  7 10  2  0  0  0
  7 23  1  0  0  0
  7 33  1  0  0  0
  8 21  1  0  0  0
  8 22  1  0  0  0
  8 36  1  0  0  0
  8 37  1  0  0  0
  9 21  1  0  0  0
  9 31  1  0  0  0
  9 38  1  0  0  0
  9 39  1  0  0  0
 10 40  1  0  0  0
 11 12  1  0  0  0
 11 14  2  0  0  0
 11 15  1  0  0  0
 12 17  1  0  0  0
 12 28  2  0  0  0
 13 28  1  0  0  0
 13 29  2  0  0  0
 13 55  1  0  0  0
 14 29  1  0  0  0
 14 31  1  0  0  0
 15 30  2  0  0  0
 15 41  1  0  0  0
 16 17  2  0  0  0
 16 18  1  0  0  0
 16 30  1  0  0  0
 17 26  1  0  0  0
 18 23  2  0  0  0
 19 20  1  0  0  0
 19 31  1  0  0  0
 19 42  1  0  0  0
 19 43  1  0  0  0
 20 22  1  0  0  0
 20 32  1  0  0  0
 20 44  1  0  0  0
 21 32  1  0  0  0
 21 45  1  0  0  0
 22 46  1  0  0  0
 22 47  1  0  0  0
 23 48  1  0  0  0
 24 25  3  0  0  0
 25 49  1  0  0  0
 32 50  1  0  0  0
 33 51  1  0  0  0
 52 61  1  0  0  0
 53 54  1  0  0  0
 53 55  1  0  0  0
 53 63  1  0  0  0
 53 64  1  0  0  0
 54 56  1  0  0  0
 54 65  1  0  0  0
 54 66  1  0  0  0
 55 67  1  0  0  0
 55 68  1  0  0  0
 56 57  2  0  0  0
 56 58  1  0  0  0
 57 60  1  0  0  0
 57 62  1  0  0  0
 58 61  2  0  0  0
 58 69  1  0  0  0
 59 60  2  0  0  0
 59 61  1  0  0  0
 59 70  1  0  0  0
 60 71  1  0  0  0
 62 72  1  0  0  0
 62 73  1  0  0  0
 62 74  1  0  0  0
M  CHG  1  53   1
M  END
> <s_m_entry_id>
308

> <s_m_entry_name>
000000308.1

> <s_m_Source_Path>
/Users/zaksoul/Documents/2

> <s_m_Source_File>
000000308.mol2

> <i_m_Source_File_Index>
1

$$$$
No_0_325
                    3D
 Schrodinger Suite 2022-4.
 70 76  0  0  1  0            999 V2000
   -5.4250    3.4110  -22.1490 C   0  0  0  0  0  0
   -5.6730    3.6050  -23.4880 C   0  0  0  0  0  0
   -4.1880    3.1760  -21.7910 C   0  0  0  0  0  0
   -3.2650    3.3330  -23.9410 C   0  0  0  0  0  0
   -3.1230    3.0810  -22.5200 C   0  0  0  0  0  0
   -4.6090    3.5770  -24.4820 C   0  0  0  0  0  0
   -3.8200    3.6270  -26.6670 C   0  0  0  0  0  0
    5.8370    3.0150  -21.2540 C   0  0  0  0  0  0
    5.7360    3.1740  -23.8050 C   0  0  0  0  0  0
   -4.8410    3.7090  -25.8200 C   0  0  0  0  0  0
    1.9430    3.6590  -23.8780 C   0  0  0  0  0  0
    1.0990    4.7520  -23.5840 C   0  0  0  0  0  0
    2.8660    5.9720  -22.8680 C   0  0  0  0  0  0
    3.3350    3.8710  -23.5410 C   0  0  0  0  0  0
    1.4260    2.5380  -24.5550 C   0  0  0  0  0  0
   -0.7160    3.3150  -24.4730 C   0  0  0  0  0  0
   -0.2190    4.5400  -23.8570 C   0  0  0  0  0  0
   -2.1630    3.3000  -24.8500 C   0  0  0  0  0  0
    3.9770    1.3810  -23.2570 C   0  0  0  0  0  0
    4.8990    1.0330  -22.0980 C   0  0  2  0  0  0
    6.4740    2.6030  -22.5990 C   0  0  2  0  0  0
    4.8460    2.0250  -20.9250 C   0  0  0  0  0  0
   -2.4690    3.4640  -26.2820 C   0  0  0  0  0  0
   -1.7810    2.6850  -21.9030 C   0  0  0  0  0  0
   -0.7530    2.3510  -21.3840 C   0  0  0  0  0  0
   -1.0840    5.5680  -23.5190 F   0  0  0  0  0  0
   -3.9950    2.9270  -20.4070 F   0  0  0  0  0  0
    1.5490    5.9150  -23.0370 N   0  0  0  0  0  0
    3.7820    5.0260  -23.0800 N   0  0  0  0  0  0
    0.1260    2.4290  -24.8820 N   0  0  0  0  0  0
    4.2730    2.8390  -23.7110 N   0  0  0  0  0  0
    6.3120    1.1270  -22.5580 N   0  0  1  0  0  0
   -3.9710    3.6480  -28.0600 O   0  0  0  0  0  0
   -6.2394    3.4562  -21.4350 H   0  0  0  0  0  0
   -6.6856    3.7856  -23.8302 H   0  0  0  0  0  0
    5.3516    3.9959  -21.3650 H   0  0  0  0  0  0
    6.6107    3.0332  -20.4723 H   0  0  0  0  0  0
    6.1517    2.7421  -24.7273 H   0  0  0  0  0  0
    5.8612    4.2666  -23.8282 H   0  0  0  0  0  0
   -5.8488    3.8807  -26.1804 H   0  0  0  0  0  0
    2.0833    1.7221  -24.8330 H   0  0  0  0  0  0
    2.9301    1.3053  -22.9279 H   0  0  0  0  0  0
    4.1647    0.6918  -24.0935 H   0  0  0  0  0  0
    4.6860    0.0147  -21.7407 H   0  0  0  0  0  0
    7.5386    2.8785  -22.6273 H   0  0  0  0  0  0
    3.8540    2.4993  -20.8937 H   0  0  0  0  0  0
    5.1407    1.5103  -19.9986 H   0  0  0  0  0  0
   -1.6871    3.4630  -27.0328 H   0  0  0  0  0  0
    0.1520    2.0570  -20.9260 H   0  0  0  0  0  0
    6.9558    0.6340  -21.8447 H   0  0  0  0  0  0
   -3.1182    3.5778  -28.4726 H   0  0  0  0  0  0
    9.2010    8.6090  -20.8870 O   0  0  0  0  0  0
    6.0270    9.1750  -22.0740 O   0  0  0  0  0  0
    3.7020    7.2610  -20.9090 N   0  0  1  0  0  0
    7.4350    9.2060  -22.2310 N   0  0  0  0  0  0
    3.3960    7.3170  -22.3810 C   0  0  0  0  0  0
    4.3330    8.5070  -20.3490 C   0  0  0  0  0  0
    5.7510    8.6850  -20.8590 C   0  0  0  0  0  0
    6.8630    8.3880  -20.2140 C   0  0  0  0  0  0
    7.9110    8.7320  -21.1110 C   0  0  0  0  0  0
    9.6200    8.0610  -19.6210 C   0  0  0  0  0  0
    2.7879    7.1000  -20.3569 H   0  0  0  0  0  0
    4.3107    7.5729  -22.9358 H   0  0  0  0  0  0
    2.6439    8.0971  -22.5700 H   0  0  0  0  0  0
    4.3430    8.4500  -19.2505 H   0  0  0  0  0  0
    3.7291    9.3818  -20.6319 H   0  0  0  0  0  0
    6.8160    7.9710  -19.2091 H   0  0  0  0  0  0
   10.7186    8.0220  -19.5830 H   0  0  0  0  0  0
    9.2480    8.6980  -18.8050 H   0  0  0  0  0  0
    9.2131    7.0453  -19.5080 H   0  0  0  0  0  0
  1  2  2  0  0  0
  1  3  1  0  0  0
  1 34  1  0  0  0
  2  6  1  0  0  0
  2 35  1  0  0  0
  3  5  2  0  0  0
  3 27  1  0  0  0
  4  5  1  0  0  0
  4  6  2  0  0  0
  4 18  1  0  0  0
  5 24  1  0  0  0
  6 10  1  0  0  0
  7 10  2  0  0  0
  7 23  1  0  0  0
  7 33  1  0  0  0
  8 21  1  0  0  0
  8 22  1  0  0  0
  8 36  1  0  0  0
  8 37  1  0  0  0
  9 21  1  0  0  0
  9 31  1  0  0  0
  9 38  1  0  0  0
  9 39  1  0  0  0
 10 40  1  0  0  0
 11 12  1  0  0  0
 11 14  2  0  0  0
 11 15  1  0  0  0
 12 17  1  0  0  0
 12 28  2  0  0  0
 13 28  1  0  0  0
 13 29  2  0  0  0
 13 56  1  0  0  0
 14 29  1  0  0  0
 14 31  1  0  0  0
 15 30  2  0  0  0
 15 41  1  0  0  0
 16 17  2  0  0  0
 16 18  1  0  0  0
 16 30  1  0  0  0
 17 26  1  0  0  0
 18 23  2  0  0  0
 19 20  1  0  0  0
 19 31  1  0  0  0
 19 42  1  0  0  0
 19 43  1  0  0  0
 20 22  1  0  0  0
 20 32  1  0  0  0
 20 44  1  0  0  0
 21 32  1  0  0  0
 21 45  1  0  0  0
 22 46  1  0  0  0
 22 47  1  0  0  0
 23 48  1  0  0  0
 24 25  3  0  0  0
 25 49  1  0  0  0
 32 50  1  0  0  0
 33 51  1  0  0  0
 52 60  1  0  0  0
 52 61  1  0  0  0
 53 55  1  0  0  0
 53 58  1  0  0  0
 54 56  1  0  0  0
 54 57  1  0  0  0
 54 62  1  0  0  0
 55 60  2  0  0  0
 56 63  1  0  0  0
 56 64  1  0  0  0
 57 58  1  0  0  0
 57 65  1  0  0  0
 57 66  1  0  0  0
 58 59  2  0  0  0
 59 60  1  0  0  0
 59 67  1  0  0  0
 61 68  1  0  0  0
 61 69  1  0  0  0
 61 70  1  0  0  0
M  END
> <s_m_entry_id>
309

> <s_m_entry_name>
000000309.1

> <s_m_Source_Path>
/Users/zaksoul/Documents/2

> <s_m_Source_File>
000000309.mol2

> <i_m_Source_File_Index>
1

$$$$
No_0_326
                    3D
 Schrodinger Suite 2022-4.
 70 76  0  0  1  0            999 V2000
   -5.1550    3.2490  -21.9670 C   0  0  0  0  0  0
   -5.4380    3.4060  -23.3030 C   0  0  0  0  0  0
   -3.9100    3.0130  -21.6360 C   0  0  0  0  0  0
   -3.0460    3.0990  -23.8140 C   0  0  0  0  0  0
   -2.8660    2.8870  -22.3910 C   0  0  0  0  0  0
   -4.4020    3.3400  -24.3240 C   0  0  0  0  0  0
   -3.6730    3.3200  -26.5310 C   0  0  0  0  0  0
    6.1240    2.7780  -21.3680 C   0  0  0  0  0  0
    5.9540    2.8640  -23.9190 C   0  0  0  0  0  0
   -4.6700    3.4360  -25.6590 C   0  0  0  0  0  0
    2.1650    3.3810  -23.9020 C   0  0  0  0  0  0
    1.3380    4.4890  -23.6170 C   0  0  0  0  0  0
    3.1340    5.7140  -22.9850 C   0  0  0  0  0  0
    3.5670    3.5900  -23.6100 C   0  0  0  0  0  0
    1.6200    2.2450  -24.5330 C   0  0  0  0  0  0
   -0.5130    3.0440  -24.4140 C   0  0  0  0  0  0
    0.0110    4.2810  -23.8480 C   0  0  0  0  0  0
   -1.9700    3.0310  -24.7510 C   0  0  0  0  0  0
    4.1970    1.1040  -23.2720 C   0  0  0  0  0  0
    5.1470    0.7800  -22.1290 C   0  0  2  0  0  0
    6.7210    2.3220  -22.7180 C   0  0  2  0  0  0
    5.1340    1.8070  -20.9840 C   0  0  0  0  0  0
   -2.3130    3.1560  -26.1780 C   0  0  0  0  0  0
   -1.5120    2.4980  -21.7990 C   0  0  0  0  0  0
   -0.4720    2.1690  -21.2990 C   0  0  0  0  0  0
   -0.8350    5.3270  -23.5160 F   0  0  0  0  0  0
   -3.6820    2.8020  -20.2510 F   0  0  0  0  0  0
    1.8120    5.6630  -23.1170 N   0  0  0  0  0  0
    4.0360    4.7540  -23.1950 N   0  0  0  0  0  0
    0.3110    2.1390  -24.8200 N   0  0  0  0  0  0
    4.4920    2.5460  -23.7760 N   0  0  0  0  0  0
    6.5470    0.8480  -22.6300 N   0  0  1  0  0  0
   -3.8620    3.3030  -27.9190 O   0  0  0  0  0  0
   -5.9484    3.3213  -21.2319 H   0  0  0  0  0  0
   -6.4579    3.5857  -23.6232 H   0  0  0  0  0  0
    5.6438    3.7596  -21.4941 H   0  0  0  0  0  0
    6.9194    2.8113  -20.6089 H   0  0  0  0  0  0
    6.3406    2.4026  -24.8397 H   0  0  0  0  0  0
    6.0873    3.9544  -23.9765 H   0  0  0  0  0  0
   -5.6858    3.6056  -25.9973 H   0  0  0  0  0  0
    2.2628    1.4154  -24.8042 H   0  0  0  0  0  0
    3.1589    1.0465  -22.9128 H   0  0  0  0  0  0
    4.3545    0.3890  -24.0930 H   0  0  0  0  0  0
    4.9350   -0.2254  -21.7363 H   0  0  0  0  0  0
    7.7867    2.5867  -22.7826 H   0  0  0  0  0  0
    4.1470    2.2904  -20.9386 H   0  0  0  0  0  0
    5.4498    1.3157  -20.0518 H   0  0  0  0  0  0
   -1.5523    3.1269  -26.9497 H   0  0  0  0  0  0
    0.4430    1.8800  -20.8580 H   0  0  0  0  0  0
    7.2066    0.3712  -21.9201 H   0  0  0  0  0  0
   -3.0215    3.2129  -28.3526 H   0  0  0  0  0  0
    9.5920    8.7230  -22.4890 O   0  0  0  0  0  0
    6.1910    9.1040  -22.7880 O   0  0  0  0  0  0
    4.3660    6.9550  -21.2140 N   0  0  1  0  0  0
    7.5060    9.2530  -23.2940 N   0  0  0  0  0  0
    3.6880    7.0670  -22.5530 C   0  0  0  0  0  0
    5.0430    8.2140  -20.7430 C   0  0  0  0  0  0
    6.2670    8.5290  -21.5810 C   0  0  0  0  0  0
    7.5250    8.2840  -21.2630 C   0  0  0  0  0  0
    8.2830    8.7570  -22.3680 C   0  0  0  0  0  0
   10.3560    8.1410  -21.4130 C   0  0  0  0  0  0
    3.6372    6.6931  -20.4612 H   0  0  0  0  0  0
    4.4119    7.4229  -23.3009 H   0  0  0  0  0  0
    2.8660    7.7950  -22.4870 H   0  0  0  0  0  0
    5.3399    8.0980  -19.6902 H   0  0  0  0  0  0
    4.3339    9.0531  -20.7990 H   0  0  0  0  0  0
    7.7640    7.8121  -20.3111 H   0  0  0  0  0  0
   11.4274    8.1850  -21.6581 H   0  0  0  0  0  0
   10.1691    8.7018  -20.4853 H   0  0  0  0  0  0
   10.0538    7.0924  -21.2749 H   0  0  0  0  0  0
  1  2  2  0  0  0
  1  3  1  0  0  0
  1 34  1  0  0  0
  2  6  1  0  0  0
  2 35  1  0  0  0
  3  5  2  0  0  0
  3 27  1  0  0  0
  4  5  1  0  0  0
  4  6  2  0  0  0
  4 18  1  0  0  0
  5 24  1  0  0  0
  6 10  1  0  0  0
  7 10  2  0  0  0
  7 23  1  0  0  0
  7 33  1  0  0  0
  8 21  1  0  0  0
  8 22  1  0  0  0
  8 36  1  0  0  0
  8 37  1  0  0  0
  9 21  1  0  0  0
  9 31  1  0  0  0
  9 38  1  0  0  0
  9 39  1  0  0  0
 10 40  1  0  0  0
 11 12  1  0  0  0
 11 14  2  0  0  0
 11 15  1  0  0  0
 12 17  1  0  0  0
 12 28  2  0  0  0
 13 28  1  0  0  0
 13 29  2  0  0  0
 13 56  1  0  0  0
 14 29  1  0  0  0
 14 31  1  0  0  0
 15 30  2  0  0  0
 15 41  1  0  0  0
 16 17  2  0  0  0
 16 18  1  0  0  0
 16 30  1  0  0  0
 17 26  1  0  0  0
 18 23  2  0  0  0
 19 20  1  0  0  0
 19 31  1  0  0  0
 19 42  1  0  0  0
 19 43  1  0  0  0
 20 22  1  0  0  0
 20 32  1  0  0  0
 20 44  1  0  0  0
 21 32  1  0  0  0
 21 45  1  0  0  0
 22 46  1  0  0  0
 22 47  1  0  0  0
 23 48  1  0  0  0
 24 25  3  0  0  0
 25 49  1  0  0  0
 32 50  1  0  0  0
 33 51  1  0  0  0
 52 60  1  0  0  0
 52 61  1  0  0  0
 53 55  1  0  0  0
 53 58  1  0  0  0
 54 56  1  0  0  0
 54 57  1  0  0  0
 54 62  1  0  0  0
 55 60  2  0  0  0
 56 63  1  0  0  0
 56 64  1  0  0  0
 57 58  1  0  0  0
 57 65  1  0  0  0
 57 66  1  0  0  0
 58 59  2  0  0  0
 59 60  1  0  0  0
 59 67  1  0  0  0
 61 68  1  0  0  0
 61 69  1  0  0  0
 61 70  1  0  0  0
M  END
> <s_m_entry_id>
310

> <s_m_entry_name>
000000310.1

> <s_m_Source_Path>
/Users/zaksoul/Documents/2

> <s_m_Source_File>
000000310.mol2

> <i_m_Source_File_Index>
1

$$$$
No_0_327
                    3D
 Schrodinger Suite 2022-4.
 70 76  0  0  1  0            999 V2000
   -5.0780    3.7370  -22.0810 C   0  0  0  0  0  0
   -5.3360    3.9210  -23.4180 C   0  0  0  0  0  0
   -3.8420    3.4820  -21.7320 C   0  0  0  0  0  0
   -2.9380    3.5980  -23.8930 C   0  0  0  0  0  0
   -2.7860    3.3580  -22.4710 C   0  0  0  0  0  0
   -4.2820    3.8620  -24.4230 C   0  0  0  0  0  0
   -3.5150    3.8730  -26.6170 C   0  0  0  0  0  0
    6.1830    3.1350  -21.2940 C   0  0  0  0  0  0
    6.0590    3.2670  -23.8450 C   0  0  0  0  0  0
   -4.5260    3.9850  -25.7600 C   0  0  0  0  0  0
    2.2760    3.8250  -23.8850 C   0  0  0  0  0  0
    1.4560    4.9370  -23.5950 C   0  0  0  0  0  0
    3.2530    6.1300  -22.9100 C   0  0  0  0  0  0
    3.6750    4.0130  -23.5650 C   0  0  0  0  0  0
    1.7300    2.7070  -24.5450 C   0  0  0  0  0  0
   -0.3960    3.5260  -24.4500 C   0  0  0  0  0  0
    0.1310    4.7470  -23.8520 C   0  0  0  0  0  0
   -1.8470    3.5340  -24.8120 C   0  0  0  0  0  0
    4.2720    1.5150  -23.2600 C   0  0  0  0  0  0
    5.1990    1.1610  -22.1070 C   0  0  2  0  0  0
    6.7980    2.6960  -22.6400 C   0  0  2  0  0  0
    5.1770    2.1670  -20.9440 C   0  0  0  0  0  0
   -2.1640    3.6890  -26.2430 C   0  0  0  0  0  0
   -1.4460    2.9440  -21.8630 C   0  0  0  0  0  0
   -0.4190    2.5950  -21.3500 C   0  0  0  0  0  0
   -0.7100    5.7950  -23.5170 F   0  0  0  0  0  0
   -3.6400    3.2440  -20.3480 F   0  0  0  0  0  0
    1.9330    6.0960  -23.0650 N   0  0  0  0  0  0
    4.1480    5.1650  -23.1210 N   0  0  0  0  0  0
    0.4250    2.6190  -24.8570 N   0  0  0  0  0  0
    4.5910    2.9620  -23.7330 N   0  0  0  0  0  0
    6.6080    1.2230  -22.5820 N   0  0  1  0  0  0
   -3.6800    3.8830  -28.0070 O   0  0  0  0  0  0
   -5.8840    3.8053  -21.3593 H   0  0  0  0  0  0
   -6.3479    4.1178  -23.7533 H   0  0  0  0  0  0
    5.7145    4.1235  -21.4101 H   0  0  0  0  0  0
    6.9643    3.1461  -20.5198 H   0  0  0  0  0  0
    6.4577    2.8178  -24.7666 H   0  0  0  0  0  0
    6.2043    4.3568  -23.8813 H   0  0  0  0  0  0
   -5.5341    4.1708  -26.1124 H   0  0  0  0  0  0
    2.3682    1.8751  -24.8200 H   0  0  0  0  0  0
    3.2272    1.4625  -22.9198 H   0  0  0  0  0  0
    4.4376    0.8134  -24.0908 H   0  0  0  0  0  0
    4.9700    0.1512  -21.7358 H   0  0  0  0  0  0
    7.8674    2.9502  -22.6824 H   0  0  0  0  0  0
    4.1945    2.6603  -20.9077 H   0  0  0  0  0  0
    5.4706    1.6565  -20.0149 H   0  0  0  0  0  0
   -1.3902    3.6639  -27.0017 H   0  0  0  0  0  0
    0.4854    2.2889  -20.8988 H   0  0  0  0  0  0
    7.2504    0.7260  -21.8701 H   0  0  0  0  0  0
   -2.8331    3.7910  -28.4275 H   0  0  0  0  0  0
    3.7990    7.5750  -20.9410 N   0  0  1  0  0  0
    7.6700    9.6360  -21.6820 N   0  0  0  0  0  0
    6.3130    9.6590  -21.6920 N   0  0  0  0  0  0
    4.3480    8.8620  -20.3840 C   0  0  0  0  0  0
    3.8130    7.4700  -22.4430 C   0  0  0  0  0  0
    6.9050    8.5360  -19.9010 C   0  0  0  0  0  0
    9.4260    8.6630  -20.1670 C   0  0  0  0  0  0
    5.8320    9.0200  -20.6560 C   0  0  0  0  0  0
    7.9920    8.9360  -20.5670 C   0  0  0  0  0  0
    4.3809    6.7442  -20.5701 H   0  0  0  0  0  0
    8.1980   10.0980  -22.4361 H   0  0  0  0  0  0
    4.1690    8.8970  -19.2992 H   0  0  0  0  0  0
    3.8039    9.7122  -20.8211 H   0  0  0  0  0  0
    4.8443    7.5829  -22.8087 H   0  0  0  0  0  0
    3.2150    8.2870  -22.8730 H   0  0  0  0  0  0
    6.7188    7.9735  -18.9932 H   0  0  0  0  0  0
    9.4420    8.0820  -19.2331 H   0  0  0  0  0  0
    9.9274    8.0925  -20.9627 H   0  0  0  0  0  0
    9.9519    9.6168  -20.0130 H   0  0  0  0  0  0
  1  2  2  0  0  0
  1  3  1  0  0  0
  1 34  1  0  0  0
  2  6  1  0  0  0
  2 35  1  0  0  0
  3  5  2  0  0  0
  3 27  1  0  0  0
  4  5  1  0  0  0
  4  6  2  0  0  0
  4 18  1  0  0  0
  5 24  1  0  0  0
  6 10  1  0  0  0
  7 10  2  0  0  0
  7 23  1  0  0  0
  7 33  1  0  0  0
  8 21  1  0  0  0
  8 22  1  0  0  0
  8 36  1  0  0  0
  8 37  1  0  0  0
  9 21  1  0  0  0
  9 31  1  0  0  0
  9 38  1  0  0  0
  9 39  1  0  0  0
 10 40  1  0  0  0
 11 12  1  0  0  0
 11 14  2  0  0  0
 11 15  1  0  0  0
 12 17  1  0  0  0
 12 28  2  0  0  0
 13 28  1  0  0  0
 13 29  2  0  0  0
 13 56  1  0  0  0
 14 29  1  0  0  0
 14 31  1  0  0  0
 15 30  2  0  0  0
 15 41  1  0  0  0
 16 17  2  0  0  0
 16 18  1  0  0  0
 16 30  1  0  0  0
 17 26  1  0  0  0
 18 23  2  0  0  0
 19 20  1  0  0  0
 19 31  1  0  0  0
 19 42  1  0  0  0
 19 43  1  0  0  0
 20 22  1  0  0  0
 20 32  1  0  0  0
 20 44  1  0  0  0
 21 32  1  0  0  0
 21 45  1  0  0  0
 22 46  1  0  0  0
 22 47  1  0  0  0
 23 48  1  0  0  0
 24 25  3  0  0  0
 25 49  1  0  0  0
 32 50  1  0  0  0
 33 51  1  0  0  0
 52 55  1  0  0  0
 52 56  1  0  0  0
 52 61  1  0  0  0
 53 54  1  0  0  0
 53 60  1  0  0  0
 53 62  1  0  0  0
 54 59  2  0  0  0
 55 59  1  0  0  0
 55 63  1  0  0  0
 55 64  1  0  0  0
 56 65  1  0  0  0
 56 66  1  0  0  0
 57 59  1  0  0  0
 57 60  2  0  0  0
 57 67  1  0  0  0
 58 60  1  0  0  0
 58 68  1  0  0  0
 58 69  1  0  0  0
 58 70  1  0  0  0
M  END
> <s_m_entry_id>
311

> <s_m_entry_name>
000000311.1

> <s_m_Source_Path>
/Users/zaksoul/Documents/2

> <s_m_Source_File>
000000311.mol2

> <i_m_Source_File_Index>
1

$$$$
No_0_328
                    3D
 Schrodinger Suite 2022-4.
 70 76  0  0  1  0            999 V2000
   -5.2890    3.5990  -21.9070 C   0  0  0  0  0  0
   -5.5520    3.7490  -23.2480 C   0  0  0  0  0  0
   -4.0510    3.3570  -21.5570 C   0  0  0  0  0  0
   -3.1550    3.4220  -23.7230 C   0  0  0  0  0  0
   -2.9970    3.2190  -22.2960 C   0  0  0  0  0  0
   -4.5020    3.6680  -24.2540 C   0  0  0  0  0  0
   -3.7430    3.6280  -26.4510 C   0  0  0  0  0  0
    5.9770    3.0560  -21.1470 C   0  0  0  0  0  0
    5.8430    3.1250  -23.7000 C   0  0  0  0  0  0
   -4.7510    3.7570  -25.5930 C   0  0  0  0  0  0
    2.0580    3.6680  -23.7410 C   0  0  0  0  0  0
    1.2350    4.7840  -23.4750 C   0  0  0  0  0  0
    3.0310    6.0000  -22.8260 C   0  0  0  0  0  0
    3.4570    3.8690  -23.4300 C   0  0  0  0  0  0
    1.5140    2.5310  -24.3700 C   0  0  0  0  0  0
   -0.6140    3.3450  -24.2870 C   0  0  0  0  0  0
   -0.0900    4.5830  -23.7230 C   0  0  0  0  0  0
   -2.0670    3.3390  -24.6450 C   0  0  0  0  0  0
    4.0650    1.3810  -23.0650 C   0  0  0  0  0  0
    4.9970    1.0600  -21.9070 C   0  0  2  0  0  0
    6.5890    2.5860  -22.4850 C   0  0  2  0  0  0
    4.9760    2.0940  -20.7690 C   0  0  0  0  0  0
   -2.3890    3.4580  -26.0770 C   0  0  0  0  0  0
   -1.6540    2.8240  -21.6830 C   0  0  0  0  0  0
   -0.6230    2.4930  -21.1660 C   0  0  0  0  0  0
   -0.9340    5.6360  -23.4100 F   0  0  0  0  0  0
   -3.8430    3.1550  -20.1680 F   0  0  0  0  0  0
    1.7100    5.9580  -22.9760 N   0  0  0  0  0  0
    3.9290    5.0330  -23.0170 N   0  0  0  0  0  0
    0.2080    2.4320  -24.6760 N   0  0  0  0  0  0
    4.3770    2.8170  -23.5750 N   0  0  0  0  0  0
    6.4050    1.1140  -22.3890 N   0  0  1  0  0  0
   -3.9130    3.6020  -27.8410 O   0  0  0  0  0  0
   -6.0923    3.6823  -21.1840 H   0  0  0  0  0  0
   -6.5663    3.9336  -23.5831 H   0  0  0  0  0  0
    5.5056    4.0401  -21.2863 H   0  0  0  0  0  0
    6.7615    3.0893  -20.3766 H   0  0  0  0  0  0
    6.2398    2.6545  -24.6117 H   0  0  0  0  0  0
    5.9853    4.2139  -23.7636 H   0  0  0  0  0  0
   -5.7610    3.9307  -25.9464 H   0  0  0  0  0  0
    2.1548    1.6953  -24.6271 H   0  0  0  0  0  0
    3.0213    1.3336  -22.7208 H   0  0  0  0  0  0
    4.2294    0.6597  -23.8791 H   0  0  0  0  0  0
    4.7731    0.0586  -21.5107 H   0  0  0  0  0  0
    7.6573    2.8432  -22.5364 H   0  0  0  0  0  0
    3.9916    2.5842  -20.7418 H   0  0  0  0  0  0
    5.2749    1.6073  -19.8289 H   0  0  0  0  0  0
   -1.6180    3.4168  -26.8379 H   0  0  0  0  0  0
    0.2832    2.1999  -20.7099 H   0  0  0  0  0  0
    7.0514    0.6378  -21.6666 H   0  0  0  0  0  0
   -3.0669    3.5030  -28.2616 H   0  0  0  0  0  0
    3.9200    7.3650  -20.9270 N   0  0  1  0  0  0
    7.3500    9.7990  -22.3690 N   0  0  0  0  0  0
    6.0310    9.7030  -22.0650 N   0  0  0  0  0  0
    4.4910    8.6590  -20.4100 C   0  0  0  0  0  0
    3.5880    7.3530  -22.3960 C   0  0  0  0  0  0
    7.1060    8.5300  -20.5540 C   0  0  0  0  0  0
    9.4780    8.8940  -21.3790 C   0  0  0  0  0  0
    5.8550    8.9630  -21.0010 C   0  0  0  0  0  0
    7.9750    9.0630  -21.4160 C   0  0  0  0  0  0
    4.6299    6.5671  -20.7660 H   0  0  0  0  0  0
    7.6520   10.3519  -23.1839 H   0  0  0  0  0  0
    4.5699    8.6110  -19.3139 H   0  0  0  0  0  0
    3.7995    9.4826  -20.6412 H   0  0  0  0  0  0
    4.4944    7.5781  -22.9772 H   0  0  0  0  0  0
    2.8484    8.1386  -22.6099 H   0  0  0  0  0  0
    7.1800    7.8993  -19.6755 H   0  0  0  0  0  0
    9.7550    8.2610  -20.5231 H   0  0  0  0  0  0
    9.8182    8.4198  -22.3114 H   0  0  0  0  0  0
    9.9557    9.8794  -21.2751 H   0  0  0  0  0  0
  1  2  2  0  0  0
  1  3  1  0  0  0
  1 34  1  0  0  0
  2  6  1  0  0  0
  2 35  1  0  0  0
  3  5  2  0  0  0
  3 27  1  0  0  0
  4  5  1  0  0  0
  4  6  2  0  0  0
  4 18  1  0  0  0
  5 24  1  0  0  0
  6 10  1  0  0  0
  7 10  2  0  0  0
  7 23  1  0  0  0
  7 33  1  0  0  0
  8 21  1  0  0  0
  8 22  1  0  0  0
  8 36  1  0  0  0
  8 37  1  0  0  0
  9 21  1  0  0  0
  9 31  1  0  0  0
  9 38  1  0  0  0
  9 39  1  0  0  0
 10 40  1  0  0  0
 11 12  1  0  0  0
 11 14  2  0  0  0
 11 15  1  0  0  0
 12 17  1  0  0  0
 12 28  2  0  0  0
 13 28  1  0  0  0
 13 29  2  0  0  0
 13 56  1  0  0  0
 14 29  1  0  0  0
 14 31  1  0  0  0
 15 30  2  0  0  0
 15 41  1  0  0  0
 16 17  2  0  0  0
 16 18  1  0  0  0
 16 30  1  0  0  0
 17 26  1  0  0  0
 18 23  2  0  0  0
 19 20  1  0  0  0
 19 31  1  0  0  0
 19 42  1  0  0  0
 19 43  1  0  0  0
 20 22  1  0  0  0
 20 32  1  0  0  0
 20 44  1  0  0  0
 21 32  1  0  0  0
 21 45  1  0  0  0
 22 46  1  0  0  0
 22 47  1  0  0  0
 23 48  1  0  0  0
 24 25  3  0  0  0
 25 49  1  0  0  0
 32 50  1  0  0  0
 33 51  1  0  0  0
 52 55  1  0  0  0
 52 56  1  0  0  0
 52 61  1  0  0  0
 53 54  1  0  0  0
 53 60  1  0  0  0
 53 62  1  0  0  0
 54 59  2  0  0  0
 55 59  1  0  0  0
 55 63  1  0  0  0
 55 64  1  0  0  0
 56 65  1  0  0  0
 56 66  1  0  0  0
 57 59  1  0  0  0
 57 60  2  0  0  0
 57 67  1  0  0  0
 58 60  1  0  0  0
 58 68  1  0  0  0
 58 69  1  0  0  0
 58 70  1  0  0  0
M  END
> <s_m_entry_id>
312

> <s_m_entry_name>
000000312.1

> <s_m_Source_Path>
/Users/zaksoul/Documents/2

> <s_m_Source_File>
000000312.mol2

> <i_m_Source_File_Index>
1

$$$$
No_0_329
                    3D
 Schrodinger Suite 2022-4.
 70 76  0  0  1  0            999 V2000
   -4.9390    3.1850  -21.8570 C   0  0  0  0  0  0
   -5.2290    3.3820  -23.1860 C   0  0  0  0  0  0
   -3.6860    2.9900  -21.5330 C   0  0  0  0  0  0
   -2.8260    3.1980  -23.7040 C   0  0  0  0  0  0
   -2.6380    2.9390  -22.2900 C   0  0  0  0  0  0
   -4.1910    3.4000  -24.2070 C   0  0  0  0  0  0
   -3.4610    3.4970  -26.4120 C   0  0  0  0  0  0
    6.3490    3.1760  -21.2570 C   0  0  0  0  0  0
    6.1760    3.3530  -23.8020 C   0  0  0  0  0  0
   -4.4620    3.5360  -25.5380 C   0  0  0  0  0  0
    2.3680    3.7060  -23.7720 C   0  0  0  0  0  0
    1.4950    4.7660  -23.4460 C   0  0  0  0  0  0
    3.2360    6.0410  -22.7640 C   0  0  0  0  0  0
    3.7600    3.9630  -23.4700 C   0  0  0  0  0  0
    1.8720    2.5740  -24.4470 C   0  0  0  0  0  0
   -0.2920    3.2750  -24.3020 C   0  0  0  0  0  0
    0.1780    4.5100  -23.6870 C   0  0  0  0  0  0
   -1.7480    3.2120  -24.6410 C   0  0  0  0  0  0
    4.4960    1.4950  -23.2270 C   0  0  0  0  0  0
    5.4590    1.1690  -22.0960 C   0  0  2  0  0  0
    6.9650    2.7980  -22.6210 C   0  0  2  0  0  0
    5.4020    2.1490  -20.9110 C   0  0  0  0  0  0
   -2.0960    3.3780  -26.0630 C   0  0  0  0  0  0
   -1.2680    2.5850  -21.7120 C   0  0  0  0  0  0
   -0.2150    2.2820  -21.2220 C   0  0  0  0  0  0
   -0.7130    5.5050  -23.3160 F   0  0  0  0  0  0
   -3.4490    2.7360  -20.1570 F   0  0  0  0  0  0
    1.9170    5.9390  -22.8990 N   0  0  0  0  0  0
    4.1780    5.1290  -23.0090 N   0  0  0  0  0  0
    0.5690    2.4220  -24.7410 N   0  0  0  0  0  0
    4.7290    2.9670  -23.6740 N   0  0  0  0  0  0
    6.8550    1.3160  -22.5910 N   0  0  1  0  0  0
   -3.6490    3.5260  -27.8000 O   0  0  0  0  0  0
   -5.7355    3.1950  -21.1217 H   0  0  0  0  0  0
   -6.2555    3.5305  -23.5011 H   0  0  0  0  0  0
    5.8270    4.1403  -21.3448 H   0  0  0  0  0  0
    7.1414    3.2133  -20.4949 H   0  0  0  0  0  0
    6.5829    2.9451  -24.7390 H   0  0  0  0  0  0
    6.2627    4.4495  -23.8171 H   0  0  0  0  0  0
   -5.4841    3.6754  -25.8710 H   0  0  0  0  0  0
    2.5499    1.7838  -24.7488 H   0  0  0  0  0  0
    3.4612    1.3800  -22.8720 H   0  0  0  0  0  0
    4.6848    0.8205  -24.0752 H   0  0  0  0  0  0
    5.2905    0.1409  -21.7429 H   0  0  0  0  0  0
    8.0182    3.1107  -22.6745 H   0  0  0  0  0  0
    4.3948    2.5870  -20.8494 H   0  0  0  0  0  0
    5.7382    1.6351  -19.9984 H   0  0  0  0  0  0
   -1.3344    3.4111  -26.8336 H   0  0  0  0  0  0
    0.7117    2.0161  -20.7911 H   0  0  0  0  0  0
    7.5347    0.8404  -21.8995 H   0  0  0  0  0  0
   -2.8056    3.4884  -28.2356 H   0  0  0  0  0  0
    4.3530    7.2970  -20.9100 N   0  0  1  0  0  0
    7.1570   10.2740  -22.6570 N   0  0  0  0  0  0
    5.9440    9.9850  -22.1220 N   0  0  0  0  0  0
    4.8860    8.5900  -20.3500 C   0  0  0  0  0  0
    3.7320    7.3990  -22.2780 C   0  0  0  0  0  0
    7.4160    8.8010  -21.0060 C   0  0  0  0  0  0
    9.5220    9.5390  -22.2140 C   0  0  0  0  0  0
    6.0630    9.1200  -21.1470 C   0  0  0  0  0  0
    8.0330    9.5250  -21.9430 C   0  0  0  0  0  0
    5.1568    6.5802  -20.9910 H   0  0  0  0  0  0
    7.2300   10.9423  -23.4373 H   0  0  0  0  0  0
    5.1912    8.4369  -19.3043 H   0  0  0  0  0  0
    4.0831    9.3419  -20.3390 H   0  0  0  0  0  0
    4.4732    7.7941  -22.9882 H   0  0  0  0  0  0
    2.8896    8.1055  -22.2450 H   0  0  0  0  0  0
    7.7299    8.0953  -20.2454 H   0  0  0  0  0  0
   10.0291    8.8578  -21.5148 H   0  0  0  0  0  0
    9.7100    9.2110  -23.2470 H   0  0  0  0  0  0
    9.9101   10.5592  -22.0780 H   0  0  0  0  0  0
  1  2  2  0  0  0
  1  3  1  0  0  0
  1 34  1  0  0  0
  2  6  1  0  0  0
  2 35  1  0  0  0
  3  5  2  0  0  0
  3 27  1  0  0  0
  4  5  1  0  0  0
  4  6  2  0  0  0
  4 18  1  0  0  0
  5 24  1  0  0  0
  6 10  1  0  0  0
  7 10  2  0  0  0
  7 23  1  0  0  0
  7 33  1  0  0  0
  8 21  1  0  0  0
  8 22  1  0  0  0
  8 36  1  0  0  0
  8 37  1  0  0  0
  9 21  1  0  0  0
  9 31  1  0  0  0
  9 38  1  0  0  0
  9 39  1  0  0  0
 10 40  1  0  0  0
 11 12  1  0  0  0
 11 14  2  0  0  0
 11 15  1  0  0  0
 12 17  1  0  0  0
 12 28  2  0  0  0
 13 28  1  0  0  0
 13 29  2  0  0  0
 13 56  1  0  0  0
 14 29  1  0  0  0
 14 31  1  0  0  0
 15 30  2  0  0  0
 15 41  1  0  0  0
 16 17  2  0  0  0
 16 18  1  0  0  0
 16 30  1  0  0  0
 17 26  1  0  0  0
 18 23  2  0  0  0
 19 20  1  0  0  0
 19 31  1  0  0  0
 19 42  1  0  0  0
 19 43  1  0  0  0
 20 22  1  0  0  0
 20 32  1  0  0  0
 20 44  1  0  0  0
 21 32  1  0  0  0
 21 45  1  0  0  0
 22 46  1  0  0  0
 22 47  1  0  0  0
 23 48  1  0  0  0
 24 25  3  0  0  0
 25 49  1  0  0  0
 32 50  1  0  0  0
 33 51  1  0  0  0
 52 55  1  0  0  0
 52 56  1  0  0  0
 52 61  1  0  0  0
 53 54  1  0  0  0
 53 60  1  0  0  0
 53 62  1  0  0  0
 54 59  2  0  0  0
 55 59  1  0  0  0
 55 63  1  0  0  0
 55 64  1  0  0  0
 56 65  1  0  0  0
 56 66  1  0  0  0
 57 59  1  0  0  0
 57 60  2  0  0  0
 57 67  1  0  0  0
 58 60  1  0  0  0
 58 68  1  0  0  0
 58 69  1  0  0  0
 58 70  1  0  0  0
M  END
> <s_m_entry_id>
313

> <s_m_entry_name>
000000313.1

> <s_m_Source_Path>
/Users/zaksoul/Documents/2

> <s_m_Source_File>
000000313.mol2

> <i_m_Source_File_Index>
1

$$$$
No_0_330
                    3D
 Schrodinger Suite 2022-4.
 77 83  0  0  1  0            999 V2000
   -5.4090    3.2810  -22.2100 C   0  0  0  0  0  0
   -5.6710    3.4650  -23.5470 C   0  0  0  0  0  0
   -4.1660    3.0720  -21.8590 C   0  0  0  0  0  0
   -3.2620    3.2390  -24.0170 C   0  0  0  0  0  0
   -3.1040    2.9950  -22.5960 C   0  0  0  0  0  0
   -4.6130    3.4540  -24.5480 C   0  0  0  0  0  0
   -3.8410    3.5110  -26.7400 C   0  0  0  0  0  0
    5.8640    3.1150  -21.3950 C   0  0  0  0  0  0
    5.7420    3.2610  -23.9450 C   0  0  0  0  0  0
   -4.8580    3.5770  -25.8850 C   0  0  0  0  0  0
    1.9400    3.6700  -23.9920 C   0  0  0  0  0  0
    1.0760    4.7470  -23.6960 C   0  0  0  0  0  0
    2.8230    6.0050  -22.9970 C   0  0  0  0  0  0
    3.3290    3.9110  -23.6670 C   0  0  0  0  0  0
    1.4400    2.5360  -24.6620 C   0  0  0  0  0  0
   -0.7160    3.2710  -24.5670 C   0  0  0  0  0  0
   -0.2400    4.5070  -23.9590 C   0  0  0  0  0  0
   -2.1660    3.2250  -24.9330 C   0  0  0  0  0  0
    4.0240    1.4360  -23.3780 C   0  0  0  0  0  0
    4.9600    1.1100  -22.2250 C   0  0  2  0  0  0
    6.5000    2.7100  -22.7430 C   0  0  2  0  0  0
    4.8960    2.1060  -21.0540 C   0  0  0  0  0  0
   -2.4850    3.3780  -26.3630 C   0  0  0  0  0  0
   -1.7500    2.6290  -21.9870 C   0  0  0  0  0  0
   -0.7120    2.3180  -21.4740 C   0  0  0  0  0  0
   -1.1220    5.5200  -23.6180 F   0  0  0  0  0  0
   -3.9580    2.8330  -20.4760 F   0  0  0  0  0  0
    1.5060    5.9210  -23.1570 N   0  0  0  0  0  0
    3.7560    5.0770  -23.2130 N   0  0  0  0  0  0
    0.1400    2.4000  -24.9790 N   0  0  0  0  0  0
    4.2870    2.8980  -23.8400 N   0  0  0  0  0  0
    6.3670    1.2310  -22.6950 N   0  0  1  0  0  0
   -4.0030    3.5250  -28.1310 O   0  0  0  0  0  0
   -6.2185    3.3121  -21.4898 H   0  0  0  0  0  0
   -6.6893    3.6235  -23.8831 H   0  0  0  0  0  0
    5.3580    4.0855  -21.5051 H   0  0  0  0  0  0
    6.6429    3.1513  -20.6191 H   0  0  0  0  0  0
    6.1600    2.8349  -24.8689 H   0  0  0  0  0  0
    5.8449    4.3558  -23.9733 H   0  0  0  0  0  0
   -5.8715    3.7265  -26.2392 H   0  0  0  0  0  0
    2.1115    1.7320  -24.9410 H   0  0  0  0  0  0
    2.9809    1.3402  -23.0421 H   0  0  0  0  0  0
    4.2178    0.7476  -24.2138 H   0  0  0  0  0  0
    4.7702    0.0893  -21.8615 H   0  0  0  0  0  0
    7.5586    3.0067  -22.7793 H   0  0  0  0  0  0
    3.8948    2.5602  -21.0177 H   0  0  0  0  0  0
    5.2070    1.6001  -20.1281 H   0  0  0  0  0  0
   -1.7086    3.3890  -27.1194 H   0  0  0  0  0  0
    0.2021    2.0440  -21.0219 H   0  0  0  0  0  0
    7.0266    0.7542  -21.9851 H   0  0  0  0  0  0
   -3.1520    3.4696  -28.5496 H   0  0  0  0  0  0
    3.3090    7.4610  -21.0170 N   0  3  0  0  0  0
    3.8020    8.7670  -20.4440 C   0  0  0  0  0  0
    5.5950    9.9730  -21.7160 C   0  0  0  0  0  0
    6.2630    8.3430  -20.1130 C   0  0  0  0  0  0
    7.9080    9.5260  -21.3660 C   0  0  0  0  0  0
    3.3300    7.3620  -22.5200 C   0  0  0  0  0  0
    7.2870   11.2530  -23.0610 C   0  0  0  0  0  0
    8.6650    7.8110  -19.6900 C   0  0  0  0  0  0
    5.2640    9.0340  -20.7640 C   0  0  0  0  0  0
    7.5840    8.5860  -20.4140 C   0  0  0  0  0  0
    6.9150   10.2210  -22.0170 C   0  0  0  0  0  0
    2.3746    7.2819  -20.6839 H   0  0  0  0  0  0
    3.8464    6.7029  -20.6264 H   0  0  0  0  0  0
    3.6609    8.7640  -19.3531 H   0  0  0  0  0  0
    3.1859    9.5911  -20.8330 H   0  0  0  0  0  0
    4.8138   10.5202  -22.2311 H   0  0  0  0  0  0
    6.0090    7.6039  -19.3619 H   0  0  0  0  0  0
    8.9476    9.7199  -21.6039 H   0  0  0  0  0  0
    4.3564    7.5191  -22.8831 H   0  0  0  0  0  0
    2.7021    8.1579  -22.9469 H   0  0  0  0  0  0
    8.3819   11.3020  -23.1550 H   0  0  0  0  0  0
    6.8491   10.9710  -24.0299 H   0  0  0  0  0  0
    6.9020   12.2379  -22.7580 H   0  0  0  0  0  0
    9.6526    8.1319  -20.0529 H   0  0  0  0  0  0
    8.5930    8.0030  -18.6093 H   0  0  0  0  0  0
    8.5359    6.7354  -19.8811 H   0  0  0  0  0  0
  1  2  2  0  0  0
  1  3  1  0  0  0
  1 34  1  0  0  0
  2  6  1  0  0  0
  2 35  1  0  0  0
  3  5  2  0  0  0
  3 27  1  0  0  0
  4  5  1  0  0  0
  4  6  2  0  0  0
  4 18  1  0  0  0
  5 24  1  0  0  0
  6 10  1  0  0  0
  7 10  2  0  0  0
  7 23  1  0  0  0
  7 33  1  0  0  0
  8 21  1  0  0  0
  8 22  1  0  0  0
  8 36  1  0  0  0
  8 37  1  0  0  0
  9 21  1  0  0  0
  9 31  1  0  0  0
  9 38  1  0  0  0
  9 39  1  0  0  0
 10 40  1  0  0  0
 11 12  1  0  0  0
 11 14  2  0  0  0
 11 15  1  0  0  0
 12 17  1  0  0  0
 12 28  2  0  0  0
 13 28  1  0  0  0
 13 29  2  0  0  0
 13 57  1  0  0  0
 14 29  1  0  0  0
 14 31  1  0  0  0
 15 30  2  0  0  0
 15 41  1  0  0  0
 16 17  2  0  0  0
 16 18  1  0  0  0
 16 30  1  0  0  0
 17 26  1  0  0  0
 18 23  2  0  0  0
 19 20  1  0  0  0
 19 31  1  0  0  0
 19 42  1  0  0  0
 19 43  1  0  0  0
 20 22  1  0  0  0
 20 32  1  0  0  0
 20 44  1  0  0  0
 21 32  1  0  0  0
 21 45  1  0  0  0
 22 46  1  0  0  0
 22 47  1  0  0  0
 23 48  1  0  0  0
 24 25  3  0  0  0
 25 49  1  0  0  0
 32 50  1  0  0  0
 33 51  1  0  0  0
 52 53  1  0  0  0
 52 57  1  0  0  0
 52 63  1  0  0  0
 52 64  1  0  0  0
 53 60  1  0  0  0
 53 65  1  0  0  0
 53 66  1  0  0  0
 54 60  2  0  0  0
 54 62  1  0  0  0
 54 67  1  0  0  0
 55 60  1  0  0  0
 55 61  2  0  0  0
 55 68  1  0  0  0
 56 61  1  0  0  0
 56 62  2  0  0  0
 56 69  1  0  0  0
 57 70  1  0  0  0
 57 71  1  0  0  0
 58 62  1  0  0  0
 58 72  1  0  0  0
 58 73  1  0  0  0
 58 74  1  0  0  0
 59 61  1  0  0  0
 59 75  1  0  0  0
 59 76  1  0  0  0
 59 77  1  0  0  0
M  CHG  1  52   1
M  END
> <s_m_entry_id>
314

> <s_m_entry_name>
000000314.1

> <s_m_Source_Path>
/Users/zaksoul/Documents/2

> <s_m_Source_File>
000000314.mol2

> <i_m_Source_File_Index>
1

$$$$
No_0_331
                    3D
 Schrodinger Suite 2022-4.
 76 82  0  0  1  0            999 V2000
   -5.2120    3.3220  -22.3100 C   0  0  0  0  0  0
   -5.4410    3.4840  -23.6560 C   0  0  0  0  0  0
   -3.9760    3.1300  -21.9250 C   0  0  0  0  0  0
   -3.0190    3.2730  -24.0610 C   0  0  0  0  0  0
   -2.8950    3.0520  -22.6330 C   0  0  0  0  0  0
   -4.3580    3.4680  -24.6300 C   0  0  0  0  0  0
   -3.5310    3.5000  -26.8020 C   0  0  0  0  0  0
    6.0380    3.2710  -21.2070 C   0  0  0  0  0  0
    5.9790    3.3790  -23.7610 C   0  0  0  0  0  0
   -4.5700    3.5690  -25.9750 C   0  0  0  0  0  0
    2.1760    3.7520  -23.9110 C   0  0  0  0  0  0
    1.2960    4.8250  -23.6530 C   0  0  0  0  0  0
    3.0140    6.1100  -22.9290 C   0  0  0  0  0  0
    3.5550    4.0100  -23.5540 C   0  0  0  0  0  0
    1.7040    2.6040  -24.5760 C   0  0  0  0  0  0
   -0.4610    3.3200  -24.5470 C   0  0  0  0  0  0
   -0.0110    4.5700  -23.9460 C   0  0  0  0  0  0
   -1.9000    3.2560  -24.9490 C   0  0  0  0  0  0
    4.2630    1.5460  -23.2110 C   0  0  0  0  0  0
    5.1730    1.2460  -22.0290 C   0  0  2  0  0  0
    6.7110    2.8530  -22.5320 C   0  0  2  0  0  0
    5.0700    2.2590  -20.8760 C   0  0  0  0  0  0
   -2.1830    3.3840  -26.3890 C   0  0  0  0  0  0
   -1.5540    2.7080  -21.9850 C   0  0  0  0  0  0
   -0.5270    2.4130  -21.4410 C   0  0  0  0  0  0
   -0.9100    5.5790  -23.6430 F   0  0  0  0  0  0
   -3.8020    2.9130  -20.5340 F   0  0  0  0  0  0
    1.7020    6.0110  -23.1210 N   0  0  0  0  0  0
    3.9600    5.1870  -23.1070 N   0  0  0  0  0  0
    0.4140    2.4510  -24.9240 N   0  0  0  0  0  0
    4.5250    3.0040  -23.6870 N   0  0  0  0  0  0
    6.5910    1.3730  -22.4650 N   0  0  1  0  0  0
   -3.6570    3.4920  -28.1970 O   0  0  0  0  0  0
   -6.0401    3.3571  -21.6114 H   0  0  0  0  0  0
   -6.4517    3.6285  -24.0203 H   0  0  0  0  0  0
    5.5262    4.2350  -21.3443 H   0  0  0  0  0  0
    6.7960    3.3255  -20.4117 H   0  0  0  0  0  0
    6.4240    2.9421  -24.6671 H   0  0  0  0  0  0
    6.0739    4.4741  -23.8024 H   0  0  0  0  0  0
   -5.5756    3.7036  -26.3567 H   0  0  0  0  0  0
    2.3894    1.8022  -24.8259 H   0  0  0  0  0  0
    3.2129    1.4460  -22.8990 H   0  0  0  0  0  0
    4.4852    0.8472  -24.0310 H   0  0  0  0  0  0
    4.9822    0.2291  -21.6554 H   0  0  0  0  0  0
    7.7678    3.1578  -22.5461 H   0  0  0  0  0  0
    4.0640    2.7040  -20.8710 H   0  0  0  0  0  0
    5.3615    1.7698  -19.9349 H   0  0  0  0  0  0
   -1.3880    3.3910  -27.1258 H   0  0  0  0  0  0
    0.3778    2.1540  -20.9621 H   0  0  0  0  0  0
    7.2361    0.9130  -21.7311 H   0  0  0  0  0  0
   -2.7951    3.4376  -28.5928 H   0  0  0  0  0  0
    3.7790    7.4700  -20.9800 N   0  3  0  0  0  0
    5.1750   10.3510  -22.7860 N   0  0  0  0  0  0
    5.7870    8.9980  -20.8600 C   0  0  0  0  0  0
    3.4960    7.4780  -22.4590 C   0  0  0  0  0  0
    8.1050    8.5980  -20.4020 C   0  0  0  0  0  0
    4.3500    8.7460  -20.4140 C   0  0  0  0  0  0
    7.4810    9.9180  -22.2820 C   0  0  0  0  0  0
    6.1420    9.7520  -21.9730 C   0  0  0  0  0  0
    6.7760    8.4300  -20.0880 C   0  0  0  0  0  0
    8.4560    9.3450  -21.5030 C   0  0  0  0  0  0
    9.1610    7.9560  -19.5260 C   0  0  0  0  0  0
    4.3985    6.7047  -20.7642 H   0  0  0  0  0  0
    2.9368    7.2319  -20.4799 H   0  0  0  0  0  0
    5.4619   10.9048  -23.6057 H   0  0  0  0  0  0
    4.1751   10.2380  -22.5660 H   0  0  0  0  0  0
    4.4101    7.7520  -23.0061 H   0  0  0  0  0  0
    2.7272    8.2328  -22.6809 H   0  0  0  0  0  0
    4.3090    8.7090  -19.3154 H   0  0  0  0  0  0
    3.7192    9.5947  -20.7169 H   0  0  0  0  0  0
    7.7701   10.5051  -23.1462 H   0  0  0  0  0  0
    6.5121    7.8392  -19.2183 H   0  0  0  0  0  0
    9.5015    9.4809  -21.7549 H   0  0  0  0  0  0
   10.1601    8.1920  -19.9210 H   0  0  0  0  0  0
    9.0720    8.3438  -18.5005 H   0  0  0  0  0  0
    9.0180    6.8654  -19.5190 H   0  0  0  0  0  0
  1  2  2  0  0  0
  1  3  1  0  0  0
  1 34  1  0  0  0
  2  6  1  0  0  0
  2 35  1  0  0  0
  3  5  2  0  0  0
  3 27  1  0  0  0
  4  5  1  0  0  0
  4  6  2  0  0  0
  4 18  1  0  0  0
  5 24  1  0  0  0
  6 10  1  0  0  0
  7 10  2  0  0  0
  7 23  1  0  0  0
  7 33  1  0  0  0
  8 21  1  0  0  0
  8 22  1  0  0  0
  8 36  1  0  0  0
  8 37  1  0  0  0
  9 21  1  0  0  0
  9 31  1  0  0  0
  9 38  1  0  0  0
  9 39  1  0  0  0
 10 40  1  0  0  0
 11 12  1  0  0  0
 11 14  2  0  0  0
 11 15  1  0  0  0
 12 17  1  0  0  0
 12 28  2  0  0  0
 13 28  1  0  0  0
 13 29  2  0  0  0
 13 55  1  0  0  0
 14 29  1  0  0  0
 14 31  1  0  0  0
 15 30  2  0  0  0
 15 41  1  0  0  0
 16 17  2  0  0  0
 16 18  1  0  0  0
 16 30  1  0  0  0
 17 26  1  0  0  0
 18 23  2  0  0  0
 19 20  1  0  0  0
 19 31  1  0  0  0
 19 42  1  0  0  0
 19 43  1  0  0  0
 20 22  1  0  0  0
 20 32  1  0  0  0
 20 44  1  0  0  0
 21 32  1  0  0  0
 21 45  1  0  0  0
 22 46  1  0  0  0
 22 47  1  0  0  0
 23 48  1  0  0  0
 24 25  3  0  0  0
 25 49  1  0  0  0
 32 50  1  0  0  0
 33 51  1  0  0  0
 52 55  1  0  0  0
 52 57  1  0  0  0
 52 63  1  0  0  0
 52 64  1  0  0  0
 53 59  1  0  0  0
 53 65  1  0  0  0
 53 66  1  0  0  0
 54 57  1  0  0  0
 54 59  2  0  0  0
 54 60  1  0  0  0
 55 67  1  0  0  0
 55 68  1  0  0  0
 56 60  2  0  0  0
 56 61  1  0  0  0
 56 62  1  0  0  0
 57 69  1  0  0  0
 57 70  1  0  0  0
 58 59  1  0  0  0
 58 61  2  0  0  0
 58 71  1  0  0  0
 60 72  1  0  0  0
 61 73  1  0  0  0
 62 74  1  0  0  0
 62 75  1  0  0  0
 62 76  1  0  0  0
M  CHG  1  52   1
M  END
> <s_m_entry_id>
315

> <s_m_entry_name>
000000315.1

> <s_m_Source_Path>
/Users/zaksoul/Documents/2

> <s_m_Source_File>
000000315.mol2

> <i_m_Source_File_Index>
1

$$$$
No_0_332
                    3D
 Schrodinger Suite 2022-4.
 67 73  0  0  1  0            999 V2000
   -5.2310    3.5360  -21.7380 C   0  0  0  0  0  0
   -5.4920    3.7740  -23.0670 C   0  0  0  0  0  0
   -3.9900    3.2990  -21.3970 C   0  0  0  0  0  0
   -3.0850    3.5380  -23.5480 C   0  0  0  0  0  0
   -2.9290    3.2380  -22.1370 C   0  0  0  0  0  0
   -4.4350    3.7890  -24.0690 C   0  0  0  0  0  0
   -3.6630    3.9220  -26.2580 C   0  0  0  0  0  0
    6.0400    3.2040  -20.9420 C   0  0  0  0  0  0
    5.9180    3.4500  -23.4840 C   0  0  0  0  0  0
   -4.6790    3.9670  -25.4000 C   0  0  0  0  0  0
    2.1210    3.9060  -23.5120 C   0  0  0  0  0  0
    1.2700    4.9800  -23.1740 C   0  0  0  0  0  0
    3.0330    6.1900  -22.4290 C   0  0  0  0  0  0
    3.5140    4.1170  -23.1790 C   0  0  0  0  0  0
    1.6070    2.8050  -24.2240 C   0  0  0  0  0  0
   -0.5400    3.5600  -24.0980 C   0  0  0  0  0  0
   -0.0480    4.7670  -23.4440 C   0  0  0  0  0  0
   -1.9900    3.5460  -24.4650 C   0  0  0  0  0  0
    4.1780    1.6250  -22.9860 C   0  0  0  0  0  0
    5.1120    1.2440  -21.8480 C   0  0  2  0  0  0
    6.6700    2.8440  -22.3050 C   0  0  2  0  0  0
    5.0600    2.1950  -20.6400 C   0  0  0  0  0  0
   -2.3080    3.7570  -25.8880 C   0  0  0  0  0  0
   -1.5800    2.8330  -21.5450 C   0  0  0  0  0  0
   -0.5450    2.4890  -21.0450 C   0  0  0  0  0  0
   -0.9180    5.7760  -23.0640 F   0  0  0  0  0  0
   -3.7840    3.0040  -20.0240 F   0  0  0  0  0  0
    1.7140    6.1270  -22.5900 N   0  0  0  0  0  0
    3.9550    5.2600  -22.6810 N   0  0  0  0  0  0
    0.3060    2.6960  -24.5440 N   0  0  0  0  0  0
    4.4590    3.1000  -23.3920 N   0  0  0  0  0  0
    6.5200    1.3660  -22.3140 N   0  0  1  0  0  0
   -3.8260    3.9910  -27.6470 O   0  0  0  0  0  0
   -6.0399    3.5490  -21.0165 H   0  0  0  0  0  0
   -6.5085    3.9578  -23.3955 H   0  0  0  0  0  0
    5.5455    4.1839  -21.0147 H   0  0  0  0  0  0
    6.8193    3.2010  -20.1657 H   0  0  0  0  0  0
    6.3296    3.0545  -24.4243 H   0  0  0  0  0  0
    6.0340    4.5438  -23.4709 H   0  0  0  0  0  0
   -5.6909    4.1417  -25.7473 H   0  0  0  0  0  0
    2.2688    2.0048  -24.5349 H   0  0  0  0  0  0
    3.1342    1.5281  -22.6529 H   0  0  0  0  0  0
    4.3647    0.9672  -23.8476 H   0  0  0  0  0  0
    4.9101    0.2124  -21.5240 H   0  0  0  0  0  0
    7.7320    3.1294  -22.3312 H   0  0  0  0  0  0
    4.0642    2.6591  -20.5845 H   0  0  0  0  0  0
    5.3658    1.6500  -19.7347 H   0  0  0  0  0  0
   -1.5324    3.7891  -26.6446 H   0  0  0  0  0  0
    0.3662    2.1869  -20.6049 H   0  0  0  0  0  0
    7.1743    0.8549  -21.6233 H   0  0  0  0  0  0
   -2.9761    3.9415  -28.0685 H   0  0  0  0  0  0
    4.5150    8.1290  -22.8900 N   0  0  1  0  0  0
    7.4750   10.0080  -22.0800 N   0  0  0  0  0  0
    8.4910    9.7560  -21.2160 N   0  0  0  0  0  0
    5.0860    9.4700  -22.5030 C   0  0  0  0  0  0
    3.5560    7.5220  -21.9000 C   0  0  0  0  0  0
    6.3860    9.3720  -21.7220 C   0  0  0  0  0  0
    6.6670    8.6510  -20.5560 C   0  0  0  0  0  0
    7.9490    8.9180  -20.2990 C   0  0  0  0  0  0
    3.9733    8.2230  -23.8196 H   0  0  0  0  0  0
    9.4143   10.1871  -21.3660 H   0  0  0  0  0  0
    4.3446   10.0253  -21.9097 H   0  0  0  0  0  0
    5.2480   10.0728  -23.4087 H   0  0  0  0  0  0
    2.7116    8.2083  -21.7389 H   0  0  0  0  0  0
    4.0722    7.3579  -20.9426 H   0  0  0  0  0  0
    5.8925    8.0524  -20.0903 H   0  0  0  0  0  0
    8.5521    8.5499  -19.4769 H   0  0  0  0  0  0
  1  2  2  0  0  0
  1  3  1  0  0  0
  1 34  1  0  0  0
  2  6  1  0  0  0
  2 35  1  0  0  0
  3  5  2  0  0  0
  3 27  1  0  0  0
  4  5  1  0  0  0
  4  6  2  0  0  0
  4 18  1  0  0  0
  5 24  1  0  0  0
  6 10  1  0  0  0
  7 10  2  0  0  0
  7 23  1  0  0  0
  7 33  1  0  0  0
  8 21  1  0  0  0
  8 22  1  0  0  0
  8 36  1  0  0  0
  8 37  1  0  0  0
  9 21  1  0  0  0
  9 31  1  0  0  0
  9 38  1  0  0  0
  9 39  1  0  0  0
 10 40  1  0  0  0
 11 12  1  0  0  0
 11 14  2  0  0  0
 11 15  1  0  0  0
 12 17  1  0  0  0
 12 28  2  0  0  0
 13 28  1  0  0  0
 13 29  2  0  0  0
 13 56  1  0  0  0
 14 29  1  0  0  0
 14 31  1  0  0  0
 15 30  2  0  0  0
 15 41  1  0  0  0
 16 17  2  0  0  0
 16 18  1  0  0  0
 16 30  1  0  0  0
 17 26  1  0  0  0
 18 23  2  0  0  0
 19 20  1  0  0  0
 19 31  1  0  0  0
 19 42  1  0  0  0
 19 43  1  0  0  0
 20 22  1  0  0  0
 20 32  1  0  0  0
 20 44  1  0  0  0
 21 32  1  0  0  0
 21 45  1  0  0  0
 22 46  1  0  0  0
 22 47  1  0  0  0
 23 48  1  0  0  0
 24 25  3  0  0  0
 25 49  1  0  0  0
 32 50  1  0  0  0
 33 51  1  0  0  0
 52 55  1  0  0  0
 52 56  1  0  0  0
 52 60  1  0  0  0
 53 54  1  0  0  0
 53 57  2  0  0  0
 54 59  1  0  0  0
 54 61  1  0  0  0
 55 57  1  0  0  0
 55 62  1  0  0  0
 55 63  1  0  0  0
 56 64  1  0  0  0
 56 65  1  0  0  0
 57 58  1  0  0  0
 58 59  2  0  0  0
 58 66  1  0  0  0
 59 67  1  0  0  0
M  END
> <s_m_entry_id>
316

> <s_m_entry_name>
000000316.1

> <s_m_Source_Path>
/Users/zaksoul/Documents/2

> <s_m_Source_File>
000000316.mol2

> <i_m_Source_File_Index>
1

$$$$
No_0_333
                    3D
 Schrodinger Suite 2022-4.
 67 73  0  0  1  0            999 V2000
   -5.3260    3.5950  -21.7420 C   0  0  0  0  0  0
   -5.5840    3.7940  -23.0780 C   0  0  0  0  0  0
   -4.0850    3.3680  -21.3930 C   0  0  0  0  0  0
   -3.1770    3.5450  -23.5480 C   0  0  0  0  0  0
   -3.0230    3.2860  -22.1290 C   0  0  0  0  0  0
   -4.5260    3.7810  -24.0780 C   0  0  0  0  0  0
   -3.7510    3.8510  -26.2690 C   0  0  0  0  0  0
    5.9440    3.2900  -20.9200 C   0  0  0  0  0  0
    5.8260    3.4630  -23.4690 C   0  0  0  0  0  0
   -4.7680    3.9200  -25.4140 C   0  0  0  0  0  0
    2.0290    3.9160  -23.5150 C   0  0  0  0  0  0
    1.1770    5.0000  -23.2090 C   0  0  0  0  0  0
    2.9380    6.2310  -22.4970 C   0  0  0  0  0  0
    3.4210    4.1380  -23.1860 C   0  0  0  0  0  0
    1.5170    2.7950  -24.1960 C   0  0  0  0  0  0
   -0.6310    3.5530  -24.0950 C   0  0  0  0  0  0
   -0.1410    4.7780  -23.4750 C   0  0  0  0  0  0
   -2.0810    3.5270  -24.4640 C   0  0  0  0  0  0
    4.0860    1.6520  -22.9210 C   0  0  0  0  0  0
    5.0180    1.3050  -21.7700 C   0  0  2  0  0  0
    6.5760    2.8920  -22.2710 C   0  0  2  0  0  0
    4.9640    2.2900  -20.5900 C   0  0  0  0  0  0
   -2.3970    3.6980  -25.8920 C   0  0  0  0  0  0
   -1.6750    2.8990  -21.5230 C   0  0  0  0  0  0
   -0.6400    2.5700  -21.0120 C   0  0  0  0  0  0
   -1.0120    5.7970  -23.1250 F   0  0  0  0  0  0
   -3.8810    3.1120  -20.0120 F   0  0  0  0  0  0
    1.6200    6.1630  -22.6580 N   0  0  0  0  0  0
    3.8610    5.2940  -22.7210 N   0  0  0  0  0  0
    0.2160    2.6760  -24.5150 N   0  0  0  0  0  0
    4.3670    3.1160  -23.3680 N   0  0  0  0  0  0
    6.4270    1.4130  -22.2380 N   0  0  1  0  0  0
   -3.9110    3.8800  -27.6600 O   0  0  0  0  0  0
   -6.1360    3.6281  -21.0224 H   0  0  0  0  0  0
   -6.6001    3.9685  -23.4130 H   0  0  0  0  0  0
    5.4497    4.2675  -21.0209 H   0  0  0  0  0  0
    6.7222    3.3102  -20.1428 H   0  0  0  0  0  0
    6.2397    3.0402  -24.3964 H   0  0  0  0  0  0
    5.9410    4.5568  -23.4862 H   0  0  0  0  0  0
   -5.7797    4.0836  -25.7673 H   0  0  0  0  0  0
    2.1793    1.9862  -24.4830 H   0  0  0  0  0  0
    3.0418    1.5652  -22.5861 H   0  0  0  0  0  0
    4.2738    0.9695  -23.7630 H   0  0  0  0  0  0
    4.8162    0.2830  -21.4169 H   0  0  0  0  0  0
    7.6383    3.1755  -22.3043 H   0  0  0  0  0  0
    3.9680    2.7552  -20.5496 H   0  0  0  0  0  0
    5.2687    1.7715  -19.6690 H   0  0  0  0  0  0
   -1.6201    3.7070  -26.6479 H   0  0  0  0  0  0
    0.2704    2.2809  -20.5618 H   0  0  0  0  0  0
    7.0805    0.9221  -21.5321 H   0  0  0  0  0  0
   -3.0605    3.8186  -28.0788 H   0  0  0  0  0  0
    3.4310    8.5820  -23.1280 N   0  0  1  0  0  0
    5.8580   11.1760  -23.7000 N   0  0  0  0  0  0
    7.2140   11.1470  -23.7310 N   0  0  0  0  0  0
    3.8940    9.9710  -22.7690 C   0  0  0  0  0  0
    3.4600    7.5770  -22.0060 C   0  0  0  0  0  0
    5.3840   10.1870  -22.9830 C   0  0  0  0  0  0
    6.4650    9.4450  -22.4960 C   0  0  0  0  0  0
    7.5420   10.0670  -22.9800 C   0  0  0  0  0  0
    2.4086    8.6210  -23.4738 H   0  0  0  0  0  0
    7.7329   11.8639  -24.2579 H   0  0  0  0  0  0
    3.6429   10.1801  -21.7186 H   0  0  0  0  0  0
    3.3299   10.7082  -23.3592 H   0  0  0  0  0  0
    2.8295    7.9347  -21.1787 H   0  0  0  0  0  0
    4.4925    7.4609  -21.6448 H   0  0  0  0  0  0
    6.2890    8.5762  -21.8721 H   0  0  0  0  0  0
    8.5834    9.8039  -22.8339 H   0  0  0  0  0  0
  1  2  2  0  0  0
  1  3  1  0  0  0
  1 34  1  0  0  0
  2  6  1  0  0  0
  2 35  1  0  0  0
  3  5  2  0  0  0
  3 27  1  0  0  0
  4  5  1  0  0  0
  4  6  2  0  0  0
  4 18  1  0  0  0
  5 24  1  0  0  0
  6 10  1  0  0  0
  7 10  2  0  0  0
  7 23  1  0  0  0
  7 33  1  0  0  0
  8 21  1  0  0  0
  8 22  1  0  0  0
  8 36  1  0  0  0
  8 37  1  0  0  0
  9 21  1  0  0  0
  9 31  1  0  0  0
  9 38  1  0  0  0
  9 39  1  0  0  0
 10 40  1  0  0  0
 11 12  1  0  0  0
 11 14  2  0  0  0
 11 15  1  0  0  0
 12 17  1  0  0  0
 12 28  2  0  0  0
 13 28  1  0  0  0
 13 29  2  0  0  0
 13 56  1  0  0  0
 14 29  1  0  0  0
 14 31  1  0  0  0
 15 30  2  0  0  0
 15 41  1  0  0  0
 16 17  2  0  0  0
 16 18  1  0  0  0
 16 30  1  0  0  0
 17 26  1  0  0  0
 18 23  2  0  0  0
 19 20  1  0  0  0
 19 31  1  0  0  0
 19 42  1  0  0  0
 19 43  1  0  0  0
 20 22  1  0  0  0
 20 32  1  0  0  0
 20 44  1  0  0  0
 21 32  1  0  0  0
 21 45  1  0  0  0
 22 46  1  0  0  0
 22 47  1  0  0  0
 23 48  1  0  0  0
 24 25  3  0  0  0
 25 49  1  0  0  0
 32 50  1  0  0  0
 33 51  1  0  0  0
 52 55  1  0  0  0
 52 56  1  0  0  0
 52 60  1  0  0  0
 53 54  1  0  0  0
 53 57  2  0  0  0
 54 59  1  0  0  0
 54 61  1  0  0  0
 55 57  1  0  0  0
 55 62  1  0  0  0
 55 63  1  0  0  0
 56 64  1  0  0  0
 56 65  1  0  0  0
 57 58  1  0  0  0
 58 59  2  0  0  0
 58 66  1  0  0  0
 59 67  1  0  0  0
M  END
> <s_m_entry_id>
317

> <s_m_entry_name>
000000317.1

> <s_m_Source_Path>
/Users/zaksoul/Documents/2

> <s_m_Source_File>
000000317.mol2

> <i_m_Source_File_Index>
1

$$$$
No_0_334
                    3D
 Schrodinger Suite 2022-4.
 67 73  0  0  1  0            999 V2000
   -5.0400    3.5550  -21.8470 C   0  0  0  0  0  0
   -5.3120    3.7810  -23.1750 C   0  0  0  0  0  0
   -3.8000    3.2970  -21.5170 C   0  0  0  0  0  0
   -2.9170    3.4890  -23.6810 C   0  0  0  0  0  0
   -2.7500    3.2040  -22.2690 C   0  0  0  0  0  0
   -4.2670    3.7610  -24.1900 C   0  0  0  0  0  0
   -3.5190    3.8490  -26.3890 C   0  0  0  0  0  0
    6.2300    2.9990  -21.1790 C   0  0  0  0  0  0
    6.0830    3.2140  -23.7230 C   0  0  0  0  0  0
   -4.5230    3.9260  -25.5210 C   0  0  0  0  0  0
    2.2960    3.7490  -23.7120 C   0  0  0  0  0  0
    1.4720    4.8450  -23.3780 C   0  0  0  0  0  0
    3.2680    6.0270  -22.6700 C   0  0  0  0  0  0
    3.6970    3.9350  -23.3980 C   0  0  0  0  0  0
    1.7510    2.6490  -24.4030 C   0  0  0  0  0  0
   -0.3780    3.4510  -24.2620 C   0  0  0  0  0  0
    0.1460    4.6560  -23.6300 C   0  0  0  0  0  0
   -1.8330    3.4620  -24.6120 C   0  0  0  0  0  0
    4.3120    1.4320  -23.1800 C   0  0  0  0  0  0
    5.2510    1.0470  -22.0470 C   0  0  2  0  0  0
    6.8360    2.6080  -22.5440 C   0  0  2  0  0  0
    5.2330    2.0140  -20.8520 C   0  0  0  0  0  0
   -2.1630    3.6610  -26.0330 C   0  0  0  0  0  0
   -1.4020    2.7790  -21.6870 C   0  0  0  0  0  0
   -0.3690    2.4200  -21.1950 C   0  0  0  0  0  0
   -0.6980    5.6870  -23.2530 F   0  0  0  0  0  0
   -3.5840    3.0160  -20.1430 F   0  0  0  0  0  0
    1.9470    5.9900  -22.8150 N   0  0  0  0  0  0
    4.1670    5.0750  -22.9210 N   0  0  0  0  0  0
    0.4440    2.5630  -24.7070 N   0  0  0  0  0  0
    4.6180    2.8960  -23.6080 N   0  0  0  0  0  0
    6.6560    1.1330  -22.5320 N   0  0  1  0  0  0
   -3.6970    3.9030  -27.7770 O   0  0  0  0  0  0
   -5.8398    3.5951  -21.1164 H   0  0  0  0  0  0
   -6.3282    3.9818  -23.4943 H   0  0  0  0  0  0
    5.7556    3.9882  -21.2587 H   0  0  0  0  0  0
    7.0188    2.9899  -20.4124 H   0  0  0  0  0  0
    6.4759    2.7978  -24.6624 H   0  0  0  0  0  0
    6.2213    4.3053  -23.7250 H   0  0  0  0  0  0
   -5.5351    4.1178  -25.8584 H   0  0  0  0  0  0
    2.3923    1.8311  -24.7111 H   0  0  0  0  0  0
    3.2705    1.3624  -22.8328 H   0  0  0  0  0  0
    4.4735    0.7588  -24.0348 H   0  0  0  0  0  0
    5.0311    0.0242  -21.7071 H   0  0  0  0  0  0
    7.9034    2.8703  -22.5874 H   0  0  0  0  0  0
    4.2483    2.5003  -20.7905 H   0  0  0  0  0  0
    5.5387    1.4753  -19.9430 H   0  0  0  0  0  0
   -1.3960    3.6660  -26.7990 H   0  0  0  0  0  0
    0.5408    2.1051  -20.7611 H   0  0  0  0  0  0
    7.3075    0.6174  -21.8420 H   0  0  0  0  0  0
   -2.8535    3.8308  -28.2081 H   0  0  0  0  0  0
    3.4730    8.4600  -23.1270 N   0  0  1  0  0  0
    5.5540   11.2760  -23.9550 N   0  0  0  0  0  0
    6.8620   11.3540  -24.3090 N   0  0  0  0  0  0
    3.9390    9.8380  -22.7310 C   0  0  0  0  0  0
    3.8250    7.3540  -22.1650 C   0  0  0  0  0  0
    5.3190   10.1880  -23.2650 C   0  0  0  0  0  0
    6.5220    9.4860  -23.1350 C   0  0  0  0  0  0
    7.4160   10.2340  -23.7850 C   0  0  0  0  0  0
    2.3966    8.4550  -23.2150 H   0  0  0  0  0  0
    7.2001   12.1572  -24.8581 H   0  0  0  0  0  0
    3.9400    9.9220  -21.6342 H   0  0  0  0  0  0
    3.2119   10.5851  -23.0820 H   0  0  0  0  0  0
    3.3970    7.5790  -21.1770 H   0  0  0  0  0  0
    4.9189    7.2819  -22.0739 H   0  0  0  0  0  0
    6.5470    8.5488  -22.5909 H   0  0  0  0  0  0
    8.4736   10.0381  -23.9199 H   0  0  0  0  0  0
  1  2  2  0  0  0
  1  3  1  0  0  0
  1 34  1  0  0  0
  2  6  1  0  0  0
  2 35  1  0  0  0
  3  5  2  0  0  0
  3 27  1  0  0  0
  4  5  1  0  0  0
  4  6  2  0  0  0
  4 18  1  0  0  0
  5 24  1  0  0  0
  6 10  1  0  0  0
  7 10  2  0  0  0
  7 23  1  0  0  0
  7 33  1  0  0  0
  8 21  1  0  0  0
  8 22  1  0  0  0
  8 36  1  0  0  0
  8 37  1  0  0  0
  9 21  1  0  0  0
  9 31  1  0  0  0
  9 38  1  0  0  0
  9 39  1  0  0  0
 10 40  1  0  0  0
 11 12  1  0  0  0
 11 14  2  0  0  0
 11 15  1  0  0  0
 12 17  1  0  0  0
 12 28  2  0  0  0
 13 28  1  0  0  0
 13 29  2  0  0  0
 13 56  1  0  0  0
 14 29  1  0  0  0
 14 31  1  0  0  0
 15 30  2  0  0  0
 15 41  1  0  0  0
 16 17  2  0  0  0
 16 18  1  0  0  0
 16 30  1  0  0  0
 17 26  1  0  0  0
 18 23  2  0  0  0
 19 20  1  0  0  0
 19 31  1  0  0  0
 19 42  1  0  0  0
 19 43  1  0  0  0
 20 22  1  0  0  0
 20 32  1  0  0  0
 20 44  1  0  0  0
 21 32  1  0  0  0
 21 45  1  0  0  0
 22 46  1  0  0  0
 22 47  1  0  0  0
 23 48  1  0  0  0
 24 25  3  0  0  0
 25 49  1  0  0  0
 32 50  1  0  0  0
 33 51  1  0  0  0
 52 55  1  0  0  0
 52 56  1  0  0  0
 52 60  1  0  0  0
 53 54  1  0  0  0
 53 57  2  0  0  0
 54 59  1  0  0  0
 54 61  1  0  0  0
 55 57  1  0  0  0
 55 62  1  0  0  0
 55 63  1  0  0  0
 56 64  1  0  0  0
 56 65  1  0  0  0
 57 58  1  0  0  0
 58 59  2  0  0  0
 58 66  1  0  0  0
 59 67  1  0  0  0
M  END
> <s_m_entry_id>
318

> <s_m_entry_name>
000000318.1

> <s_m_Source_Path>
/Users/zaksoul/Documents/2

> <s_m_Source_File>
000000318.mol2

> <i_m_Source_File_Index>
1

$$$$
No_0_335
                    3D
 Schrodinger Suite 2022-4.
 70 76  0  0  1  0            999 V2000
   -5.3540    3.3420  -21.9820 C   0  0  0  0  0  0
   -5.6260    3.5230  -23.3180 C   0  0  0  0  0  0
   -4.1150    3.0920  -21.6450 C   0  0  0  0  0  0
   -3.2320    3.2070  -23.8150 C   0  0  0  0  0  0
   -3.0650    2.9700  -22.3940 C   0  0  0  0  0  0
   -4.5820    3.4650  -24.3320 C   0  0  0  0  0  0
   -3.8360    3.4760  -26.5330 C   0  0  0  0  0  0
    5.9150    2.7780  -21.3030 C   0  0  0  0  0  0
    5.7660    2.9060  -23.8530 C   0  0  0  0  0  0
   -4.8390    3.5850  -25.6670 C   0  0  0  0  0  0
    1.9810    3.4510  -23.8580 C   0  0  0  0  0  0
    1.1600    4.5610  -23.5620 C   0  0  0  0  0  0
    2.9600    5.7620  -22.8950 C   0  0  0  0  0  0
    3.3820    3.6450  -23.5510 C   0  0  0  0  0  0
    1.4330    2.3300  -24.5110 C   0  0  0  0  0  0
   -0.6950    3.1420  -24.3960 C   0  0  0  0  0  0
   -0.1660    4.3660  -23.8060 C   0  0  0  0  0  0
   -2.1490    3.1450  -24.7450 C   0  0  0  0  0  0
    3.9910    1.1490  -23.2480 C   0  0  0  0  0  0
    4.9300    0.8000  -22.1030 C   0  0  2  0  0  0
    6.5190    2.3400  -22.6550 C   0  0  2  0  0  0
    4.9160    1.8080  -20.9420 C   0  0  0  0  0  0
   -2.4800    3.2960  -26.1720 C   0  0  0  0  0  0
   -1.7180    2.5610  -21.7980 C   0  0  0  0  0  0
   -0.6850    2.2170  -21.2950 C   0  0  0  0  0  0
   -1.0080    5.4120  -23.4640 F   0  0  0  0  0  0
   -3.8980    2.8570  -20.2630 F   0  0  0  0  0  0
    1.6380    5.7230  -23.0380 N   0  0  0  0  0  0
    3.8560    4.7990  -23.1140 N   0  0  0  0  0  0
    0.1250    2.2380  -24.8100 N   0  0  0  0  0  0
    4.3010    2.5970  -23.7260 N   0  0  0  0  0  0
    6.3350    0.8660  -22.5920 N   0  0  1  0  0  0
   -4.0140    3.4820  -27.9220 O   0  0  0  0  0  0
   -6.1534    3.4083  -21.2529 H   0  0  0  0  0  0
   -6.6419    3.7157  -23.6433 H   0  0  0  0  0  0
    5.4427    3.7650  -21.4160 H   0  0  0  0  0  0
    6.7043    2.7931  -20.5369 H   0  0  0  0  0  0
    6.1576    2.4568  -24.7776 H   0  0  0  0  0  0
    5.9082    3.9961  -23.8923 H   0  0  0  0  0  0
   -5.8508    3.7677  -26.0103 H   0  0  0  0  0  0
    2.0714    1.4999  -24.7910 H   0  0  0  0  0  0
    2.9497    1.0935  -22.8979 H   0  0  0  0  0  0
    4.1504    0.4467  -24.0795 H   0  0  0  0  0  0
    4.7080   -0.2102  -21.7286 H   0  0  0  0  0  0
    7.5872    2.5972  -22.7075 H   0  0  0  0  0  0
    3.9324    2.2983  -20.8966 H   0  0  0  0  0  0
    5.2196    1.2996  -20.0150 H   0  0  0  0  0  0
   -1.7137    3.2729  -26.9383 H   0  0  0  0  0  0
    0.2243    1.9139  -20.8518 H   0  0  0  0  0  0
    6.9855    0.3728  -21.8848 H   0  0  0  0  0  0
   -3.1708    3.3929  -28.3505 H   0  0  0  0  0  0
    3.5180    7.2050  -20.9340 N   0  0  1  0  0  0
    5.5650   10.1300  -21.3200 N   0  0  0  0  0  0
    6.9200   10.1990  -21.3130 N   0  0  0  0  0  0
    3.8430    8.5640  -20.3690 C   0  0  0  0  0  0
    3.5200    7.1040  -22.4370 C   0  0  0  0  0  0
    6.3810    8.4000  -20.1790 C   0  0  0  0  0  0
    8.9170    8.9860  -20.4600 C   0  0  0  0  0  0
    5.2740    9.0090  -20.6140 C   0  0  0  0  0  0
    7.4300    9.1940  -20.6490 C   0  0  0  0  0  0
    4.2420    6.4850  -20.5820 H   0  0  0  0  0  0
    5.0148   10.8543  -21.8032 H   0  0  0  0  0  0
    3.6411    8.5670  -19.2877 H   0  0  0  0  0  0
    3.1517    9.3093  -20.7892 H   0  0  0  0  0  0
    4.5486    7.2180  -22.8099 H   0  0  0  0  0  0
    2.9130    7.9180  -22.8600 H   0  0  0  0  0  0
    6.3050    7.4888  -19.5968 H   0  0  0  0  0  0
    9.0880    8.0749  -19.8679 H   0  0  0  0  0  0
    9.4011    8.8810  -21.4422 H   0  0  0  0  0  0
    9.3441    9.8512  -19.9319 H   0  0  0  0  0  0
  1  2  2  0  0  0
  1  3  1  0  0  0
  1 34  1  0  0  0
  2  6  1  0  0  0
  2 35  1  0  0  0
  3  5  2  0  0  0
  3 27  1  0  0  0
  4  5  1  0  0  0
  4  6  2  0  0  0
  4 18  1  0  0  0
  5 24  1  0  0  0
  6 10  1  0  0  0
  7 10  2  0  0  0
  7 23  1  0  0  0
  7 33  1  0  0  0
  8 21  1  0  0  0
  8 22  1  0  0  0
  8 36  1  0  0  0
  8 37  1  0  0  0
  9 21  1  0  0  0
  9 31  1  0  0  0
  9 38  1  0  0  0
  9 39  1  0  0  0
 10 40  1  0  0  0
 11 12  1  0  0  0
 11 14  2  0  0  0
 11 15  1  0  0  0
 12 17  1  0  0  0
 12 28  2  0  0  0
 13 28  1  0  0  0
 13 29  2  0  0  0
 13 56  1  0  0  0
 14 29  1  0  0  0
 14 31  1  0  0  0
 15 30  2  0  0  0
 15 41  1  0  0  0
 16 17  2  0  0  0
 16 18  1  0  0  0
 16 30  1  0  0  0
 17 26  1  0  0  0
 18 23  2  0  0  0
 19 20  1  0  0  0
 19 31  1  0  0  0
 19 42  1  0  0  0
 19 43  1  0  0  0
 20 22  1  0  0  0
 20 32  1  0  0  0
 20 44  1  0  0  0
 21 32  1  0  0  0
 21 45  1  0  0  0
 22 46  1  0  0  0
 22 47  1  0  0  0
 23 48  1  0  0  0
 24 25  3  0  0  0
 25 49  1  0  0  0
 32 50  1  0  0  0
 33 51  1  0  0  0
 52 55  1  0  0  0
 52 56  1  0  0  0
 52 61  1  0  0  0
 53 54  1  0  0  0
 53 59  1  0  0  0
 53 62  1  0  0  0
 54 60  2  0  0  0
 55 59  1  0  0  0
 55 63  1  0  0  0
 55 64  1  0  0  0
 56 65  1  0  0  0
 56 66  1  0  0  0
 57 59  2  0  0  0
 57 60  1  0  0  0
 57 67  1  0  0  0
 58 60  1  0  0  0
 58 68  1  0  0  0
 58 69  1  0  0  0
 58 70  1  0  0  0
M  END
> <s_m_entry_id>
319

> <s_m_entry_name>
000000319.1

> <s_m_Source_Path>
/Users/zaksoul/Documents/2

> <s_m_Source_File>
000000319.mol2

> <i_m_Source_File_Index>
1

$$$$
No_0_336
                    3D
 Schrodinger Suite 2022-4.
 70 76  0  0  1  0            999 V2000
   -5.3210    3.2450  -22.0620 C   0  0  0  0  0  0
   -5.5650    3.4290  -23.4020 C   0  0  0  0  0  0
   -4.0820    3.0320  -21.6950 C   0  0  0  0  0  0
   -3.1510    3.1950  -23.8420 C   0  0  0  0  0  0
   -3.0120    2.9520  -22.4190 C   0  0  0  0  0  0
   -4.4950    3.4140  -24.3900 C   0  0  0  0  0  0
   -3.6950    3.4680  -26.5720 C   0  0  0  0  0  0
    5.9410    3.0420  -21.1050 C   0  0  0  0  0  0
    5.8510    3.1870  -23.6570 C   0  0  0  0  0  0
   -4.7220    3.5370  -25.7300 C   0  0  0  0  0  0
    2.0510    3.6090  -23.7520 C   0  0  0  0  0  0
    1.1880    4.6880  -23.4680 C   0  0  0  0  0  0
    2.9300    5.9410  -22.7470 C   0  0  0  0  0  0
    3.4370    3.8450  -23.4090 C   0  0  0  0  0  0
    1.5560    2.4760  -24.4270 C   0  0  0  0  0  0
   -0.5990    3.2180  -24.3590 C   0  0  0  0  0  0
   -0.1260    4.4530  -23.7470 C   0  0  0  0  0  0
   -2.0430    3.1770  -24.7440 C   0  0  0  0  0  0
    4.1200    1.3680  -23.1100 C   0  0  0  0  0  0
    5.0410    1.0400  -21.9450 C   0  0  2  0  0  0
    6.5920    2.6340  -22.4450 C   0  0  2  0  0  0
    4.9650    2.0370  -20.7760 C   0  0  0  0  0  0
   -2.3440    3.3290  -26.1780 C   0  0  0  0  0  0
   -1.6670    2.5810  -21.7930 C   0  0  0  0  0  0
   -0.6360    2.2670  -21.2660 C   0  0  0  0  0  0
   -1.0090    5.4690  -23.4170 F   0  0  0  0  0  0
   -3.8930    2.7930  -20.3100 F   0  0  0  0  0  0
    1.6140    5.8610  -22.9230 N   0  0  0  0  0  0
    3.8630    5.0100  -22.9510 N   0  0  0  0  0  0
    0.2600    2.3440  -24.7600 N   0  0  0  0  0  0
    4.3940    2.8290  -23.5690 N   0  0  0  0  0  0
    6.4540    1.1550  -22.3980 N   0  0  1  0  0  0
   -3.8390    3.4810  -27.9650 O   0  0  0  0  0  0
   -6.1389    3.2791  -21.3515 H   0  0  0  0  0  0
   -6.5784    3.5905  -23.7512 H   0  0  0  0  0  0
    5.4394    4.0139  -21.2221 H   0  0  0  0  0  0
    6.7103    3.0763  -20.3195 H   0  0  0  0  0  0
    6.2793    2.7587  -24.5752 H   0  0  0  0  0  0
    5.9579    4.2815  -23.6842 H   0  0  0  0  0  0
   -5.7304    3.6895  -26.0972 H   0  0  0  0  0  0
    2.2284    1.6701  -24.6980 H   0  0  0  0  0  0
    3.0725    1.2762  -22.7871 H   0  0  0  0  0  0
    4.3229    0.6786  -23.9428 H   0  0  0  0  0  0
    4.8423    0.0202  -21.5839 H   0  0  0  0  0  0
    7.6519    2.9275  -22.4682 H   0  0  0  0  0  0
    3.9648    2.4942  -20.7528 H   0  0  0  0  0  0
    5.2628    1.5302  -19.8462 H   0  0  0  0  0  0
   -1.5582    3.3380  -26.9247 H   0  0  0  0  0  0
    0.2716    1.9898  -20.8027 H   0  0  0  0  0  0
    7.1032    0.6770  -21.6793 H   0  0  0  0  0  0
   -2.9829    3.4226  -28.3727 H   0  0  0  0  0  0
    3.7380    7.2660  -20.7890 N   0  0  1  0  0  0
    5.3500   10.4420  -21.2500 N   0  0  0  0  0  0
    6.6620   10.6750  -21.5060 N   0  0  0  0  0  0
    4.0350    8.6000  -20.1540 C   0  0  0  0  0  0
    3.4350    7.2970  -22.2640 C   0  0  0  0  0  0
    6.5590    8.7320  -20.4920 C   0  0  0  0  0  0
    8.9060    9.6460  -21.2050 C   0  0  0  0  0  0
    5.3290    9.2370  -20.6280 C   0  0  0  0  0  0
    7.4000    9.6860  -21.0710 C   0  0  0  0  0  0
    4.5891    6.6119  -20.6700 H   0  0  0  0  0  0
    4.6394   11.1326  -21.5312 H   0  0  0  0  0  0
    4.0650    8.4841  -19.0605 H   0  0  0  0  0  0
    3.1989    9.2891  -20.3440 H   0  0  0  0  0  0
    4.3447    7.5679  -22.8198 H   0  0  0  0  0  0
    2.6729    8.0641  -22.4660 H   0  0  0  0  0  0
    6.7000    7.7713  -20.0101 H   0  0  0  0  0  0
    9.2889    8.7143  -20.7631 H   0  0  0  0  0  0
    9.1808    9.6860  -22.2694 H   0  0  0  0  0  0
    9.3449   10.5079  -20.6811 H   0  0  0  0  0  0
  1  2  2  0  0  0
  1  3  1  0  0  0
  1 34  1  0  0  0
  2  6  1  0  0  0
  2 35  1  0  0  0
  3  5  2  0  0  0
  3 27  1  0  0  0
  4  5  1  0  0  0
  4  6  2  0  0  0
  4 18  1  0  0  0
  5 24  1  0  0  0
  6 10  1  0  0  0
  7 10  2  0  0  0
  7 23  1  0  0  0
  7 33  1  0  0  0
  8 21  1  0  0  0
  8 22  1  0  0  0
  8 36  1  0  0  0
  8 37  1  0  0  0
  9 21  1  0  0  0
  9 31  1  0  0  0
  9 38  1  0  0  0
  9 39  1  0  0  0
 10 40  1  0  0  0
 11 12  1  0  0  0
 11 14  2  0  0  0
 11 15  1  0  0  0
 12 17  1  0  0  0
 12 28  2  0  0  0
 13 28  1  0  0  0
 13 29  2  0  0  0
 13 56  1  0  0  0
 14 29  1  0  0  0
 14 31  1  0  0  0
 15 30  2  0  0  0
 15 41  1  0  0  0
 16 17  2  0  0  0
 16 18  1  0  0  0
 16 30  1  0  0  0
 17 26  1  0  0  0
 18 23  2  0  0  0
 19 20  1  0  0  0
 19 31  1  0  0  0
 19 42  1  0  0  0
 19 43  1  0  0  0
 20 22  1  0  0  0
 20 32  1  0  0  0
 20 44  1  0  0  0
 21 32  1  0  0  0
 21 45  1  0  0  0
 22 46  1  0  0  0
 22 47  1  0  0  0
 23 48  1  0  0  0
 24 25  3  0  0  0
 25 49  1  0  0  0
 32 50  1  0  0  0
 33 51  1  0  0  0
 52 55  1  0  0  0
 52 56  1  0  0  0
 52 61  1  0  0  0
 53 54  1  0  0  0
 53 59  1  0  0  0
 53 62  1  0  0  0
 54 60  2  0  0  0
 55 59  1  0  0  0
 55 63  1  0  0  0
 55 64  1  0  0  0
 56 65  1  0  0  0
 56 66  1  0  0  0
 57 59  2  0  0  0
 57 60  1  0  0  0
 57 67  1  0  0  0
 58 60  1  0  0  0
 58 68  1  0  0  0
 58 69  1  0  0  0
 58 70  1  0  0  0
M  END
> <s_m_entry_id>
320

> <s_m_entry_name>
000000320.1

> <s_m_Source_Path>
/Users/zaksoul/Documents/2

> <s_m_Source_File>
000000320.mol2

> <i_m_Source_File_Index>
1

$$$$
No_0_337
                    3D
 Schrodinger Suite 2022-4.
 70 76  0  0  1  0            999 V2000
   -5.2350    3.5620  -21.9970 C   0  0  0  0  0  0
   -5.4920    3.7350  -23.3370 C   0  0  0  0  0  0
   -3.9980    3.3210  -21.6430 C   0  0  0  0  0  0
   -3.0900    3.4310  -23.8030 C   0  0  0  0  0  0
   -2.9390    3.2030  -22.3780 C   0  0  0  0  0  0
   -4.4350    3.6790  -24.3380 C   0  0  0  0  0  0
   -3.6610    3.6830  -26.5300 C   0  0  0  0  0  0
    6.0280    3.0710  -21.1760 C   0  0  0  0  0  0
    5.9100    3.1860  -23.7280 C   0  0  0  0  0  0
   -4.6760    3.7910  -25.6760 C   0  0  0  0  0  0
    2.1220    3.7080  -23.7830 C   0  0  0  0  0  0
    1.2910    4.8130  -23.5020 C   0  0  0  0  0  0
    3.0750    6.0280  -22.8190 C   0  0  0  0  0  0
    3.5180    3.9110  -23.4600 C   0  0  0  0  0  0
    1.5890    2.5800  -24.4370 C   0  0  0  0  0  0
   -0.5450    3.3800  -24.3520 C   0  0  0  0  0  0
   -0.0320    4.6100  -23.7610 C   0  0  0  0  0  0
   -1.9950    3.3720  -24.7190 C   0  0  0  0  0  0
    4.1380    1.4210  -23.1370 C   0  0  0  0  0  0
    5.0650    1.0830  -21.9790 C   0  0  2  0  0  0
    6.6520    2.6290  -22.5180 C   0  0  2  0  0  0
    5.0300    2.0960  -20.8230 C   0  0  0  0  0  0
   -2.3090    3.5140  -26.1510 C   0  0  0  0  0  0
   -1.5970    2.8050  -21.7650 C   0  0  0  0  0  0
   -0.5680    2.4690  -21.2470 C   0  0  0  0  0  0
   -0.8830    5.6520  -23.4350 F   0  0  0  0  0  0
   -3.7980    3.0940  -20.2570 F   0  0  0  0  0  0
    1.7550    5.9810  -22.9780 N   0  0  0  0  0  0
    3.9800    5.0700  -23.0220 N   0  0  0  0  0  0
    0.2860    2.4780  -24.7520 N   0  0  0  0  0  0
    4.4450    2.8680  -23.6180 N   0  0  0  0  0  0
    6.4750    1.1550  -22.4510 N   0  0  1  0  0  0
   -3.8230    3.6830  -27.9210 O   0  0  0  0  0  0
   -6.0434    3.6272  -21.2778 H   0  0  0  0  0  0
   -6.5051    3.9198  -23.6754 H   0  0  0  0  0  0
    5.5518    4.0548  -21.3001 H   0  0  0  0  0  0
    6.8082    3.0942  -20.4009 H   0  0  0  0  0  0
    6.3149    2.7347  -24.6458 H   0  0  0  0  0  0
    6.0462    4.2767  -23.7714 H   0  0  0  0  0  0
   -5.6848    3.9656  -26.0323 H   0  0  0  0  0  0
    2.2358    1.7525  -24.7052 H   0  0  0  0  0  0
    3.0927    1.3604  -22.7997 H   0  0  0  0  0  0
    4.3126    0.7155  -23.9627 H   0  0  0  0  0  0
    4.8449    0.0732  -21.6024 H   0  0  0  0  0  0
    7.7189    2.8935  -22.5594 H   0  0  0  0  0  0
    4.0429    2.5805  -20.7917 H   0  0  0  0  0  0
    5.3266    1.5946  -19.8899 H   0  0  0  0  0  0
   -1.5327    3.4919  -26.9072 H   0  0  0  0  0  0
    0.3375    2.1738  -20.7908 H   0  0  0  0  0  0
    7.1198    0.6695  -21.7334 H   0  0  0  0  0  0
   -2.9741    3.5959  -28.3385 H   0  0  0  0  0  0
    4.2110    7.2770  -20.9780 N   0  0  1  0  0  0
    5.5980   10.5410  -21.5450 N   0  0  0  0  0  0
    6.8250   10.8460  -22.0370 N   0  0  0  0  0  0
    4.5850    8.5860  -20.3300 C   0  0  0  0  0  0
    3.6210    7.3760  -22.3600 C   0  0  0  0  0  0
    6.9860    8.8470  -21.1470 C   0  0  0  0  0  0
    9.1160    9.9010  -22.2460 C   0  0  0  0  0  0
    5.7380    9.3040  -21.0080 C   0  0  0  0  0  0
    7.6650    9.8680  -21.8180 C   0  0  0  0  0  0
    5.0900    6.6560  -21.0680 H   0  0  0  0  0  0
    4.8239   11.2141  -21.6380 H   0  0  0  0  0  0
    4.8340    8.4120  -19.2728 H   0  0  0  0  0  0
    3.7060    9.2470  -20.3090 H   0  0  0  0  0  0
    4.3937    7.7169  -23.0648 H   0  0  0  0  0  0
    2.8099    8.1191  -22.3600 H   0  0  0  0  0  0
    7.2509    7.8684  -20.7632 H   0  0  0  0  0  0
    9.6089    8.9642  -21.9471 H   0  0  0  0  0  0
    9.1730   10.0120  -23.3389 H   0  0  0  0  0  0
    9.6220   10.7510  -21.7650 H   0  0  0  0  0  0
  1  2  2  0  0  0
  1  3  1  0  0  0
  1 34  1  0  0  0
  2  6  1  0  0  0
  2 35  1  0  0  0
  3  5  2  0  0  0
  3 27  1  0  0  0
  4  5  1  0  0  0
  4  6  2  0  0  0
  4 18  1  0  0  0
  5 24  1  0  0  0
  6 10  1  0  0  0
  7 10  2  0  0  0
  7 23  1  0  0  0
  7 33  1  0  0  0
  8 21  1  0  0  0
  8 22  1  0  0  0
  8 36  1  0  0  0
  8 37  1  0  0  0
  9 21  1  0  0  0
  9 31  1  0  0  0
  9 38  1  0  0  0
  9 39  1  0  0  0
 10 40  1  0  0  0
 11 12  1  0  0  0
 11 14  2  0  0  0
 11 15  1  0  0  0
 12 17  1  0  0  0
 12 28  2  0  0  0
 13 28  1  0  0  0
 13 29  2  0  0  0
 13 56  1  0  0  0
 14 29  1  0  0  0
 14 31  1  0  0  0
 15 30  2  0  0  0
 15 41  1  0  0  0
 16 17  2  0  0  0
 16 18  1  0  0  0
 16 30  1  0  0  0
 17 26  1  0  0  0
 18 23  2  0  0  0
 19 20  1  0  0  0
 19 31  1  0  0  0
 19 42  1  0  0  0
 19 43  1  0  0  0
 20 22  1  0  0  0
 20 32  1  0  0  0
 20 44  1  0  0  0
 21 32  1  0  0  0
 21 45  1  0  0  0
 22 46  1  0  0  0
 22 47  1  0  0  0
 23 48  1  0  0  0
 24 25  3  0  0  0
 25 49  1  0  0  0
 32 50  1  0  0  0
 33 51  1  0  0  0
 52 55  1  0  0  0
 52 56  1  0  0  0
 52 61  1  0  0  0
 53 54  1  0  0  0
 53 59  1  0  0  0
 53 62  1  0  0  0
 54 60  2  0  0  0
 55 59  1  0  0  0
 55 63  1  0  0  0
 55 64  1  0  0  0
 56 65  1  0  0  0
 56 66  1  0  0  0
 57 59  2  0  0  0
 57 60  1  0  0  0
 57 67  1  0  0  0
 58 60  1  0  0  0
 58 68  1  0  0  0
 58 69  1  0  0  0
 58 70  1  0  0  0
M  END
> <s_m_entry_id>
321

> <s_m_entry_name>
000000321.1

> <s_m_Source_Path>
/Users/zaksoul/Documents/2

> <s_m_Source_File>
000000321.mol2

> <i_m_Source_File_Index>
1

$$$$
No_0_338
                    3D
 Schrodinger Suite 2022-4.
 75 81  0  0  1  0            999 V2000
   -5.3280    3.4490  -22.0550 C   0  0  0  0  0  0
   -5.5800    3.6190  -23.3960 C   0  0  0  0  0  0
   -4.0900    3.2260  -21.6950 C   0  0  0  0  0  0
   -3.1710    3.3530  -23.8490 C   0  0  0  0  0  0
   -3.0250    3.1250  -22.4240 C   0  0  0  0  0  0
   -4.5170    3.5810  -24.3910 C   0  0  0  0  0  0
   -3.7320    3.6000  -26.5790 C   0  0  0  0  0  0
    5.9370    3.1300  -21.1730 C   0  0  0  0  0  0
    5.8310    3.2460  -23.7250 C   0  0  0  0  0  0
   -4.7520    3.6910  -25.7310 C   0  0  0  0  0  0
    2.0350    3.7100  -23.8000 C   0  0  0  0  0  0
    1.1860    4.8020  -23.5220 C   0  0  0  0  0  0
    2.9470    6.0440  -22.8290 C   0  0  0  0  0  0
    3.4270    3.9340  -23.4690 C   0  0  0  0  0  0
    1.5230    2.5750  -24.4580 C   0  0  0  0  0  0
   -0.6230    3.3410  -24.3840 C   0  0  0  0  0  0
   -0.1320    4.5780  -23.7890 C   0  0  0  0  0  0
   -2.0710    3.3120  -24.7590 C   0  0  0  0  0  0
    4.0830    1.4530  -23.1460 C   0  0  0  0  0  0
    5.0090    1.1290  -21.9830 C   0  0  2  0  0  0
    6.5740    2.7000  -22.5120 C   0  0  2  0  0  0
    4.9520    2.1400  -20.8260 C   0  0  0  0  0  0
   -2.3800    3.4510  -26.1930 C   0  0  0  0  0  0
   -1.6800    2.7470  -21.8030 C   0  0  0  0  0  0
   -0.6490    2.4270  -21.2800 C   0  0  0  0  0  0
   -1.0010    5.6070  -23.4660 F   0  0  0  0  0  0
   -3.8930    3.0010  -20.3080 F   0  0  0  0  0  0
    1.6300    5.9760  -22.9950 N   0  0  0  0  0  0
    3.8680    5.0990  -23.0280 N   0  0  0  0  0  0
    0.2240    2.4530  -24.7810 N   0  0  0  0  0  0
    4.3700    2.9060  -23.6240 N   0  0  0  0  0  0
    6.4200    1.2230  -22.4470 N   0  0  1  0  0  0
   -3.8850    3.5990  -27.9710 O   0  0  0  0  0  0
   -6.1417    3.5002  -21.3406 H   0  0  0  0  0  0
   -6.5941    3.7887  -23.7394 H   0  0  0  0  0  0
    5.4454    4.1061  -21.2982 H   0  0  0  0  0  0
    6.7119    3.1643  -20.3930 H   0  0  0  0  0  0
    6.2478    2.8029  -24.6415 H   0  0  0  0  0  0
    5.9501    4.3388  -23.7664 H   0  0  0  0  0  0
   -5.7615    3.8506  -26.0923 H   0  0  0  0  0  0
    2.1842    1.7582  -24.7239 H   0  0  0  0  0  0
    3.0371    1.3763  -22.8139 H   0  0  0  0  0  0
    4.2728    0.7514  -23.9717 H   0  0  0  0  0  0
    4.8023    0.1155  -21.6088 H   0  0  0  0  0  0
    7.6371    2.9804  -22.5463 H   0  0  0  0  0  0
    3.9570    2.6083  -20.8008 H   0  0  0  0  0  0
    5.2507    1.6405  -19.8926 H   0  0  0  0  0  0
   -1.5991    3.4420  -26.9448 H   0  0  0  0  0  0
    0.2586    2.1448  -20.8197 H   0  0  0  0  0  0
    7.0690    0.7461  -21.7274 H   0  0  0  0  0  0
   -3.0325    3.5257  -28.3839 H   0  0  0  0  0  0
    3.7850    7.3860  -20.8910 N   0  0  1  0  0  0
    8.5510    9.2500  -20.9370 N   0  0  0  0  0  0
    4.3090    8.6830  -20.3280 C   0  0  0  0  0  0
    6.7170    8.1510  -19.8480 C   0  0  0  0  0  0
    6.2710    9.8000  -21.4610 C   0  0  0  0  0  0
    3.4700    7.3990  -22.3650 C   0  0  0  0  0  0
    9.0410    7.5280  -19.2510 C   0  0  0  0  0  0
    8.0960   10.9860  -22.6210 C   0  0  0  0  0  0
    5.8000    8.8830  -20.5580 C   0  0  0  0  0  0
    8.0600    8.3550  -20.0580 C   0  0  0  0  0  0
    7.6270    9.9540  -21.6190 C   0  0  0  0  0  0
    4.5181    6.6069  -20.7430 H   0  0  0  0  0  0
    4.0971    8.7250  -19.2494 H   0  0  0  0  0  0
    3.7551    9.5238  -20.7709 H   0  0  0  0  0  0
    6.3820    7.4160  -19.1250 H   0  0  0  0  0  0
    5.5759   10.3951  -22.0421 H   0  0  0  0  0  0
    4.3781    7.6540  -22.9310 H   0  0  0  0  0  0
    2.7161    8.1729  -22.5720 H   0  0  0  0  0  0
    8.4888    6.8498  -18.5838 H   0  0  0  0  0  0
    9.6716    6.9383  -19.9326 H   0  0  0  0  0  0
    9.6768    8.1948  -18.6501 H   0  0  0  0  0  0
    7.2240   11.4680  -23.0870 H   0  0  0  0  0  0
    8.7041   11.7462  -22.1089 H   0  0  0  0  0  0
    8.7019   10.4951  -23.3968 H   0  0  0  0  0  0
  1  2  2  0  0  0
  1  3  1  0  0  0
  1 34  1  0  0  0
  2  6  1  0  0  0
  2 35  1  0  0  0
  3  5  2  0  0  0
  3 27  1  0  0  0
  4  5  1  0  0  0
  4  6  2  0  0  0
  4 18  1  0  0  0
  5 24  1  0  0  0
  6 10  1  0  0  0
  7 10  2  0  0  0
  7 23  1  0  0  0
  7 33  1  0  0  0
  8 21  1  0  0  0
  8 22  1  0  0  0
  8 36  1  0  0  0
  8 37  1  0  0  0
  9 21  1  0  0  0
  9 31  1  0  0  0
  9 38  1  0  0  0
  9 39  1  0  0  0
 10 40  1  0  0  0
 11 12  1  0  0  0
 11 14  2  0  0  0
 11 15  1  0  0  0
 12 17  1  0  0  0
 12 28  2  0  0  0
 13 28  1  0  0  0
 13 29  2  0  0  0
 13 57  1  0  0  0
 14 29  1  0  0  0
 14 31  1  0  0  0
 15 30  2  0  0  0
 15 41  1  0  0  0
 16 17  2  0  0  0
 16 18  1  0  0  0
 16 30  1  0  0  0
 17 26  1  0  0  0
 18 23  2  0  0  0
 19 20  1  0  0  0
 19 31  1  0  0  0
 19 42  1  0  0  0
 19 43  1  0  0  0
 20 22  1  0  0  0
 20 32  1  0  0  0
 20 44  1  0  0  0
 21 32  1  0  0  0
 21 45  1  0  0  0
 22 46  1  0  0  0
 22 47  1  0  0  0
 23 48  1  0  0  0
 24 25  3  0  0  0
 25 49  1  0  0  0
 32 50  1  0  0  0
 33 51  1  0  0  0
 52 54  1  0  0  0
 52 57  1  0  0  0
 52 63  1  0  0  0
 53 61  2  0  0  0
 53 62  1  0  0  0
 54 60  1  0  0  0
 54 64  1  0  0  0
 54 65  1  0  0  0
 55 60  2  0  0  0
 55 61  1  0  0  0
 55 66  1  0  0  0
 56 60  1  0  0  0
 56 62  2  0  0  0
 56 67  1  0  0  0
 57 68  1  0  0  0
 57 69  1  0  0  0
 58 61  1  0  0  0
 58 70  1  0  0  0
 58 71  1  0  0  0
 58 72  1  0  0  0
 59 62  1  0  0  0
 59 73  1  0  0  0
 59 74  1  0  0  0
 59 75  1  0  0  0
M  END
> <s_m_entry_id>
322

> <s_m_entry_name>
000000322.1

> <s_m_Source_Path>
/Users/zaksoul/Documents/2

> <s_m_Source_File>
000000322.mol2

> <i_m_Source_File_Index>
1

$$$$
No_0_339
                    3D
 Schrodinger Suite 2022-4.
 73 79  0  0  1  0            999 V2000
   -5.1830    3.4570  -22.0930 C   0  0  0  0  0  0
   -5.4360    3.6130  -23.4360 C   0  0  0  0  0  0
   -3.9450    3.2360  -21.7310 C   0  0  0  0  0  0
   -3.0280    3.3360  -23.8880 C   0  0  0  0  0  0
   -2.8810    3.1240  -22.4610 C   0  0  0  0  0  0
   -4.3740    3.5600  -24.4310 C   0  0  0  0  0  0
   -3.5900    3.5520  -26.6200 C   0  0  0  0  0  0
    6.0820    3.1220  -21.2170 C   0  0  0  0  0  0
    5.9740    3.2090  -23.7710 C   0  0  0  0  0  0
   -4.6100    3.6550  -25.7720 C   0  0  0  0  0  0
    2.1790    3.6800  -23.8470 C   0  0  0  0  0  0
    1.3330    4.7780  -23.5820 C   0  0  0  0  0  0
    3.0980    6.0230  -22.9040 C   0  0  0  0  0  0
    3.5710    3.9050  -23.5200 C   0  0  0  0  0  0
    1.6640    2.5390  -24.4920 C   0  0  0  0  0  0
   -0.4800    3.3110  -24.4250 C   0  0  0  0  0  0
    0.0140    4.5540  -23.8450 C   0  0  0  0  0  0
   -1.9280    3.2810  -24.7980 C   0  0  0  0  0  0
    4.2230    1.4270  -23.1690 C   0  0  0  0  0  0
    5.1480    1.1130  -22.0030 C   0  0  2  0  0  0
    6.7170    2.6740  -22.5520 C   0  0  2  0  0  0
    5.0950    2.1380  -20.8580 C   0  0  0  0  0  0
   -2.2380    3.4050  -26.2330 C   0  0  0  0  0  0
   -1.5370    2.7500  -21.8370 C   0  0  0  0  0  0
   -0.5060    2.4330  -21.3110 C   0  0  0  0  0  0
   -0.8530    5.5890  -23.5330 F   0  0  0  0  0  0
   -3.7480    3.0260  -20.3420 F   0  0  0  0  0  0
    1.7800    5.9570  -23.0680 N   0  0  0  0  0  0
    4.0160    5.0740  -23.0930 N   0  0  0  0  0  0
    0.3640    2.4170  -24.8120 N   0  0  0  0  0  0
    4.5120    2.8730  -23.6640 N   0  0  0  0  0  0
    6.5590    1.1990  -22.4690 N   0  0  1  0  0  0
   -3.7450    3.5350  -28.0110 O   0  0  0  0  0  0
   -5.9958    3.5192  -21.3785 H   0  0  0  0  0  0
   -6.4501    3.7807  -23.7804 H   0  0  0  0  0  0
    5.5926    4.0977  -21.3532 H   0  0  0  0  0  0
    6.8572    3.1634  -20.4377 H   0  0  0  0  0  0
    6.3892    2.7534  -24.6821 H   0  0  0  0  0  0
    6.0951    4.3010  -23.8245 H   0  0  0  0  0  0
   -5.6193    3.8127  -26.1346 H   0  0  0  0  0  0
    2.3230    1.7175  -24.7488 H   0  0  0  0  0  0
    3.1770    1.3564  -22.8361 H   0  0  0  0  0  0
    4.4098    0.7153  -23.9867 H   0  0  0  0  0  0
    4.9390    0.1043  -21.6173 H   0  0  0  0  0  0
    7.7807    2.9515  -22.5904 H   0  0  0  0  0  0
    4.1014    2.6095  -20.8368 H   0  0  0  0  0  0
    5.3936    1.6497  -19.9187 H   0  0  0  0  0  0
   -1.4582    3.3849  -26.9857 H   0  0  0  0  0  0
    0.4013    2.1549  -20.8478 H   0  0  0  0  0  0
    7.2073    0.7283  -21.7447 H   0  0  0  0  0  0
   -2.8934    3.4549  -28.4244 H   0  0  0  0  0  0
    3.9390    7.3810  -20.9830 N   0  0  1  0  0  0
    7.6070    9.8940  -21.6060 N   0  0  0  0  0  0
    6.2530    9.8860  -21.6790 N   0  0  0  0  0  0
    4.3920    8.6990  -20.4100 C   0  0  0  0  0  0
    5.8490    9.0210  -20.7130 C   0  0  0  0  0  0
    3.6240    7.3830  -22.4560 C   0  0  0  0  0  0
    6.8950    8.5040  -20.0610 C   0  0  0  0  0  0
    5.4720   10.6930  -22.6240 C   0  0  0  0  0  0
    9.4730    8.8750  -20.3120 C   0  0  0  0  0  0
    8.0160    9.0890  -20.6590 C   0  0  0  0  0  0
    4.7117    6.6403  -20.8389 H   0  0  0  0  0  0
    4.2380    8.6970  -19.3208 H   0  0  0  0  0  0
    3.7524    9.5055  -20.7978 H   0  0  0  0  0  0
    4.5337    7.6279  -23.0238 H   0  0  0  0  0  0
    2.8706    8.1554  -22.6701 H   0  0  0  0  0  0
    6.7359    7.7927  -19.2586 H   0  0  0  0  0  0
    4.3997   10.4999  -22.4730 H   0  0  0  0  0  0
    5.6800   11.7599  -22.4550 H   0  0  0  0  0  0
    5.7511   10.4239  -23.6534 H   0  0  0  0  0  0
    9.5519    8.1545  -19.4846 H   0  0  0  0  0  0
   10.0059    8.4831  -21.1909 H   0  0  0  0  0  0
    9.9229    9.8317  -20.0081 H   0  0  0  0  0  0
  1  2  2  0  0  0
  1  3  1  0  0  0
  1 34  1  0  0  0
  2  6  1  0  0  0
  2 35  1  0  0  0
  3  5  2  0  0  0
  3 27  1  0  0  0
  4  5  1  0  0  0
  4  6  2  0  0  0
  4 18  1  0  0  0
  5 24  1  0  0  0
  6 10  1  0  0  0
  7 10  2  0  0  0
  7 23  1  0  0  0
  7 33  1  0  0  0
  8 21  1  0  0  0
  8 22  1  0  0  0
  8 36  1  0  0  0
  8 37  1  0  0  0
  9 21  1  0  0  0
  9 31  1  0  0  0
  9 38  1  0  0  0
  9 39  1  0  0  0
 10 40  1  0  0  0
 11 12  1  0  0  0
 11 14  2  0  0  0
 11 15  1  0  0  0
 12 17  1  0  0  0
 12 28  2  0  0  0
 13 28  1  0  0  0
 13 29  2  0  0  0
 13 57  1  0  0  0
 14 29  1  0  0  0
 14 31  1  0  0  0
 15 30  2  0  0  0
 15 41  1  0  0  0
 16 17  2  0  0  0
 16 18  1  0  0  0
 16 30  1  0  0  0
 17 26  1  0  0  0
 18 23  2  0  0  0
 19 20  1  0  0  0
 19 31  1  0  0  0
 19 42  1  0  0  0
 19 43  1  0  0  0
 20 22  1  0  0  0
 20 32  1  0  0  0
 20 44  1  0  0  0
 21 32  1  0  0  0
 21 45  1  0  0  0
 22 46  1  0  0  0
 22 47  1  0  0  0
 23 48  1  0  0  0
 24 25  3  0  0  0
 25 49  1  0  0  0
 32 50  1  0  0  0
 33 51  1  0  0  0
 52 55  1  0  0  0
 52 57  1  0  0  0
 52 62  1  0  0  0
 53 54  1  0  0  0
 53 61  2  0  0  0
 54 56  1  0  0  0
 54 59  1  0  0  0
 55 56  1  0  0  0
 55 63  1  0  0  0
 55 64  1  0  0  0
 56 58  2  0  0  0
 57 65  1  0  0  0
 57 66  1  0  0  0
 58 61  1  0  0  0
 58 67  1  0  0  0
 59 68  1  0  0  0
 59 69  1  0  0  0
 59 70  1  0  0  0
 60 61  1  0  0  0
 60 71  1  0  0  0
 60 72  1  0  0  0
 60 73  1  0  0  0
M  END
> <s_m_entry_id>
323

> <s_m_entry_name>
000000323.1

> <s_m_Source_Path>
/Users/zaksoul/Documents/2

> <s_m_Source_File>
000000323.mol2

> <i_m_Source_File_Index>
1

$$$$
No_0_340
                    3D
 Schrodinger Suite 2022-4.
 69 75  0  0  1  0            999 V2000
   -5.1490    3.1660  -22.0360 C   0  0  0  0  0  0
   -5.4400    3.3310  -23.3690 C   0  0  0  0  0  0
   -3.8960    2.9770  -21.7080 C   0  0  0  0  0  0
   -3.0370    3.1310  -23.8850 C   0  0  0  0  0  0
   -2.8480    2.9050  -22.4640 C   0  0  0  0  0  0
   -4.4020    3.3230  -24.3910 C   0  0  0  0  0  0
   -3.6740    3.3660  -26.5990 C   0  0  0  0  0  0
    6.1390    3.1520  -21.4430 C   0  0  0  0  0  0
    5.9640    3.2690  -23.9920 C   0  0  0  0  0  0
   -4.6740    3.4280  -25.7250 C   0  0  0  0  0  0
    2.1570    3.6290  -23.9680 C   0  0  0  0  0  0
    1.2860    4.6980  -23.6670 C   0  0  0  0  0  0
    3.0300    5.9860  -23.0160 C   0  0  0  0  0  0
    3.5500    3.8910  -23.6730 C   0  0  0  0  0  0
    1.6600    2.4810  -24.6150 C   0  0  0  0  0  0
   -0.5040    3.1890  -24.4850 C   0  0  0  0  0  0
   -0.0320    4.4380  -23.9010 C   0  0  0  0  0  0
   -1.9600    3.1210  -24.8230 C   0  0  0  0  0  0
    4.2820    1.4280  -23.3710 C   0  0  0  0  0  0
    5.2450    1.1280  -22.2330 C   0  0  2  0  0  0
    6.7540    2.7410  -22.7990 C   0  0  2  0  0  0
    5.1910    2.1350  -21.0730 C   0  0  0  0  0  0
   -2.3090    3.2540  -26.2480 C   0  0  0  0  0  0
   -1.4780    2.5640  -21.8790 C   0  0  0  0  0  0
   -0.4260    2.2710  -21.3830 C   0  0  0  0  0  0
   -0.9200    5.4430  -23.5530 F   0  0  0  0  0  0
   -3.6580    2.7550  -20.3270 F   0  0  0  0  0  0
    1.7110    5.8830  -23.1490 N   0  0  0  0  0  0
    3.9710    5.0670  -23.2410 N   0  0  0  0  0  0
    0.3560    2.3250  -24.9050 N   0  0  0  0  0  0
    4.5170    2.8880  -23.8540 N   0  0  0  0  0  0
    6.6410    1.2610  -22.7330 N   0  0  1  0  0  0
   -3.8630    3.3620  -27.9860 O   0  0  0  0  0  0
   -5.9447    3.1951  -21.3005 H   0  0  0  0  0  0
   -6.4664    3.4735  -23.6871 H   0  0  0  0  0  0
    5.6191    4.1150  -21.5540 H   0  0  0  0  0  0
    6.9323    3.2075  -20.6830 H   0  0  0  0  0  0
    6.3696    2.8382  -24.9193 H   0  0  0  0  0  0
    6.0528    4.3646  -24.0344 H   0  0  0  0  0  0
   -5.6964    3.5604  -26.0601 H   0  0  0  0  0  0
    2.3359    1.6826  -24.8992 H   0  0  0  0  0  0
    3.2473    1.3230  -23.0126 H   0  0  0  0  0  0
    4.4688    0.7332  -24.2031 H   0  0  0  0  0  0
    5.0755    0.1088  -21.8556 H   0  0  0  0  0  0
    7.8077    3.0508  -22.8606 H   0  0  0  0  0  0
    4.1850    2.5770  -21.0215 H   0  0  0  0  0  0
    5.5269    1.6437  -20.1479 H   0  0  0  0  0  0
   -1.5481    3.2660  -27.0200 H   0  0  0  0  0  0
    0.5001    2.0130  -20.9460 H   0  0  0  0  0  0
    7.3205    0.8005  -22.0311 H   0  0  0  0  0  0
   -3.0201    3.3125  -28.4213 H   0  0  0  0  0  0
    6.6630    8.6950  -22.0470 O   0  0  0  0  0  0
    3.8130    7.3770  -21.0870 N   0  0  1  0  0  0
    8.0450    8.3990  -21.9400 N   0  0  0  0  0  0
    4.6030    8.5710  -20.6120 C   0  0  0  0  0  0
    3.5280    7.3540  -22.5640 C   0  0  0  0  0  0
    6.9920    7.9380  -20.0300 C   0  0  0  0  0  0
    9.5630    7.5150  -20.2000 C   0  0  0  0  0  0
    6.0890    8.3980  -20.8800 C   0  0  0  0  0  0
    8.2150    7.9520  -20.7330 C   0  0  0  0  0  0
    4.3579    6.4721  -20.8620 H   0  0  0  0  0  0
    4.4399    8.7131  -19.5335 H   0  0  0  0  0  0
    4.2420    9.4751  -21.1241 H   0  0  0  0  0  0
    4.4425    7.6129  -23.1177 H   0  0  0  0  0  0
    2.7711    8.1159  -22.8020 H   0  0  0  0  0  0
    6.6949    7.6469  -19.0236 H   0  0  0  0  0  0
    9.4540    7.1770  -19.1589 H   0  0  0  0  0  0
    9.9499    6.6882  -20.8138 H   0  0  0  0  0  0
   10.2655    8.3606  -20.2390 H   0  0  0  0  0  0
  1  2  2  0  0  0
  1  3  1  0  0  0
  1 34  1  0  0  0
  2  6  1  0  0  0
  2 35  1  0  0  0
  3  5  2  0  0  0
  3 27  1  0  0  0
  4  5  1  0  0  0
  4  6  2  0  0  0
  4 18  1  0  0  0
  5 24  1  0  0  0
  6 10  1  0  0  0
  7 10  2  0  0  0
  7 23  1  0  0  0
  7 33  1  0  0  0
  8 21  1  0  0  0
  8 22  1  0  0  0
  8 36  1  0  0  0
  8 37  1  0  0  0
  9 21  1  0  0  0
  9 31  1  0  0  0
  9 38  1  0  0  0
  9 39  1  0  0  0
 10 40  1  0  0  0
 11 12  1  0  0  0
 11 14  2  0  0  0
 11 15  1  0  0  0
 12 17  1  0  0  0
 12 28  2  0  0  0
 13 28  1  0  0  0
 13 29  2  0  0  0
 13 56  1  0  0  0
 14 29  1  0  0  0
 14 31  1  0  0  0
 15 30  2  0  0  0
 15 41  1  0  0  0
 16 17  2  0  0  0
 16 18  1  0  0  0
 16 30  1  0  0  0
 17 26  1  0  0  0
 18 23  2  0  0  0
 19 20  1  0  0  0
 19 31  1  0  0  0
 19 42  1  0  0  0
 19 43  1  0  0  0
 20 22  1  0  0  0
 20 32  1  0  0  0
 20 44  1  0  0  0
 21 32  1  0  0  0
 21 45  1  0  0  0
 22 46  1  0  0  0
 22 47  1  0  0  0
 23 48  1  0  0  0
 24 25  3  0  0  0
 25 49  1  0  0  0
 32 50  1  0  0  0
 33 51  1  0  0  0
 52 54  1  0  0  0
 52 59  1  0  0  0
 53 55  1  0  0  0
 53 56  1  0  0  0
 53 61  1  0  0  0
 54 60  2  0  0  0
 55 59  1  0  0  0
 55 62  1  0  0  0
 55 63  1  0  0  0
 56 64  1  0  0  0
 56 65  1  0  0  0
 57 59  2  0  0  0
 57 60  1  0  0  0
 57 66  1  0  0  0
 58 60  1  0  0  0
 58 67  1  0  0  0
 58 68  1  0  0  0
 58 69  1  0  0  0
M  END
> <s_m_entry_id>
324

> <s_m_entry_name>
000000324.1

> <s_m_Source_Path>
/Users/zaksoul/Documents/2

> <s_m_Source_File>
000000324.mol2

> <i_m_Source_File_Index>
1

$$$$
No_0_341
                    3D
 Schrodinger Suite 2022-4.
 69 75  0  0  1  0            999 V2000
   -5.4330    3.4240  -22.1860 C   0  0  0  0  0  0
   -5.6640    3.5970  -23.5300 C   0  0  0  0  0  0
   -4.2000    3.2030  -21.8080 C   0  0  0  0  0  0
   -3.2490    3.3340  -23.9470 C   0  0  0  0  0  0
   -3.1240    3.1040  -22.5210 C   0  0  0  0  0  0
   -4.5860    3.5610  -24.5090 C   0  0  0  0  0  0
   -3.7680    3.5840  -26.6850 C   0  0  0  0  0  0
    5.8180    3.1180  -21.1340 C   0  0  0  0  0  0
    5.7500    3.2380  -23.6880 C   0  0  0  0  0  0
   -4.8020    3.6720  -25.8530 C   0  0  0  0  0  0
    1.9560    3.6970  -23.8190 C   0  0  0  0  0  0
    1.1010    4.7880  -23.5530 C   0  0  0  0  0  0
    2.8500    6.0310  -22.8310 C   0  0  0  0  0  0
    3.3420    3.9230  -23.4670 C   0  0  0  0  0  0
    1.4550    2.5620  -24.4870 C   0  0  0  0  0  0
   -0.6930    3.3260  -24.4440 C   0  0  0  0  0  0
   -0.2120    4.5630  -23.8400 C   0  0  0  0  0  0
   -2.1350    3.2950  -24.8410 C   0  0  0  0  0  0
    3.9970    1.4420  -23.1370 C   0  0  0  0  0  0
    4.9050    1.1170  -21.9610 C   0  0  2  0  0  0
    6.4760    2.6900  -22.4640 C   0  0  2  0  0  0
    4.8290    2.1260  -20.8030 C   0  0  0  0  0  0
   -2.4220    3.4360  -26.2790 C   0  0  0  0  0  0
   -1.7880    2.7270  -21.8800 C   0  0  0  0  0  0
   -0.7650    2.4070  -21.3420 C   0  0  0  0  0  0
   -1.0880    5.5900  -23.5290 F   0  0  0  0  0  0
   -4.0240    2.9760  -20.4180 F   0  0  0  0  0  0
    1.5350    5.9620  -23.0170 N   0  0  0  0  0  0
    3.7750    5.0880  -23.0170 N   0  0  0  0  0  0
    0.1610    2.4390  -24.8290 N   0  0  0  0  0  0
    4.2890    2.8950  -23.6090 N   0  0  0  0  0  0
    6.3230    1.2130  -22.4030 N   0  0  1  0  0  0
   -3.9010    3.5840  -28.0790 O   0  0  0  0  0  0
   -6.2570    3.4742  -21.4834 H   0  0  0  0  0  0
   -6.6727    3.7656  -23.8893 H   0  0  0  0  0  0
    5.3276    4.0937  -21.2662 H   0  0  0  0  0  0
    6.5812    3.1523  -20.3426 H   0  0  0  0  0  0
    6.1818    2.7961  -24.5981 H   0  0  0  0  0  0
    5.8691    4.3309  -23.7253 H   0  0  0  0  0  0
   -5.8061    3.8306  -26.2295 H   0  0  0  0  0  0
    2.1213    1.7462  -24.7429 H   0  0  0  0  0  0
    2.9462    1.3633  -22.8214 H   0  0  0  0  0  0
    4.1987    0.7419  -23.9611 H   0  0  0  0  0  0
    4.6931    0.1028  -21.5916 H   0  0  0  0  0  0
    7.5390    2.9724  -22.4822 H   0  0  0  0  0  0
    3.8338    2.5944  -20.7919 H   0  0  0  0  0  0
    5.1146    1.6265  -19.8655 H   0  0  0  0  0  0
   -1.6299    3.4290  -27.0189 H   0  0  0  0  0  0
    0.1359    2.1260  -20.8681 H   0  0  0  0  0  0
    6.9617    0.7359  -21.6744 H   0  0  0  0  0  0
   -3.0425    3.5128  -28.4796 H   0  0  0  0  0  0
    6.4960    8.8210  -22.2040 O   0  0  0  0  0  0
    3.8630    7.3230  -20.9400 N   0  0  1  0  0  0
    7.8880    8.5780  -22.3190 N   0  0  0  0  0  0
    4.6750    8.5150  -20.5000 C   0  0  0  0  0  0
    3.3650    7.3860  -22.3580 C   0  0  0  0  0  0
    7.1430    7.9460  -20.3150 C   0  0  0  0  0  0
    9.6730    7.6450  -20.8850 C   0  0  0  0  0  0
    6.1100    8.4230  -20.9910 C   0  0  0  0  0  0
    8.2480    8.0590  -21.1850 C   0  0  0  0  0  0
    4.4639    6.4291  -20.8610 H   0  0  0  0  0  0
    4.6670    8.5780  -19.4018 H   0  0  0  0  0  0
    4.2129    9.4351  -20.8871 H   0  0  0  0  0  0
    4.1793    7.7191  -23.0182 H   0  0  0  0  0  0
    2.5570    8.1290  -22.4290 H   0  0  0  0  0  0
    7.0060    7.5769  -19.2997 H   0  0  0  0  0  0
    9.7290    7.2349  -19.8658 H   0  0  0  0  0  0
    9.9922    6.8785  -21.6065 H   0  0  0  0  0  0
   10.3339    8.5208  -20.9640 H   0  0  0  0  0  0
  1  2  2  0  0  0
  1  3  1  0  0  0
  1 34  1  0  0  0
  2  6  1  0  0  0
  2 35  1  0  0  0
  3  5  2  0  0  0
  3 27  1  0  0  0
  4  5  1  0  0  0
  4  6  2  0  0  0
  4 18  1  0  0  0
  5 24  1  0  0  0
  6 10  1  0  0  0
  7 10  2  0  0  0
  7 23  1  0  0  0
  7 33  1  0  0  0
  8 21  1  0  0  0
  8 22  1  0  0  0
  8 36  1  0  0  0
  8 37  1  0  0  0
  9 21  1  0  0  0
  9 31  1  0  0  0
  9 38  1  0  0  0
  9 39  1  0  0  0
 10 40  1  0  0  0
 11 12  1  0  0  0
 11 14  2  0  0  0
 11 15  1  0  0  0
 12 17  1  0  0  0
 12 28  2  0  0  0
 13 28  1  0  0  0
 13 29  2  0  0  0
 13 56  1  0  0  0
 14 29  1  0  0  0
 14 31  1  0  0  0
 15 30  2  0  0  0
 15 41  1  0  0  0
 16 17  2  0  0  0
 16 18  1  0  0  0
 16 30  1  0  0  0
 17 26  1  0  0  0
 18 23  2  0  0  0
 19 20  1  0  0  0
 19 31  1  0  0  0
 19 42  1  0  0  0
 19 43  1  0  0  0
 20 22  1  0  0  0
 20 32  1  0  0  0
 20 44  1  0  0  0
 21 32  1  0  0  0
 21 45  1  0  0  0
 22 46  1  0  0  0
 22 47  1  0  0  0
 23 48  1  0  0  0
 24 25  3  0  0  0
 25 49  1  0  0  0
 32 50  1  0  0  0
 33 51  1  0  0  0
 52 54  1  0  0  0
 52 59  1  0  0  0
 53 55  1  0  0  0
 53 56  1  0  0  0
 53 61  1  0  0  0
 54 60  2  0  0  0
 55 59  1  0  0  0
 55 62  1  0  0  0
 55 63  1  0  0  0
 56 64  1  0  0  0
 56 65  1  0  0  0
 57 59  2  0  0  0
 57 60  1  0  0  0
 57 66  1  0  0  0
 58 60  1  0  0  0
 58 67  1  0  0  0
 58 68  1  0  0  0
 58 69  1  0  0  0
M  END
> <s_m_entry_id>
325

> <s_m_entry_name>
000000325.1

> <s_m_Source_Path>
/Users/zaksoul/Documents/2

> <s_m_Source_File>
000000325.mol2

> <i_m_Source_File_Index>
1

$$$$
No_0_342
                    3D
 Schrodinger Suite 2022-4.
 69 75  0  0  1  0            999 V2000
   -5.5120    3.6440  -22.1650 C   0  0  0  0  0  0
   -5.7150    3.8710  -23.5050 C   0  0  0  0  0  0
   -4.2900    3.3840  -21.7730 C   0  0  0  0  0  0
   -3.2980    3.5750  -23.8900 C   0  0  0  0  0  0
   -3.2040    3.2900  -22.4710 C   0  0  0  0  0  0
   -4.6200    3.8500  -24.4660 C   0  0  0  0  0  0
   -3.7630    3.9380  -26.6250 C   0  0  0  0  0  0
    5.7100    3.0710  -20.9290 C   0  0  0  0  0  0
    5.6910    3.2880  -23.4760 C   0  0  0  0  0  0
   -4.8090    4.0160  -25.8080 C   0  0  0  0  0  0
    1.9100    3.8280  -23.6570 C   0  0  0  0  0  0
    1.0710    4.9250  -23.3650 C   0  0  0  0  0  0
    2.8310    6.1040  -22.5660 C   0  0  0  0  0  0
    3.2930    4.0120  -23.2720 C   0  0  0  0  0  0
    1.3990    2.7290  -24.3750 C   0  0  0  0  0  0
   -0.7340    3.5340  -24.3420 C   0  0  0  0  0  0
   -0.2400    4.7380  -23.6830 C   0  0  0  0  0  0
   -2.1690    3.5470  -24.7640 C   0  0  0  0  0  0
    3.8930    1.5080  -23.0250 C   0  0  0  0  0  0
    4.7730    1.1210  -21.8460 C   0  0  2  0  0  0
    6.3840    2.6800  -22.2620 C   0  0  2  0  0  0
    4.6960    2.0880  -20.6530 C   0  0  0  0  0  0
   -2.4270    3.7480  -26.2010 C   0  0  0  0  0  0
   -1.8880    2.8620  -21.8220 C   0  0  0  0  0  0
   -0.8810    2.5020  -21.2780 C   0  0  0  0  0  0
   -1.1010    5.7700  -23.3490 F   0  0  0  0  0  0
   -4.1440    3.1010  -20.3900 F   0  0  0  0  0  0
    1.5190    6.0690  -22.7780 N   0  0  0  0  0  0
    3.7400    5.1500  -22.7710 N   0  0  0  0  0  0
    0.1090    2.6460  -24.7440 N   0  0  0  0  0  0
    4.2220    2.9720  -23.4360 N   0  0  0  0  0  0
    6.2000    1.2050  -22.2600 N   0  0  1  0  0  0
   -3.8700    3.9930  -28.0200 O   0  0  0  0  0  0
   -6.3473    3.6842  -21.4753 H   0  0  0  0  0  0
   -6.7134    4.0737  -23.8753 H   0  0  0  0  0  0
    5.2409    4.0606  -21.0319 H   0  0  0  0  0  0
    6.4585    3.0609  -20.1230 H   0  0  0  0  0  0
    6.1297    2.8715  -24.3947 H   0  0  0  0  0  0
    5.8313    4.3790  -23.4710 H   0  0  0  0  0  0
   -5.8029    4.2087  -26.1955 H   0  0  0  0  0  0
    2.0534    1.9100  -24.6510 H   0  0  0  0  0  0
    2.8354    1.4394  -22.7303 H   0  0  0  0  0  0
    4.0969    0.8348  -23.8707 H   0  0  0  0  0  0
    4.5349    0.0980  -21.5191 H   0  0  0  0  0  0
    7.4525    2.9413  -22.2509 H   0  0  0  0  0  0
    3.7096    2.5746  -20.6409 H   0  0  0  0  0  0
    4.9543    1.5483  -19.7299 H   0  0  0  0  0  0
   -1.6219    3.7520  -26.9268 H   0  0  0  0  0  0
    0.0058    2.1851  -20.8001 H   0  0  0  0  0  0
    6.8157    0.6887  -21.5384 H   0  0  0  0  0  0
   -3.0058    3.9188  -28.4076 H   0  0  0  0  0  0
    6.4520    8.9620  -22.1180 O   0  0  0  0  0  0
    4.0310    7.2600  -20.6950 N   0  0  1  0  0  0
    7.8250    8.7820  -22.4190 N   0  0  0  0  0  0
    4.8590    8.4370  -20.2460 C   0  0  0  0  0  0
    3.3630    7.4300  -22.0330 C   0  0  0  0  0  0
    7.3450    7.9470  -20.4090 C   0  0  0  0  0  0
    9.7940    7.7930  -21.2990 C   0  0  0  0  0  0
    6.2260    8.4440  -20.9100 C   0  0  0  0  0  0
    8.3340    8.1780  -21.3880 C   0  0  0  0  0  0
    4.6604    6.3858  -20.7719 H   0  0  0  0  0  0
    4.9829    8.4020  -19.1536 H   0  0  0  0  0  0
    4.3299    9.3702  -20.4891 H   0  0  0  0  0  0
    4.0827    7.8508  -22.7507 H   0  0  0  0  0  0
    2.5331    8.1459  -21.9390 H   0  0  0  0  0  0
    7.3420    7.4841  -19.4233 H   0  0  0  0  0  0
    9.9849    7.2954  -20.3367 H   0  0  0  0  0  0
   10.0440    7.1060  -22.1209 H   0  0  0  0  0  0
   10.4179    8.6958  -21.3740 H   0  0  0  0  0  0
  1  2  2  0  0  0
  1  3  1  0  0  0
  1 34  1  0  0  0
  2  6  1  0  0  0
  2 35  1  0  0  0
  3  5  2  0  0  0
  3 27  1  0  0  0
  4  5  1  0  0  0
  4  6  2  0  0  0
  4 18  1  0  0  0
  5 24  1  0  0  0
  6 10  1  0  0  0
  7 10  2  0  0  0
  7 23  1  0  0  0
  7 33  1  0  0  0
  8 21  1  0  0  0
  8 22  1  0  0  0
  8 36  1  0  0  0
  8 37  1  0  0  0
  9 21  1  0  0  0
  9 31  1  0  0  0
  9 38  1  0  0  0
  9 39  1  0  0  0
 10 40  1  0  0  0
 11 12  1  0  0  0
 11 14  2  0  0  0
 11 15  1  0  0  0
 12 17  1  0  0  0
 12 28  2  0  0  0
 13 28  1  0  0  0
 13 29  2  0  0  0
 13 56  1  0  0  0
 14 29  1  0  0  0
 14 31  1  0  0  0
 15 30  2  0  0  0
 15 41  1  0  0  0
 16 17  2  0  0  0
 16 18  1  0  0  0
 16 30  1  0  0  0
 17 26  1  0  0  0
 18 23  2  0  0  0
 19 20  1  0  0  0
 19 31  1  0  0  0
 19 42  1  0  0  0
 19 43  1  0  0  0
 20 22  1  0  0  0
 20 32  1  0  0  0
 20 44  1  0  0  0
 21 32  1  0  0  0
 21 45  1  0  0  0
 22 46  1  0  0  0
 22 47  1  0  0  0
 23 48  1  0  0  0
 24 25  3  0  0  0
 25 49  1  0  0  0
 32 50  1  0  0  0
 33 51  1  0  0  0
 52 54  1  0  0  0
 52 59  1  0  0  0
 53 55  1  0  0  0
 53 56  1  0  0  0
 53 61  1  0  0  0
 54 60  2  0  0  0
 55 59  1  0  0  0
 55 62  1  0  0  0
 55 63  1  0  0  0
 56 64  1  0  0  0
 56 65  1  0  0  0
 57 59  2  0  0  0
 57 60  1  0  0  0
 57 66  1  0  0  0
 58 60  1  0  0  0
 58 67  1  0  0  0
 58 68  1  0  0  0
 58 69  1  0  0  0
M  END
> <s_m_entry_id>
326

> <s_m_entry_name>
000000326.1

> <s_m_Source_Path>
/Users/zaksoul/Documents/2

> <s_m_Source_File>
000000326.mol2

> <i_m_Source_File_Index>
1

$$$$
No_0_343
                    3D
 Schrodinger Suite 2022-4.
 69 75  0  0  1  0            999 V2000
   -5.3830    3.2960  -21.9890 C   0  0  0  0  0  0
   -5.6260    3.4760  -23.3300 C   0  0  0  0  0  0
   -4.1470    3.0640  -21.6240 C   0  0  0  0  0  0
   -3.2170    3.1970  -23.7730 C   0  0  0  0  0  0
   -3.0790    2.9600  -22.3490 C   0  0  0  0  0  0
   -4.5580    3.4360  -24.3200 C   0  0  0  0  0  0
   -3.7620    3.4630  -26.5040 C   0  0  0  0  0  0
    5.8760    2.9020  -21.0520 C   0  0  0  0  0  0
    5.7830    3.0340  -23.6040 C   0  0  0  0  0  0
   -4.7860    3.5550  -25.6610 C   0  0  0  0  0  0
    1.9910    3.5210  -23.6950 C   0  0  0  0  0  0
    1.1470    4.6170  -23.4160 C   0  0  0  0  0  0
    2.9130    5.8440  -22.7060 C   0  0  0  0  0  0
    3.3820    3.7350  -23.3560 C   0  0  0  0  0  0
    1.4760    2.3930  -24.3630 C   0  0  0  0  0  0
   -0.6660    3.1720  -24.2960 C   0  0  0  0  0  0
   -0.1700    4.4030  -23.6910 C   0  0  0  0  0  0
   -2.1120    3.1540  -24.6770 C   0  0  0  0  0  0
    4.0220    1.2480  -23.0440 C   0  0  0  0  0  0
    4.9390    0.9110  -21.8780 C   0  0  2  0  0  0
    6.5170    2.4750  -22.3900 C   0  0  2  0  0  0
    4.8830    1.9160  -20.7160 C   0  0  0  0  0  0
   -2.4130    3.3030  -26.1120 C   0  0  0  0  0  0
   -1.7400    2.5700  -21.7230 C   0  0  0  0  0  0
   -0.7140    2.2410  -21.1970 C   0  0  0  0  0  0
   -1.0350    5.4360  -23.3660 F   0  0  0  0  0  0
   -3.9590    2.8290  -20.2370 F   0  0  0  0  0  0
    1.5960    5.7850  -22.8800 N   0  0  0  0  0  0
    3.8290    4.8950  -22.9060 N   0  0  0  0  0  0
    0.1770    2.2810  -24.6920 N   0  0  0  0  0  0
    4.3200    2.7010  -23.5120 N   0  0  0  0  0  0
    6.3540    0.9990  -22.3340 N   0  0  1  0  0  0
   -3.9090    3.4700  -27.8970 O   0  0  0  0  0  0
   -6.1995    3.3482  -21.2779 H   0  0  0  0  0  0
   -6.6371    3.6535  -23.6781 H   0  0  0  0  0  0
    5.3916    3.8820  -21.1741 H   0  0  0  0  0  0
    6.6470    2.9272  -20.2679 H   0  0  0  0  0  0
    6.2026    2.5922  -24.5198 H   0  0  0  0  0  0
    5.9092    4.1262  -23.6383 H   0  0  0  0  0  0
   -5.7927    3.7226  -26.0263 H   0  0  0  0  0  0
    2.1332    1.5733  -24.6299 H   0  0  0  0  0  0
    2.9738    1.1764  -22.7181 H   0  0  0  0  0  0
    4.2107    0.5496  -23.8726 H   0  0  0  0  0  0
    4.7240   -0.1033  -21.5106 H   0  0  0  0  0  0
    7.5819    2.7493  -22.4182 H   0  0  0  0  0  0
    3.8912    2.3912  -20.6928 H   0  0  0  0  0  0
    5.1737    1.4103  -19.7834 H   0  0  0  0  0  0
   -1.6282    3.2940  -26.8597 H   0  0  0  0  0  0
    0.1894    1.9512  -20.7333 H   0  0  0  0  0  0
    6.9962    0.5141  -21.6137 H   0  0  0  0  0  0
   -3.0546    3.3939  -28.3054 H   0  0  0  0  0  0
    6.2530    9.0440  -22.9840 O   0  0  0  0  0  0
    4.4440    7.0340  -21.1210 N   0  0  1  0  0  0
    7.5140    9.0230  -23.6320 N   0  0  0  0  0  0
    5.2500    8.2710  -20.8130 C   0  0  0  0  0  0
    3.4420    7.1930  -22.2330 C   0  0  0  0  0  0
    7.6440    8.0530  -21.6290 C   0  0  0  0  0  0
    9.7860    8.1970  -23.1150 C   0  0  0  0  0  0
    6.3930    8.4510  -21.7970 C   0  0  0  0  0  0
    8.3230    8.4300  -22.8070 C   0  0  0  0  0  0
    5.1088    6.2352  -21.4149 H   0  0  0  0  0  0
    5.6530    8.1990  -19.7920 H   0  0  0  0  0  0
    4.5939    9.1532  -20.8480 H   0  0  0  0  0  0
    3.9120    7.7190  -23.0770 H   0  0  0  0  0  0
    2.6033    7.8128  -21.8831 H   0  0  0  0  0  0
    7.9371    7.5479  -20.7098 H   0  0  0  0  0  0
   10.2613    7.6797  -22.2685 H   0  0  0  0  0  0
    9.8770    7.5781  -24.0198 H   0  0  0  0  0  0
   10.2851    9.1631  -23.2810 H   0  0  0  0  0  0
  1  2  2  0  0  0
  1  3  1  0  0  0
  1 34  1  0  0  0
  2  6  1  0  0  0
  2 35  1  0  0  0
  3  5  2  0  0  0
  3 27  1  0  0  0
  4  5  1  0  0  0
  4  6  2  0  0  0
  4 18  1  0  0  0
  5 24  1  0  0  0
  6 10  1  0  0  0
  7 10  2  0  0  0
  7 23  1  0  0  0
  7 33  1  0  0  0
  8 21  1  0  0  0
  8 22  1  0  0  0
  8 36  1  0  0  0
  8 37  1  0  0  0
  9 21  1  0  0  0
  9 31  1  0  0  0
  9 38  1  0  0  0
  9 39  1  0  0  0
 10 40  1  0  0  0
 11 12  1  0  0  0
 11 14  2  0  0  0
 11 15  1  0  0  0
 12 17  1  0  0  0
 12 28  2  0  0  0
 13 28  1  0  0  0
 13 29  2  0  0  0
 13 56  1  0  0  0
 14 29  1  0  0  0
 14 31  1  0  0  0
 15 30  2  0  0  0
 15 41  1  0  0  0
 16 17  2  0  0  0
 16 18  1  0  0  0
 16 30  1  0  0  0
 17 26  1  0  0  0
 18 23  2  0  0  0
 19 20  1  0  0  0
 19 31  1  0  0  0
 19 42  1  0  0  0
 19 43  1  0  0  0
 20 22  1  0  0  0
 20 32  1  0  0  0
 20 44  1  0  0  0
 21 32  1  0  0  0
 21 45  1  0  0  0
 22 46  1  0  0  0
 22 47  1  0  0  0
 23 48  1  0  0  0
 24 25  3  0  0  0
 25 49  1  0  0  0
 32 50  1  0  0  0
 33 51  1  0  0  0
 52 54  1  0  0  0
 52 59  1  0  0  0
 53 55  1  0  0  0
 53 56  1  0  0  0
 53 61  1  0  0  0
 54 60  2  0  0  0
 55 59  1  0  0  0
 55 62  1  0  0  0
 55 63  1  0  0  0
 56 64  1  0  0  0
 56 65  1  0  0  0
 57 59  2  0  0  0
 57 60  1  0  0  0
 57 66  1  0  0  0
 58 60  1  0  0  0
 58 67  1  0  0  0
 58 68  1  0  0  0
 58 69  1  0  0  0
M  END
> <s_m_entry_id>
327

> <s_m_entry_name>
000000327.1

> <s_m_Source_Path>
/Users/zaksoul/Documents/2

> <s_m_Source_File>
000000327.mol2

> <i_m_Source_File_Index>
1

$$$$
No_0_344
                    3D
 Schrodinger Suite 2022-4.
 69 75  0  0  1  0            999 V2000
   -5.1270    3.4910  -22.1830 C   0  0  0  0  0  0
   -5.3790    3.6610  -23.5240 C   0  0  0  0  0  0
   -3.8880    3.2720  -21.8220 C   0  0  0  0  0  0
   -2.9700    3.4010  -23.9760 C   0  0  0  0  0  0
   -2.8230    3.1740  -22.5510 C   0  0  0  0  0  0
   -4.3160    3.6250  -24.5190 C   0  0  0  0  0  0
   -3.5310    3.6450  -26.7060 C   0  0  0  0  0  0
    6.1390    3.2050  -21.2990 C   0  0  0  0  0  0
    6.0320    3.3200  -23.8520 C   0  0  0  0  0  0
   -4.5510    3.7340  -25.8590 C   0  0  0  0  0  0
    2.2360    3.7730  -23.9270 C   0  0  0  0  0  0
    1.3830    4.8630  -23.6500 C   0  0  0  0  0  0
    3.1410    6.1100  -22.9560 C   0  0  0  0  0  0
    3.6260    4.0010  -23.5960 C   0  0  0  0  0  0
    1.7270    2.6360  -24.5850 C   0  0  0  0  0  0
   -0.4210    3.3960  -24.5120 C   0  0  0  0  0  0
    0.0660    4.6350  -23.9170 C   0  0  0  0  0  0
   -1.8690    3.3630  -24.8860 C   0  0  0  0  0  0
    4.2900    1.5220  -23.2720 C   0  0  0  0  0  0
    5.2160    1.2010  -22.1090 C   0  0  2  0  0  0
    6.7780    2.7760  -22.6380 C   0  0  2  0  0  0
    5.1570    2.2120  -20.9520 C   0  0  0  0  0  0
   -2.1780    3.5010  -26.3200 C   0  0  0  0  0  0
   -1.4770    2.8000  -21.9300 C   0  0  0  0  0  0
   -0.4450    2.4830  -21.4070 C   0  0  0  0  0  0
   -0.8060    5.6620  -23.5940 F   0  0  0  0  0  0
   -3.6910    3.0480  -20.4350 F   0  0  0  0  0  0
    1.8230    6.0380  -23.1230 N   0  0  0  0  0  0
    4.0640    5.1680  -23.1550 N   0  0  0  0  0  0
    0.4280    2.5110  -24.9070 N   0  0  0  0  0  0
    4.5730    2.9750  -23.7500 N   0  0  0  0  0  0
    6.6280    1.2990  -22.5720 N   0  0  1  0  0  0
   -3.6840    3.6430  -28.0980 O   0  0  0  0  0  0
   -5.9407    3.5412  -21.4686 H   0  0  0  0  0  0
   -6.3938    3.8266  -23.8673 H   0  0  0  0  0  0
    5.6447    4.1795  -21.4251 H   0  0  0  0  0  0
    6.9133    3.2424  -20.5186 H   0  0  0  0  0  0
    6.4509    2.8769  -24.7675 H   0  0  0  0  0  0
    6.1481    4.4131  -23.8934 H   0  0  0  0  0  0
   -5.5610    3.8896  -26.2204 H   0  0  0  0  0  0
    2.3906    1.8208  -24.8500 H   0  0  0  0  0  0
    3.2443    1.4433  -22.9399 H   0  0  0  0  0  0
    4.4818    0.8213  -24.0979 H   0  0  0  0  0  0
    5.0122    0.1873  -21.7338 H   0  0  0  0  0  0
    7.8402    3.0597  -22.6723 H   0  0  0  0  0  0
    4.1610    2.6782  -20.9268 H   0  0  0  0  0  0
    5.4566    1.7146  -20.0178 H   0  0  0  0  0  0
   -1.3971    3.4930  -27.0718 H   0  0  0  0  0  0
    0.4631    2.2040  -20.9459 H   0  0  0  0  0  0
    7.2776    0.8239  -21.8518 H   0  0  0  0  0  0
   -2.8316    3.5718  -28.5113 H   0  0  0  0  0  0
    7.8270    9.7520  -21.5140 O   0  0  0  0  0  0
    3.9740    7.4550  -21.0200 N   0  0  1  0  0  0
    6.4140    9.8210  -21.6010 N   0  0  0  0  0  0
    4.4860    8.7570  -20.4590 C   0  0  0  0  0  0
    3.6600    7.4670  -22.4930 C   0  0  0  0  0  0
    7.0350    8.3610  -20.0350 C   0  0  0  0  0  0
    9.5640    8.5360  -20.1840 C   0  0  0  0  0  0
    5.9660    8.9850  -20.7140 C   0  0  0  0  0  0
    8.1370    8.8690  -20.5640 C   0  0  0  0  0  0
    4.7142    6.6828  -20.8710 H   0  0  0  0  0  0
    4.2931    8.7900  -19.3765 H   0  0  0  0  0  0
    3.9099    9.5911  -20.8861 H   0  0  0  0  0  0
    4.5677    7.7239  -23.0588 H   0  0  0  0  0  0
    2.9036    8.2384  -22.7001 H   0  0  0  0  0  0
    6.8319    7.6278  -19.2558 H   0  0  0  0  0  0
    9.5650    7.7851  -19.3801 H   0  0  0  0  0  0
   10.0931    8.1350  -21.0611 H   0  0  0  0  0  0
   10.0728    9.4467  -19.8351 H   0  0  0  0  0  0
  1  2  2  0  0  0
  1  3  1  0  0  0
  1 34  1  0  0  0
  2  6  1  0  0  0
  2 35  1  0  0  0
  3  5  2  0  0  0
  3 27  1  0  0  0
  4  5  1  0  0  0
  4  6  2  0  0  0
  4 18  1  0  0  0
  5 24  1  0  0  0
  6 10  1  0  0  0
  7 10  2  0  0  0
  7 23  1  0  0  0
  7 33  1  0  0  0
  8 21  1  0  0  0
  8 22  1  0  0  0
  8 36  1  0  0  0
  8 37  1  0  0  0
  9 21  1  0  0  0
  9 31  1  0  0  0
  9 38  1  0  0  0
  9 39  1  0  0  0
 10 40  1  0  0  0
 11 12  1  0  0  0
 11 14  2  0  0  0
 11 15  1  0  0  0
 12 17  1  0  0  0
 12 28  2  0  0  0
 13 28  1  0  0  0
 13 29  2  0  0  0
 13 56  1  0  0  0
 14 29  1  0  0  0
 14 31  1  0  0  0
 15 30  2  0  0  0
 15 41  1  0  0  0
 16 17  2  0  0  0
 16 18  1  0  0  0
 16 30  1  0  0  0
 17 26  1  0  0  0
 18 23  2  0  0  0
 19 20  1  0  0  0
 19 31  1  0  0  0
 19 42  1  0  0  0
 19 43  1  0  0  0
 20 22  1  0  0  0
 20 32  1  0  0  0
 20 44  1  0  0  0
 21 32  1  0  0  0
 21 45  1  0  0  0
 22 46  1  0  0  0
 22 47  1  0  0  0
 23 48  1  0  0  0
 24 25  3  0  0  0
 25 49  1  0  0  0
 32 50  1  0  0  0
 33 51  1  0  0  0
 52 54  1  0  0  0
 52 60  1  0  0  0
 53 55  1  0  0  0
 53 56  1  0  0  0
 53 61  1  0  0  0
 54 59  2  0  0  0
 55 59  1  0  0  0
 55 62  1  0  0  0
 55 63  1  0  0  0
 56 64  1  0  0  0
 56 65  1  0  0  0
 57 59  1  0  0  0
 57 60  2  0  0  0
 57 66  1  0  0  0
 58 60  1  0  0  0
 58 67  1  0  0  0
 58 68  1  0  0  0
 58 69  1  0  0  0
M  END
> <s_m_entry_id>
328

> <s_m_entry_name>
000000328.1

> <s_m_Source_Path>
/Users/zaksoul/Documents/2

> <s_m_Source_File>
000000328.mol2

> <i_m_Source_File_Index>
1

$$$$
No_0_345
                    3D
 Schrodinger Suite 2022-4.
 69 75  0  0  1  0            999 V2000
   -5.0100    3.8190  -22.2790 C   0  0  0  0  0  0
   -5.2410    4.0410  -23.6160 C   0  0  0  0  0  0
   -3.7830    3.5460  -21.9140 C   0  0  0  0  0  0
   -2.8370    3.7120  -24.0540 C   0  0  0  0  0  0
   -2.7140    3.4340  -22.6360 C   0  0  0  0  0  0
   -4.1690    4.0000  -24.6010 C   0  0  0  0  0  0
   -3.3590    4.0640  -26.7790 C   0  0  0  0  0  0
    6.2290    3.1120  -21.2950 C   0  0  0  0  0  0
    6.1550    3.3130  -23.8430 C   0  0  0  0  0  0
   -4.3860    4.1600  -25.9390 C   0  0  0  0  0  0
    2.3770    3.9000  -23.9410 C   0  0  0  0  0  0
    1.5600    5.0100  -23.6370 C   0  0  0  0  0  0
    3.3520    6.1710  -22.8860 C   0  0  0  0  0  0
    3.7710    4.0690  -23.5890 C   0  0  0  0  0  0
    1.8370    2.8040  -24.6410 C   0  0  0  0  0  0
   -0.2850    3.6360  -24.5640 C   0  0  0  0  0  0
    0.2390    4.8370  -23.9240 C   0  0  0  0  0  0
   -1.7280    3.6650  -24.9530 C   0  0  0  0  0  0
    4.3450    1.5600  -23.3400 C   0  0  0  0  0  0
    5.2470    1.1680  -22.1790 C   0  0  2  0  0  0
    6.8670    2.7050  -22.6410 C   0  0  2  0  0  0
    5.2100    2.1430  -20.9900 C   0  0  0  0  0  0
   -2.0170    3.8600  -26.3850 C   0  0  0  0  0  0
   -1.3890    2.9930  -22.0140 C   0  0  0  0  0  0
   -0.3740    2.6240  -21.4910 C   0  0  0  0  0  0
   -0.6010    5.8820  -23.5770 F   0  0  0  0  0  0
   -3.6090    3.2700  -20.5330 F   0  0  0  0  0  0
    2.0350    6.1510  -23.0670 N   0  0  0  0  0  0
    4.2440    5.2050  -23.1060 N   0  0  0  0  0  0
    0.5380    2.7340  -24.9800 N   0  0  0  0  0  0
    4.6830    3.0160  -23.7680 N   0  0  0  0  0  0
    6.6660    1.2320  -22.6250 N   0  0  1  0  0  0
   -3.4980    4.1120  -28.1720 O   0  0  0  0  0  0
   -5.8292    3.8742  -21.5712 H   0  0  0  0  0  0
   -6.2455    4.2527  -23.9642 H   0  0  0  0  0  0
    5.7708    4.1071  -21.3939 H   0  0  0  0  0  0
    6.9961    3.0969  -20.5067 H   0  0  0  0  0  0
    6.5676    2.8863  -24.7691 H   0  0  0  0  0  0
    6.3093    4.4021  -23.8480 H   0  0  0  0  0  0
   -5.3858    4.3628  -26.3054 H   0  0  0  0  0  0
    2.4744    1.9749  -24.9261 H   0  0  0  0  0  0
    3.2936    1.5055  -23.0212 H   0  0  0  0  0  0
    4.5216    0.8789  -24.1855 H   0  0  0  0  0  0
    5.0037    0.1503  -21.8398 H   0  0  0  0  0  0
    7.9387    2.9522  -22.6561 H   0  0  0  0  0  0
    4.2304    2.6424  -20.9597 H   0  0  0  0  0  0
    5.4824    1.6053  -20.0699 H   0  0  0  0  0  0
   -1.2288    3.8490  -27.1291 H   0  0  0  0  0  0
    0.5192    2.2989  -21.0309 H   0  0  0  0  0  0
    7.2911    0.7118  -21.9143 H   0  0  0  0  0  0
   -2.6439    4.0249  -28.5788 H   0  0  0  0  0  0
    8.1330    9.8370  -21.8780 O   0  0  0  0  0  0
    4.4790    7.3440  -20.9850 N   0  0  1  0  0  0
    6.7250    9.8550  -21.7140 N   0  0  0  0  0  0
    5.0510    8.6010  -20.3820 C   0  0  0  0  0  0
    3.9120    7.4940  -22.3730 C   0  0  0  0  0  0
    7.6430    8.2690  -20.4460 C   0  0  0  0  0  0
   10.1020    8.5630  -21.0040 C   0  0  0  0  0  0
    6.4580    8.9150  -20.8600 C   0  0  0  0  0  0
    8.6230    8.8740  -21.0960 C   0  0  0  0  0  0
    5.2507    6.5913  -21.0500 H   0  0  0  0  0  0
    5.0490    8.5140  -19.2854 H   0  0  0  0  0  0
    4.3900    9.4499  -20.6110 H   0  0  0  0  0  0
    4.7005    7.8458  -23.0546 H   0  0  0  0  0  0
    3.1140    8.2510  -22.3630 H   0  0  0  0  0  0
    7.5950    7.4523  -19.7273 H   0  0  0  0  0  0
   10.2601    7.7337  -20.2988 H   0  0  0  0  0  0
   10.4798    8.2762  -21.9965 H   0  0  0  0  0  0
   10.6430    9.4530  -20.6500 H   0  0  0  0  0  0
  1  2  2  0  0  0
  1  3  1  0  0  0
  1 34  1  0  0  0
  2  6  1  0  0  0
  2 35  1  0  0  0
  3  5  2  0  0  0
  3 27  1  0  0  0
  4  5  1  0  0  0
  4  6  2  0  0  0
  4 18  1  0  0  0
  5 24  1  0  0  0
  6 10  1  0  0  0
  7 10  2  0  0  0
  7 23  1  0  0  0
  7 33  1  0  0  0
  8 21  1  0  0  0
  8 22  1  0  0  0
  8 36  1  0  0  0
  8 37  1  0  0  0
  9 21  1  0  0  0
  9 31  1  0  0  0
  9 38  1  0  0  0
  9 39  1  0  0  0
 10 40  1  0  0  0
 11 12  1  0  0  0
 11 14  2  0  0  0
 11 15  1  0  0  0
 12 17  1  0  0  0
 12 28  2  0  0  0
 13 28  1  0  0  0
 13 29  2  0  0  0
 13 56  1  0  0  0
 14 29  1  0  0  0
 14 31  1  0  0  0
 15 30  2  0  0  0
 15 41  1  0  0  0
 16 17  2  0  0  0
 16 18  1  0  0  0
 16 30  1  0  0  0
 17 26  1  0  0  0
 18 23  2  0  0  0
 19 20  1  0  0  0
 19 31  1  0  0  0
 19 42  1  0  0  0
 19 43  1  0  0  0
 20 22  1  0  0  0
 20 32  1  0  0  0
 20 44  1  0  0  0
 21 32  1  0  0  0
 21 45  1  0  0  0
 22 46  1  0  0  0
 22 47  1  0  0  0
 23 48  1  0  0  0
 24 25  3  0  0  0
 25 49  1  0  0  0
 32 50  1  0  0  0
 33 51  1  0  0  0
 52 54  1  0  0  0
 52 60  1  0  0  0
 53 55  1  0  0  0
 53 56  1  0  0  0
 53 61  1  0  0  0
 54 59  2  0  0  0
 55 59  1  0  0  0
 55 62  1  0  0  0
 55 63  1  0  0  0
 56 64  1  0  0  0
 56 65  1  0  0  0
 57 59  1  0  0  0
 57 60  2  0  0  0
 57 66  1  0  0  0
 58 60  1  0  0  0
 58 67  1  0  0  0
 58 68  1  0  0  0
 58 69  1  0  0  0
M  END
> <s_m_entry_id>
329

> <s_m_entry_name>
000000329.1

> <s_m_Source_Path>
/Users/zaksoul/Documents/2

> <s_m_Source_File>
000000329.mol2

> <i_m_Source_File_Index>
1

$$$$
No_0_346
                    3D
 Schrodinger Suite 2022-4.
 69 75  0  0  1  0            999 V2000
   -5.1620    3.4930  -22.0650 C   0  0  0  0  0  0
   -5.4040    3.6760  -23.4060 C   0  0  0  0  0  0
   -3.9260    3.2650  -21.6990 C   0  0  0  0  0  0
   -2.9940    3.4070  -23.8460 C   0  0  0  0  0  0
   -2.8570    3.1670  -22.4230 C   0  0  0  0  0  0
   -4.3350    3.6430  -24.3950 C   0  0  0  0  0  0
   -3.5370    3.6780  -26.5770 C   0  0  0  0  0  0
    6.0970    3.1400  -21.1160 C   0  0  0  0  0  0
    6.0070    3.2780  -23.6680 C   0  0  0  0  0  0
   -4.5620    3.7640  -25.7350 C   0  0  0  0  0  0
    2.2130    3.7510  -23.7620 C   0  0  0  0  0  0
    1.3650    4.8430  -23.4810 C   0  0  0  0  0  0
    3.1250    6.0750  -22.7660 C   0  0  0  0  0  0
    3.6030    3.9700  -23.4210 C   0  0  0  0  0  0
    1.7030    2.6230  -24.4330 C   0  0  0  0  0  0
   -0.4420    3.3940  -24.3660 C   0  0  0  0  0  0
    0.0480    4.6250  -23.7580 C   0  0  0  0  0  0
   -1.8870    3.3710  -24.7500 C   0  0  0  0  0  0
    4.2520    1.4840  -23.1140 C   0  0  0  0  0  0
    5.1690    1.1480  -21.9490 C   0  0  2  0  0  0
    6.7420    2.7200  -22.4550 C   0  0  2  0  0  0
    5.1080    2.1500  -20.7830 C   0  0  0  0  0  0
   -2.1870    3.5230  -26.1840 C   0  0  0  0  0  0
   -1.5170    2.7810  -21.7970 C   0  0  0  0  0  0
   -0.4900    2.4540  -21.2700 C   0  0  0  0  0  0
   -0.8210    5.6530  -23.4320 F   0  0  0  0  0  0
   -3.7380    3.0280  -20.3130 F   0  0  0  0  0  0
    1.8080    6.0120  -22.9410 N   0  0  0  0  0  0
    4.0440    5.1300  -22.9670 N   0  0  0  0  0  0
    0.4050    2.5070  -24.7640 N   0  0  0  0  0  0
    4.5450    2.9400  -23.5790 N   0  0  0  0  0  0
    6.5840    1.2430  -22.4030 N   0  0  1  0  0  0
   -3.6820    3.6880  -27.9700 O   0  0  0  0  0  0
   -5.9791    3.5412  -21.3543 H   0  0  0  0  0  0
   -6.4156    3.8506  -23.7542 H   0  0  0  0  0  0
    5.6096    4.1188  -21.2361 H   0  0  0  0  0  0
    6.8670    3.1672  -20.3309 H   0  0  0  0  0  0
    6.4288    2.8411  -24.5852 H   0  0  0  0  0  0
    6.1291    4.3708  -23.6993 H   0  0  0  0  0  0
   -5.5688    3.9286  -26.1014 H   0  0  0  0  0  0
    2.3633    1.8061  -24.7009 H   0  0  0  0  0  0
    3.2036    1.4073  -22.7901 H   0  0  0  0  0  0
    4.4448    0.7894  -23.9449 H   0  0  0  0  0  0
    4.9581    0.1320  -21.5838 H   0  0  0  0  0  0
    7.8061    2.9976  -22.4802 H   0  0  0  0  0  0
    4.1143    2.6211  -20.7598 H   0  0  0  0  0  0
    5.3996    1.6425  -19.8517 H   0  0  0  0  0  0
   -1.4022    3.5180  -26.9317 H   0  0  0  0  0  0
    0.4139    2.1660  -20.8061 H   0  0  0  0  0  0
    7.2265    0.7587  -21.6825 H   0  0  0  0  0  0
   -2.8273    3.6168  -28.3786 H   0  0  0  0  0  0
    7.7420   10.0270  -22.1600 O   0  0  0  0  0  0
    4.3540    7.2970  -20.9630 N   0  0  1  0  0  0
    6.3580    9.9550  -21.8630 N   0  0  0  0  0  0
    4.9010    8.5830  -20.3970 C   0  0  0  0  0  0
    3.6480    7.4250  -22.2880 C   0  0  0  0  0  0
    7.4910    8.4170  -20.7130 C   0  0  0  0  0  0
    9.8620    8.8740  -21.4990 C   0  0  0  0  0  0
    6.2340    8.9900  -21.0020 C   0  0  0  0  0  0
    8.3650    9.0900  -21.4440 C   0  0  0  0  0  0
    5.1624    6.5967  -21.1131 H   0  0  0  0  0  0
    5.0100    8.4840  -19.3069 H   0  0  0  0  0  0
    4.1690    9.3900  -20.5480 H   0  0  0  0  0  0
    4.3439    7.8329  -23.0359 H   0  0  0  0  0  0
    2.8087    8.1292  -22.1900 H   0  0  0  0  0  0
    7.5640    7.5915  -20.0065 H   0  0  0  0  0  0
   10.1388    8.0496  -20.8255 H   0  0  0  0  0  0
   10.1601    8.6219  -22.5274 H   0  0  0  0  0  0
   10.3771    9.7931  -21.1830 H   0  0  0  0  0  0
  1  2  2  0  0  0
  1  3  1  0  0  0
  1 34  1  0  0  0
  2  6  1  0  0  0
  2 35  1  0  0  0
  3  5  2  0  0  0
  3 27  1  0  0  0
  4  5  1  0  0  0
  4  6  2  0  0  0
  4 18  1  0  0  0
  5 24  1  0  0  0
  6 10  1  0  0  0
  7 10  2  0  0  0
  7 23  1  0  0  0
  7 33  1  0  0  0
  8 21  1  0  0  0
  8 22  1  0  0  0
  8 36  1  0  0  0
  8 37  1  0  0  0
  9 21  1  0  0  0
  9 31  1  0  0  0
  9 38  1  0  0  0
  9 39  1  0  0  0
 10 40  1  0  0  0
 11 12  1  0  0  0
 11 14  2  0  0  0
 11 15  1  0  0  0
 12 17  1  0  0  0
 12 28  2  0  0  0
 13 28  1  0  0  0
 13 29  2  0  0  0
 13 56  1  0  0  0
 14 29  1  0  0  0
 14 31  1  0  0  0
 15 30  2  0  0  0
 15 41  1  0  0  0
 16 17  2  0  0  0
 16 18  1  0  0  0
 16 30  1  0  0  0
 17 26  1  0  0  0
 18 23  2  0  0  0
 19 20  1  0  0  0
 19 31  1  0  0  0
 19 42  1  0  0  0
 19 43  1  0  0  0
 20 22  1  0  0  0
 20 32  1  0  0  0
 20 44  1  0  0  0
 21 32  1  0  0  0
 21 45  1  0  0  0
 22 46  1  0  0  0
 22 47  1  0  0  0
 23 48  1  0  0  0
 24 25  3  0  0  0
 25 49  1  0  0  0
 32 50  1  0  0  0
 33 51  1  0  0  0
 52 54  1  0  0  0
 52 60  1  0  0  0
 53 55  1  0  0  0
 53 56  1  0  0  0
 53 61  1  0  0  0
 54 59  2  0  0  0
 55 59  1  0  0  0
 55 62  1  0  0  0
 55 63  1  0  0  0
 56 64  1  0  0  0
 56 65  1  0  0  0
 57 59  1  0  0  0
 57 60  2  0  0  0
 57 66  1  0  0  0
 58 60  1  0  0  0
 58 67  1  0  0  0
 58 68  1  0  0  0
 58 69  1  0  0  0
M  END
> <s_m_entry_id>
330

> <s_m_entry_name>
000000330.1

> <s_m_Source_Path>
/Users/zaksoul/Documents/2

> <s_m_Source_File>
000000330.mol2

> <i_m_Source_File_Index>
1

$$$$
No_0_349
                    3D
 Schrodinger Suite 2022-4.
 74 80  0  0  1  0            999 V2000
   -4.9830    3.6830  -22.0780 C   0  0  0  0  0  0
   -5.2490    3.8470  -23.4170 C   0  0  0  0  0  0
   -3.7450    3.4340  -21.7330 C   0  0  0  0  0  0
   -2.8540    3.5190  -23.9000 C   0  0  0  0  0  0
   -2.6930    3.3010  -22.4750 C   0  0  0  0  0  0
   -4.2010    3.7740  -24.4260 C   0  0  0  0  0  0
   -3.4450    3.7540  -26.6240 C   0  0  0  0  0  0
    6.2820    3.1040  -21.3450 C   0  0  0  0  0  0
    6.1440    3.1990  -23.8960 C   0  0  0  0  0  0
   -4.4520    3.8770  -25.7640 C   0  0  0  0  0  0
    2.3600    3.7520  -23.9240 C   0  0  0  0  0  0
    1.5410    4.8670  -23.6460 C   0  0  0  0  0  0
    3.3400    6.0720  -22.9880 C   0  0  0  0  0  0
    3.7610    3.9460  -23.6150 C   0  0  0  0  0  0
    1.8120    2.6230  -24.5650 C   0  0  0  0  0  0
   -0.3140    3.4420  -24.4700 C   0  0  0  0  0  0
    0.2150    4.6720  -23.8930 C   0  0  0  0  0  0
   -1.7670    3.4430  -24.8240 C   0  0  0  0  0  0
    4.3630    1.4540  -23.2770 C   0  0  0  0  0  0
    5.2960    1.1180  -22.1230 C   0  0  2  0  0  0
    6.8910    2.6460  -22.6880 C   0  0  2  0  0  0
    5.2790    2.1400  -20.9750 C   0  0  0  0  0  0
   -2.0920    3.5770  -26.2550 C   0  0  0  0  0  0
   -1.3500    2.8970  -21.8690 C   0  0  0  0  0  0
   -0.3200    2.5570  -21.3570 C   0  0  0  0  0  0
   -0.6260    5.7250  -23.5680 F   0  0  0  0  0  0
   -3.5350    3.2170  -20.3460 F   0  0  0  0  0  0
    2.0190    6.0350  -23.1360 N   0  0  0  0  0  0
    4.2360    5.1050  -23.1900 N   0  0  0  0  0  0
    0.5060    2.5300  -24.8690 N   0  0  0  0  0  0
    4.6770    2.8940  -23.7720 N   0  0  0  0  0  0
    6.7030    1.1740  -22.6070 N   0  0  1  0  0  0
   -3.6180    3.7430  -28.0140 O   0  0  0  0  0  0
   -5.7852    3.7603  -21.3531 H   0  0  0  0  0  0
   -6.2630    4.0378  -23.7493 H   0  0  0  0  0  0
    5.8125    4.0905  -21.4732 H   0  0  0  0  0  0
    7.0682    3.1272  -20.5760 H   0  0  0  0  0  0
    6.5376    2.7368  -24.8133 H   0  0  0  0  0  0
    6.2883    4.2882  -23.9495 H   0  0  0  0  0  0
   -5.4623    4.0568  -26.1135 H   0  0  0  0  0  0
    2.4507    1.7885  -24.8311 H   0  0  0  0  0  0
    3.3203    1.4046  -22.9301 H   0  0  0  0  0  0
    4.5245    0.7405  -24.0985 H   0  0  0  0  0  0
    5.0700    0.1132  -21.7366 H   0  0  0  0  0  0
    7.9599    2.9004  -22.7395 H   0  0  0  0  0  0
    4.2964    2.6333  -20.9407 H   0  0  0  0  0  0
    5.5788    1.6434  -20.0404 H   0  0  0  0  0  0
   -1.3224    3.5419  -27.0176 H   0  0  0  0  0  0
    0.5869    2.2580  -20.9061 H   0  0  0  0  0  0
    7.3501    0.6884  -21.8915 H   0  0  0  0  0  0
   -2.7731    3.6460  -28.4374 H   0  0  0  0  0  0
    8.5660   10.8600  -22.6920 F   0  0  0  0  0  0
    4.2320    7.4020  -21.0750 N   0  3  0  0  0  0
    4.7840    8.6910  -20.5190 C   0  0  0  0  0  0
    3.9020    7.4190  -22.5440 C   0  0  0  0  0  0
    6.2810    8.8570  -20.7430 C   0  0  0  0  0  0
    8.1150    9.9470  -21.8190 C   0  0  0  0  0  0
    8.5270    8.2400  -20.2100 C   0  0  0  0  0  0
    7.1710    8.0830  -20.0310 C   0  0  0  0  0  0
    6.7580    9.7870  -21.6390 C   0  0  0  0  0  0
   10.4980    9.3500  -21.2910 C   0  0  0  0  0  0
    9.0040    9.1730  -21.1020 C   0  0  0  0  0  0
    3.4118    7.1379  -20.5519 H   0  0  0  0  0  0
    4.8818    6.6542  -20.8890 H   0  0  0  0  0  0
    4.5670    8.7460  -19.4420 H   0  0  0  0  0  0
    4.2504    9.5403  -20.9706 H   0  0  0  0  0  0
    4.8101    7.6450  -23.1221 H   0  0  0  0  0  0
    3.1620    8.2080  -22.7440 H   0  0  0  0  0  0
    9.2225    7.6276  -19.6476 H   0  0  0  0  0  0
    6.8051    7.3462  -19.3252 H   0  0  0  0  0  0
    6.0650   10.3980  -22.2060 H   0  0  0  0  0  0
   11.0363    8.6486  -20.6366 H   0  0  0  0  0  0
   10.7610    9.1490  -22.3400 H   0  0  0  0  0  0
   10.7809   10.3815  -21.0341 H   0  0  0  0  0  0
  1  2  2  0  0  0
  1  3  1  0  0  0
  1 34  1  0  0  0
  2  6  1  0  0  0
  2 35  1  0  0  0
  3  5  2  0  0  0
  3 27  1  0  0  0
  4  5  1  0  0  0
  4  6  2  0  0  0
  4 18  1  0  0  0
  5 24  1  0  0  0
  6 10  1  0  0  0
  7 10  2  0  0  0
  7 23  1  0  0  0
  7 33  1  0  0  0
  8 21  1  0  0  0
  8 22  1  0  0  0
  8 36  1  0  0  0
  8 37  1  0  0  0
  9 21  1  0  0  0
  9 31  1  0  0  0
  9 38  1  0  0  0
  9 39  1  0  0  0
 10 40  1  0  0  0
 11 12  1  0  0  0
 11 14  2  0  0  0
 11 15  1  0  0  0
 12 17  1  0  0  0
 12 28  2  0  0  0
 13 28  1  0  0  0
 13 29  2  0  0  0
 13 55  1  0  0  0
 14 29  1  0  0  0
 14 31  1  0  0  0
 15 30  2  0  0  0
 15 41  1  0  0  0
 16 17  2  0  0  0
 16 18  1  0  0  0
 16 30  1  0  0  0
 17 26  1  0  0  0
 18 23  2  0  0  0
 19 20  1  0  0  0
 19 31  1  0  0  0
 19 42  1  0  0  0
 19 43  1  0  0  0
 20 22  1  0  0  0
 20 32  1  0  0  0
 20 44  1  0  0  0
 21 32  1  0  0  0
 21 45  1  0  0  0
 22 46  1  0  0  0
 22 47  1  0  0  0
 23 48  1  0  0  0
 24 25  3  0  0  0
 25 49  1  0  0  0
 32 50  1  0  0  0
 33 51  1  0  0  0
 52 57  1  0  0  0
 53 54  1  0  0  0
 53 55  1  0  0  0
 53 63  1  0  0  0
 53 64  1  0  0  0
 54 56  1  0  0  0
 54 65  1  0  0  0
 54 66  1  0  0  0
 55 67  1  0  0  0
 55 68  1  0  0  0
 56 59  2  0  0  0
 56 60  1  0  0  0
 57 60  2  0  0  0
 57 62  1  0  0  0
 58 59  1  0  0  0
 58 62  2  0  0  0
 58 69  1  0  0  0
 59 70  1  0  0  0
 60 71  1  0  0  0
 61 62  1  0  0  0
 61 72  1  0  0  0
 61 73  1  0  0  0
 61 74  1  0  0  0
M  CHG  1  53   1
M  END
> <s_m_entry_id>
331

> <s_m_entry_name>
000000331.1

> <s_m_Source_Path>
/Users/zaksoul/Documents/2

> <s_m_Source_File>
000000331.mol2

> <i_m_Source_File_Index>
1

$$$$
No_0_350
                    3D
 Schrodinger Suite 2022-4.
 71 77  0  0  1  0            999 V2000
   -5.0710    3.4220  -21.9950 C   0  0  0  0  0  0
   -5.3410    3.5880  -23.3330 C   0  0  0  0  0  0
   -3.8260    3.2140  -21.6490 C   0  0  0  0  0  0
   -2.9350    3.3490  -23.8140 C   0  0  0  0  0  0
   -2.7690    3.1240  -22.3910 C   0  0  0  0  0  0
   -4.2890    3.5610  -24.3400 C   0  0  0  0  0  0
   -3.5310    3.5870  -26.5370 C   0  0  0  0  0  0
    6.2060    3.2330  -21.2470 C   0  0  0  0  0  0
    6.0680    3.3460  -23.7980 C   0  0  0  0  0  0
   -4.5420    3.6670  -25.6770 C   0  0  0  0  0  0
    2.2670    3.7650  -23.8280 C   0  0  0  0  0  0
    1.4090    4.8480  -23.5410 C   0  0  0  0  0  0
    3.1640    6.1110  -22.8690 C   0  0  0  0  0  0
    3.6600    4.0060  -23.5140 C   0  0  0  0  0  0
    1.7610    2.6240  -24.4790 C   0  0  0  0  0  0
   -0.3930    3.3660  -24.3800 C   0  0  0  0  0  0
    0.0910    4.6090  -23.7920 C   0  0  0  0  0  0
   -1.8450    3.3200  -24.7370 C   0  0  0  0  0  0
    4.3490    1.5330  -23.1970 C   0  0  0  0  0  0
    5.2920    1.2200  -22.0450 C   0  0  2  0  0  0
    6.8330    2.8090  -22.5940 C   0  0  2  0  0  0
    5.2370    2.2320  -20.8880 C   0  0  0  0  0  0
   -2.1720    3.4540  -26.1670 C   0  0  0  0  0  0
   -1.4130    2.7620  -21.7860 C   0  0  0  0  0  0
   -0.3720    2.4540  -21.2750 C   0  0  0  0  0  0
   -0.7870    5.6290  -23.4590 F   0  0  0  0  0  0
   -3.6110    2.9920  -20.2650 F   0  0  0  0  0  0
    1.8450    6.0280  -23.0200 N   0  0  0  0  0  0
    4.0930    5.1770  -23.0790 N   0  0  0  0  0  0
    0.4590    2.4880  -24.7860 N   0  0  0  0  0  0
    4.6130    2.9880  -23.6790 N   0  0  0  0  0  0
    6.6960    1.3300  -22.5260 N   0  0  1  0  0  0
   -3.7010    3.5830  -27.9270 O   0  0  0  0  0  0
   -5.8765    3.4641  -21.2708 H   0  0  0  0  0  0
   -6.3610    3.7456  -23.6643 H   0  0  0  0  0  0
    5.7021    4.2034  -21.3672 H   0  0  0  0  0  0
    6.9902    3.2774  -20.4769 H   0  0  0  0  0  0
    6.4794    2.9064  -24.7186 H   0  0  0  0  0  0
    6.1750    4.4399  -23.8414 H   0  0  0  0  0  0
   -5.5572    3.8145  -26.0271 H   0  0  0  0  0  0
    2.4280    1.8144  -24.7522 H   0  0  0  0  0  0
    3.3079    1.4452  -22.8530 H   0  0  0  0  0  0
    4.5368    0.8334  -24.0248 H   0  0  0  0  0  0
    5.1012    0.2046  -21.6675 H   0  0  0  0  0  0
    7.8922    3.1018  -22.6415 H   0  0  0  0  0  0
    4.2373    2.6894  -20.8506 H   0  0  0  0  0  0
    5.5529    1.7375  -19.9576 H   0  0  0  0  0  0
   -1.4010    3.4530  -26.9290 H   0  0  0  0  0  0
    0.5444    2.1829  -20.8258 H   0  0  0  0  0  0
    7.3586    0.8619  -21.8131 H   0  0  0  0  0  0
   -2.8530    3.5197  -28.3505 H   0  0  0  0  0  0
    9.5980   10.2830  -22.2140 F   0  0  0  0  0  0
    4.0130    7.4800  -20.9450 N   0  3  0  0  0  0
    5.8710    9.1980  -20.8930 C   0  0  0  0  0  0
    3.6770    7.4720  -22.4130 C   0  0  0  0  0  0
    4.4860    8.8040  -20.4000 C   0  0  0  0  0  0
    8.2460    9.1810  -20.6310 C   0  0  0  0  0  0
    7.2600   10.3060  -22.4890 C   0  0  0  0  0  0
    6.9940    8.8190  -20.1890 C   0  0  0  0  0  0
    6.0110    9.9440  -22.0440 C   0  0  0  0  0  0
    8.3800    9.9270  -21.7820 C   0  0  0  0  0  0
    4.7097    6.7753  -20.7601 H   0  0  0  0  0  0
    3.2116    7.1688  -20.4187 H   0  0  0  0  0  0
    4.5711    7.7400  -22.9951 H   0  0  0  0  0  0
    2.9143    8.2377  -22.6179 H   0  0  0  0  0  0
    4.4870    8.7660  -19.3007 H   0  0  0  0  0  0
    3.7641    9.5889  -20.6700 H   0  0  0  0  0  0
    9.1256    8.8798  -20.0736 H   0  0  0  0  0  0
    7.3640   10.8908  -23.3958 H   0  0  0  0  0  0
    6.8930    8.2310  -19.2840 H   0  0  0  0  0  0
    5.1330   10.2470  -22.6030 H   0  0  0  0  0  0
  1  2  2  0  0  0
  1  3  1  0  0  0
  1 34  1  0  0  0
  2  6  1  0  0  0
  2 35  1  0  0  0
  3  5  2  0  0  0
  3 27  1  0  0  0
  4  5  1  0  0  0
  4  6  2  0  0  0
  4 18  1  0  0  0
  5 24  1  0  0  0
  6 10  1  0  0  0
  7 10  2  0  0  0
  7 23  1  0  0  0
  7 33  1  0  0  0
  8 21  1  0  0  0
  8 22  1  0  0  0
  8 36  1  0  0  0
  8 37  1  0  0  0
  9 21  1  0  0  0
  9 31  1  0  0  0
  9 38  1  0  0  0
  9 39  1  0  0  0
 10 40  1  0  0  0
 11 12  1  0  0  0
 11 14  2  0  0  0
 11 15  1  0  0  0
 12 17  1  0  0  0
 12 28  2  0  0  0
 13 28  1  0  0  0
 13 29  2  0  0  0
 13 55  1  0  0  0
 14 29  1  0  0  0
 14 31  1  0  0  0
 15 30  2  0  0  0
 15 41  1  0  0  0
 16 17  2  0  0  0
 16 18  1  0  0  0
 16 30  1  0  0  0
 17 26  1  0  0  0
 18 23  2  0  0  0
 19 20  1  0  0  0
 19 31  1  0  0  0
 19 42  1  0  0  0
 19 43  1  0  0  0
 20 22  1  0  0  0
 20 32  1  0  0  0
 20 44  1  0  0  0
 21 32  1  0  0  0
 21 45  1  0  0  0
 22 46  1  0  0  0
 22 47  1  0  0  0
 23 48  1  0  0  0
 24 25  3  0  0  0
 25 49  1  0  0  0
 32 50  1  0  0  0
 33 51  1  0  0  0
 52 61  1  0  0  0
 53 55  1  0  0  0
 53 56  1  0  0  0
 53 62  1  0  0  0
 53 63  1  0  0  0
 54 56  1  0  0  0
 54 59  2  0  0  0
 54 60  1  0  0  0
 55 64  1  0  0  0
 55 65  1  0  0  0
 56 66  1  0  0  0
 56 67  1  0  0  0
 57 59  1  0  0  0
 57 61  2  0  0  0
 57 68  1  0  0  0
 58 60  2  0  0  0
 58 61  1  0  0  0
 58 69  1  0  0  0
 59 70  1  0  0  0
 60 71  1  0  0  0
M  CHG  1  53   1
M  END
> <s_m_entry_id>
332

> <s_m_entry_name>
000000332.1

> <s_m_Source_Path>
/Users/zaksoul/Documents/2

> <s_m_Source_File>
000000332.mol2

> <i_m_Source_File_Index>
1

$$$$
No_0_351
                    3D
 Schrodinger Suite 2022-4.
 73 79  0  0  1  0            999 V2000
   -5.2110    3.6820  -22.3760 C   0  0  0  0  0  0
   -5.4210    3.8330  -23.7260 C   0  0  0  0  0  0
   -3.9880    3.4430  -21.9760 C   0  0  0  0  0  0
   -3.0070    3.5120  -24.1050 C   0  0  0  0  0  0
   -2.9050    3.3070  -22.6730 C   0  0  0  0  0  0
   -4.3320    3.7550  -24.6900 C   0  0  0  0  0  0
   -3.4850    3.7180  -26.8540 C   0  0  0  0  0  0
    6.0160    3.1620  -21.1670 C   0  0  0  0  0  0
    5.9840    3.2330  -23.7230 C   0  0  0  0  0  0
   -4.5270    3.8450  -26.0370 C   0  0  0  0  0  0
    2.2030    3.7680  -23.9140 C   0  0  0  0  0  0
    1.3670    4.8820  -23.6810 C   0  0  0  0  0  0
    3.1330    6.1020  -22.9600 C   0  0  0  0  0  0
    3.5880    3.9720  -23.5480 C   0  0  0  0  0  0
    1.6870    2.6310  -24.5660 C   0  0  0  0  0  0
   -0.4450    3.4400  -24.5670 C   0  0  0  0  0  0
    0.0540    4.6790  -23.9810 C   0  0  0  0  0  0
   -1.8820    3.4320  -24.9830 C   0  0  0  0  0  0
    4.1860    1.4850  -23.1610 C   0  0  0  0  0  0
    5.0710    1.1640  -21.9670 C   0  0  2  0  0  0
    6.6820    2.6950  -22.4790 C   0  0  2  0  0  0
    5.0020    2.1980  -20.8300 C   0  0  0  0  0  0
   -2.1470    3.5500  -26.4270 C   0  0  0  0  0  0
   -1.5860    2.9150  -22.0070 C   0  0  0  0  0  0
   -0.5770    2.5850  -21.4490 C   0  0  0  0  0  0
   -0.8040    5.7300  -23.7020 F   0  0  0  0  0  0
   -3.8350    3.2400  -20.5800 F   0  0  0  0  0  0
    1.8190    6.0570  -23.1620 N   0  0  0  0  0  0
    4.0400    5.1360  -23.1150 N   0  0  0  0  0  0
    0.3950    2.5290  -24.9230 N   0  0  0  0  0  0
    4.5150    2.9220  -23.6570 N   0  0  0  0  0  0
    6.4970    1.2230  -22.3910 N   0  0  1  0  0  0
   -3.5990    3.6930  -28.2490 O   0  0  0  0  0  0
   -6.0428    3.7633  -21.6857 H   0  0  0  0  0  0
   -6.4214    4.0156  -24.1013 H   0  0  0  0  0  0
    5.5477    4.1450  -21.3234 H   0  0  0  0  0  0
    6.7688    3.1963  -20.3657 H   0  0  0  0  0  0
    6.4180    2.7637  -24.6182 H   0  0  0  0  0  0
    6.1263    4.3222  -23.7805 H   0  0  0  0  0  0
   -5.5223    4.0167  -26.4307 H   0  0  0  0  0  0
    2.3388    1.7965  -24.7980 H   0  0  0  0  0  0
    3.1297    1.4346  -22.8583 H   0  0  0  0  0  0
    4.3848    0.7646  -23.9682 H   0  0  0  0  0  0
    4.8339    0.1622  -21.5796 H   0  0  0  0  0  0
    7.7510    2.9542  -22.4881 H   0  0  0  0  0  0
    4.0166    2.6867  -20.8411 H   0  0  0  0  0  0
    5.2644    1.7106  -19.8794 H   0  0  0  0  0  0
   -1.3457    3.5118  -27.1560 H   0  0  0  0  0  0
    0.3113    2.2939  -20.9578 H   0  0  0  0  0  0
    7.1153    0.7470  -21.6443 H   0  0  0  0  0  0
   -2.7372    3.5960  -28.6369 H   0  0  0  0  0  0
    3.9440    7.4710  -21.0250 N   0  3  0  0  0  0
    9.5370   10.3080  -22.3810 N   0  0  0  0  0  0
    3.6700    7.4550  -22.5060 C   0  0  0  0  0  0
    5.7850    9.1950  -20.9770 C   0  0  0  0  0  0
    4.4090    8.7910  -20.4670 C   0  0  0  0  0  0
    6.9220    8.7560  -20.3340 C   0  0  0  0  0  0
    5.8980   10.0040  -22.0880 C   0  0  0  0  0  0
    8.1640    9.1220  -20.7950 C   0  0  0  0  0  0
    7.1360   10.3720  -22.5550 C   0  0  0  0  0  0
    8.2790    9.9340  -21.9100 C   0  0  0  0  0  0
    4.6219    6.7581  -20.8050 H   0  0  0  0  0  0
    3.1183    7.1721  -20.5302 H   0  0  0  0  0  0
    9.6170   10.9129  -23.2108 H   0  0  0  0  0  0
   10.3857    9.9801  -21.8982 H   0  0  0  0  0  0
    4.5968    7.6830  -23.0529 H   0  0  0  0  0  0
    2.9386    8.2393  -22.7508 H   0  0  0  0  0  0
    4.4280    8.7380  -19.3684 H   0  0  0  0  0  0
    3.6802    9.5738  -20.7239 H   0  0  0  0  0  0
    6.8391    8.1194  -19.4605 H   0  0  0  0  0  0
    5.0063   10.3519  -22.5968 H   0  0  0  0  0  0
    9.0557    8.7741  -20.2862 H   0  0  0  0  0  0
    7.2190   11.0062  -23.4302 H   0  0  0  0  0  0
  1  2  2  0  0  0
  1  3  1  0  0  0
  1 34  1  0  0  0
  2  6  1  0  0  0
  2 35  1  0  0  0
  3  5  2  0  0  0
  3 27  1  0  0  0
  4  5  1  0  0  0
  4  6  2  0  0  0
  4 18  1  0  0  0
  5 24  1  0  0  0
  6 10  1  0  0  0
  7 10  2  0  0  0
  7 23  1  0  0  0
  7 33  1  0  0  0
  8 21  1  0  0  0
  8 22  1  0  0  0
  8 36  1  0  0  0
  8 37  1  0  0  0
  9 21  1  0  0  0
  9 31  1  0  0  0
  9 38  1  0  0  0
  9 39  1  0  0  0
 10 40  1  0  0  0
 11 12  1  0  0  0
 11 14  2  0  0  0
 11 15  1  0  0  0
 12 17  1  0  0  0
 12 28  2  0  0  0
 13 28  1  0  0  0
 13 29  2  0  0  0
 13 54  1  0  0  0
 14 29  1  0  0  0
 14 31  1  0  0  0
 15 30  2  0  0  0
 15 41  1  0  0  0
 16 17  2  0  0  0
 16 18  1  0  0  0
 16 30  1  0  0  0
 17 26  1  0  0  0
 18 23  2  0  0  0
 19 20  1  0  0  0
 19 31  1  0  0  0
 19 42  1  0  0  0
 19 43  1  0  0  0
 20 22  1  0  0  0
 20 32  1  0  0  0
 20 44  1  0  0  0
 21 32  1  0  0  0
 21 45  1  0  0  0
 22 46  1  0  0  0
 22 47  1  0  0  0
 23 48  1  0  0  0
 24 25  3  0  0  0
 25 49  1  0  0  0
 32 50  1  0  0  0
 33 51  1  0  0  0
 52 54  1  0  0  0
 52 56  1  0  0  0
 52 62  1  0  0  0
 52 63  1  0  0  0
 53 61  1  0  0  0
 53 64  1  0  0  0
 53 65  1  0  0  0
 54 66  1  0  0  0
 54 67  1  0  0  0
 55 56  1  0  0  0
 55 57  2  0  0  0
 55 58  1  0  0  0
 56 68  1  0  0  0
 56 69  1  0  0  0
 57 59  1  0  0  0
 57 70  1  0  0  0
 58 60  2  0  0  0
 58 71  1  0  0  0
 59 61  2  0  0  0
 59 72  1  0  0  0
 60 61  1  0  0  0
 60 73  1  0  0  0
M  CHG  1  52   1
M  END
> <s_m_entry_id>
333

> <s_m_entry_name>
000000333.1

> <s_m_Source_Path>
/Users/zaksoul/Documents/2

> <s_m_Source_File>
000000333.mol2

> <i_m_Source_File_Index>
1

$$$$
No_0_352
                    3D
 Schrodinger Suite 2022-4.
 71 77  0  0  1  0            999 V2000
   -5.2210    3.6750  -21.8340 C   0  0  0  0  0  0
   -5.4720    3.8360  -23.1760 C   0  0  0  0  0  0
   -3.9880    3.4180  -21.4760 C   0  0  0  0  0  0
   -3.0760    3.4860  -23.6350 C   0  0  0  0  0  0
   -2.9300    3.2730  -22.2080 C   0  0  0  0  0  0
   -4.4160    3.7500  -24.1750 C   0  0  0  0  0  0
   -3.6400    3.7150  -26.3660 C   0  0  0  0  0  0
    6.0320    3.0060  -20.9920 C   0  0  0  0  0  0
    5.9190    3.0920  -23.5460 C   0  0  0  0  0  0
   -4.6530    3.8500  -25.5150 C   0  0  0  0  0  0
    2.1400    3.6760  -23.6110 C   0  0  0  0  0  0
    1.3270    4.7990  -23.3450 C   0  0  0  0  0  0
    3.1310    5.9930  -22.6750 C   0  0  0  0  0  0
    3.5390    3.8610  -23.2890 C   0  0  0  0  0  0
    1.5890    2.5500  -24.2520 C   0  0  0  0  0  0
   -0.5310    3.3860  -24.1800 C   0  0  0  0  0  0
    0.0020    4.6140  -23.6040 C   0  0  0  0  0  0
   -1.9810    3.3980  -24.5490 C   0  0  0  0  0  0
    4.1170    1.3640  -22.9350 C   0  0  0  0  0  0
    5.0370    1.0250  -21.7720 C   0  0  2  0  0  0
    6.6500    2.5380  -22.3280 C   0  0  2  0  0  0
    5.0180    2.0530  -20.6280 C   0  0  0  0  0  0
   -2.2910    3.5280  -25.9830 C   0  0  0  0  0  0
   -1.5960    2.8600  -21.5870 C   0  0  0  0  0  0
   -0.5730    2.5140  -21.0640 C   0  0  0  0  0  0
   -0.8330    5.6750  -23.2910 F   0  0  0  0  0  0
   -3.7930    3.2050  -20.0870 F   0  0  0  0  0  0
    1.8110    5.9650  -22.8350 N   0  0  0  0  0  0
    4.0190    5.0170  -22.8650 N   0  0  0  0  0  0
    0.2850    2.4660  -24.5680 N   0  0  0  0  0  0
    4.4490    2.8000  -23.4340 N   0  0  0  0  0  0
    6.4490    1.0680  -22.2430 N   0  0  1  0  0  0
   -3.8000    3.7000  -27.7570 O   0  0  0  0  0  0
   -6.0288    3.7623  -21.1165 H   0  0  0  0  0  0
   -6.4814    4.0337  -23.5182 H   0  0  0  0  0  0
    5.5720    3.9957  -21.1292 H   0  0  0  0  0  0
    6.8112    3.0262  -20.2158 H   0  0  0  0  0  0
    6.3179    2.6235  -24.4578 H   0  0  0  0  0  0
    6.0724    4.1798  -23.6015 H   0  0  0  0  0  0
   -5.6582    4.0366  -25.8752 H   0  0  0  0  0  0
    2.2223    1.7089  -24.5099 H   0  0  0  0  0  0
    3.0703    1.3256  -22.5989 H   0  0  0  0  0  0
    4.2805    0.6464  -23.7525 H   0  0  0  0  0  0
    4.7988    0.0239  -21.3834 H   0  0  0  0  0  0
    7.7212    2.7844  -22.3704 H   0  0  0  0  0  0
    4.0392    2.5545  -20.6048 H   0  0  0  0  0  0
    5.3046    1.5576  -19.6886 H   0  0  0  0  0  0
   -1.5147    3.4838  -26.7382 H   0  0  0  0  0  0
    0.3268    2.2091  -20.6031 H   0  0  0  0  0  0
    7.0845    0.5802  -21.5187 H   0  0  0  0  0  0
   -2.9522    3.5942  -28.1725 H   0  0  0  0  0  0
    4.0200    7.3360  -20.7600 N   0  0  1  0  0  0
    5.9150    9.4960  -22.0490 N   0  0  0  0  0  0
    9.5200   10.1150  -22.3000 N   0  0  0  0  0  0
    3.6990    7.3370  -22.2320 C   0  0  0  0  0  0
    4.5260    8.6430  -20.2080 C   0  0  0  0  0  0
    5.8760    9.0310  -20.7850 C   0  0  0  0  0  0
    6.9870    8.8890  -19.9840 C   0  0  0  0  0  0
    8.2920    9.7310  -21.7600 C   0  0  0  0  0  0
    8.2130    9.2430  -20.4750 C   0  0  0  0  0  0
    7.1340    9.8370  -22.5060 C   0  0  0  0  0  0
    3.1315    7.0901  -20.1973 H   0  0  0  0  0  0
    9.5680   10.4800  -23.2620 H   0  0  0  0  0  0
   10.3780   10.0340  -21.7360 H   0  0  0  0  0  0
    4.6118    7.5549  -22.8059 H   0  0  0  0  0  0
    2.9689    8.1311  -22.4470 H   0  0  0  0  0  0
    4.6020    8.5720  -19.1129 H   0  0  0  0  0  0
    3.7951    9.4369  -20.4210 H   0  0  0  0  0  0
    6.8830    8.5002  -18.9775 H   0  0  0  0  0  0
    9.0963    9.1360  -19.8558 H   0  0  0  0  0  0
    7.2480   10.2190  -23.5140 H   0  0  0  0  0  0
  1  2  2  0  0  0
  1  3  1  0  0  0
  1 34  1  0  0  0
  2  6  1  0  0  0
  2 35  1  0  0  0
  3  5  2  0  0  0
  3 27  1  0  0  0
  4  5  1  0  0  0
  4  6  2  0  0  0
  4 18  1  0  0  0
  5 24  1  0  0  0
  6 10  1  0  0  0
  7 10  2  0  0  0
  7 23  1  0  0  0
  7 33  1  0  0  0
  8 21  1  0  0  0
  8 22  1  0  0  0
  8 36  1  0  0  0
  8 37  1  0  0  0
  9 21  1  0  0  0
  9 31  1  0  0  0
  9 38  1  0  0  0
  9 39  1  0  0  0
 10 40  1  0  0  0
 11 12  1  0  0  0
 11 14  2  0  0  0
 11 15  1  0  0  0
 12 17  1  0  0  0
 12 28  2  0  0  0
 13 28  1  0  0  0
 13 29  2  0  0  0
 13 55  1  0  0  0
 14 29  1  0  0  0
 14 31  1  0  0  0
 15 30  2  0  0  0
 15 41  1  0  0  0
 16 17  2  0  0  0
 16 18  1  0  0  0
 16 30  1  0  0  0
 17 26  1  0  0  0
 18 23  2  0  0  0
 19 20  1  0  0  0
 19 31  1  0  0  0
 19 42  1  0  0  0
 19 43  1  0  0  0
 20 22  1  0  0  0
 20 32  1  0  0  0
 20 44  1  0  0  0
 21 32  1  0  0  0
 21 45  1  0  0  0
 22 46  1  0  0  0
 22 47  1  0  0  0
 23 48  1  0  0  0
 24 25  3  0  0  0
 25 49  1  0  0  0
 32 50  1  0  0  0
 33 51  1  0  0  0
 52 55  1  0  0  0
 52 56  1  0  0  0
 52 62  1  0  0  0
 53 57  2  0  0  0
 53 61  1  0  0  0
 54 59  1  0  0  0
 54 63  1  0  0  0
 54 64  1  0  0  0
 55 65  1  0  0  0
 55 66  1  0  0  0
 56 57  1  0  0  0
 56 67  1  0  0  0
 56 68  1  0  0  0
 57 58  1  0  0  0
 58 60  2  0  0  0
 58 69  1  0  0  0
 59 60  1  0  0  0
 59 61  2  0  0  0
 60 70  1  0  0  0
 61 71  1  0  0  0
M  END
> <s_m_entry_id>
334

> <s_m_entry_name>
000000334.1

> <s_m_Source_Path>
/Users/zaksoul/Documents/2

> <s_m_Source_File>
000000334.mol2

> <i_m_Source_File_Index>
1

$$$$
No_0_353
                    3D
 Schrodinger Suite 2022-4.
 71 77  0  0  1  0            999 V2000
   -5.2080    3.3150  -22.2420 C   0  0  0  0  0  0
   -5.4510    3.4960  -23.5830 C   0  0  0  0  0  0
   -3.9700    3.1030  -21.8740 C   0  0  0  0  0  0
   -3.0360    3.2620  -24.0190 C   0  0  0  0  0  0
   -2.8980    3.0210  -22.5950 C   0  0  0  0  0  0
   -4.3790    3.4800  -24.5690 C   0  0  0  0  0  0
   -3.5760    3.5300  -26.7500 C   0  0  0  0  0  0
    6.0520    3.1140  -21.2700 C   0  0  0  0  0  0
    5.9660    3.2550  -23.8220 C   0  0  0  0  0  0
   -4.6050    3.6010  -25.9100 C   0  0  0  0  0  0
    2.1660    3.6760  -23.9230 C   0  0  0  0  0  0
    1.3020    4.7560  -23.6410 C   0  0  0  0  0  0
    3.0440    6.0110  -22.9210 C   0  0  0  0  0  0
    3.5520    3.9130  -23.5780 C   0  0  0  0  0  0
    1.6720    2.5430  -24.5970 C   0  0  0  0  0  0
   -0.4830    3.2840  -24.5330 C   0  0  0  0  0  0
   -0.0110    4.5200  -23.9220 C   0  0  0  0  0  0
   -1.9270    3.2420  -24.9200 C   0  0  0  0  0  0
    4.2340    1.4370  -23.2750 C   0  0  0  0  0  0
    5.1530    1.1110  -22.1080 C   0  0  2  0  0  0
    6.7060    2.7050  -22.6080 C   0  0  2  0  0  0
    5.0760    2.1090  -20.9410 C   0  0  0  0  0  0
   -2.2260    3.3930  -26.3550 C   0  0  0  0  0  0
   -1.5550    2.6520  -21.9670 C   0  0  0  0  0  0
   -0.5240    2.3380  -21.4390 C   0  0  0  0  0  0
   -0.8950    5.5360  -23.5950 F   0  0  0  0  0  0
   -3.7820    2.8650  -20.4870 F   0  0  0  0  0  0
    1.7280    5.9300  -23.0980 N   0  0  0  0  0  0
    3.9760    5.0790  -23.1220 N   0  0  0  0  0  0
    0.3770    2.4100  -24.9310 N   0  0  0  0  0  0
    4.5080    2.8970  -23.7360 N   0  0  0  0  0  0
    6.5680    1.2250  -22.5590 N   0  0  1  0  0  0
   -3.7190    3.5410  -28.1430 O   0  0  0  0  0  0
   -6.0278    3.3501  -21.5336 H   0  0  0  0  0  0
   -6.4640    3.6576  -23.9334 H   0  0  0  0  0  0
    5.5513    4.0862  -21.3891 H   0  0  0  0  0  0
    6.8198    3.1493  -20.4831 H   0  0  0  0  0  0
    6.3952    2.8248  -24.7389 H   0  0  0  0  0  0
    6.0729    4.3494  -23.8502 H   0  0  0  0  0  0
   -5.6131    3.7526  -26.2785 H   0  0  0  0  0  0
    2.3444    1.7361  -24.8650 H   0  0  0  0  0  0
    3.1862    1.3451  -22.9530 H   0  0  0  0  0  0
    4.4378    0.7460  -24.1062 H   0  0  0  0  0  0
    4.9553    0.0913  -21.7459 H   0  0  0  0  0  0
    7.7661    2.9978  -22.6302 H   0  0  0  0  0  0
    4.0758    2.5662  -20.9188 H   0  0  0  0  0  0
    5.3727    1.6045  -20.0096 H   0  0  0  0  0  0
   -1.4392    3.4000  -27.1006 H   0  0  0  0  0  0
    0.3827    2.0621  -20.9732 H   0  0  0  0  0  0
    7.2159    0.7482  -21.8384 H   0  0  0  0  0  0
   -2.8624    3.4817  -28.5495 H   0  0  0  0  0  0
    4.1880    7.2610  -21.0790 N   0  0  1  0  0  0
    5.5010    9.7740  -22.4510 N   0  0  0  0  0  0
    8.8690   10.8910  -23.3720 N   0  0  0  0  0  0
    3.5470    7.3670  -22.4390 C   0  0  0  0  0  0
    4.6600    8.5620  -20.4840 C   0  0  0  0  0  0
    5.7960    9.1830  -21.2770 C   0  0  0  0  0  0
    7.0670    9.1110  -20.7520 C   0  0  0  0  0  0
    7.8420   10.2940  -22.6400 C   0  0  0  0  0  0
    8.1060    9.6730  -21.4400 C   0  0  0  0  0  0
    6.5430   10.3190  -23.1070 C   0  0  0  0  0  0
    3.4796    6.8438  -20.3786 H   0  0  0  0  0  0
    8.6611   11.3537  -24.2684 H   0  0  0  0  0  0
    9.8353   10.8700  -23.0159 H   0  0  0  0  0  0
    4.2789    7.7620  -23.1589 H   0  0  0  0  0  0
    2.7066    8.0753  -22.3940 H   0  0  0  0  0  0
    4.9859    8.3920  -19.4472 H   0  0  0  0  0  0
    3.8184    9.2687  -20.4360 H   0  0  0  0  0  0
    7.2340    8.6129  -19.8038 H   0  0  0  0  0  0
    9.1115    9.6230  -21.0382 H   0  0  0  0  0  0
    6.3859   10.8122  -24.0594 H   0  0  0  0  0  0
  1  2  2  0  0  0
  1  3  1  0  0  0
  1 34  1  0  0  0
  2  6  1  0  0  0
  2 35  1  0  0  0
  3  5  2  0  0  0
  3 27  1  0  0  0
  4  5  1  0  0  0
  4  6  2  0  0  0
  4 18  1  0  0  0
  5 24  1  0  0  0
  6 10  1  0  0  0
  7 10  2  0  0  0
  7 23  1  0  0  0
  7 33  1  0  0  0
  8 21  1  0  0  0
  8 22  1  0  0  0
  8 36  1  0  0  0
  8 37  1  0  0  0
  9 21  1  0  0  0
  9 31  1  0  0  0
  9 38  1  0  0  0
  9 39  1  0  0  0
 10 40  1  0  0  0
 11 12  1  0  0  0
 11 14  2  0  0  0
 11 15  1  0  0  0
 12 17  1  0  0  0
 12 28  2  0  0  0
 13 28  1  0  0  0
 13 29  2  0  0  0
 13 55  1  0  0  0
 14 29  1  0  0  0
 14 31  1  0  0  0
 15 30  2  0  0  0
 15 41  1  0  0  0
 16 17  2  0  0  0
 16 18  1  0  0  0
 16 30  1  0  0  0
 17 26  1  0  0  0
 18 23  2  0  0  0
 19 20  1  0  0  0
 19 31  1  0  0  0
 19 42  1  0  0  0
 19 43  1  0  0  0
 20 22  1  0  0  0
 20 32  1  0  0  0
 20 44  1  0  0  0
 21 32  1  0  0  0
 21 45  1  0  0  0
 22 46  1  0  0  0
 22 47  1  0  0  0
 23 48  1  0  0  0
 24 25  3  0  0  0
 25 49  1  0  0  0
 32 50  1  0  0  0
 33 51  1  0  0  0
 52 55  1  0  0  0
 52 56  1  0  0  0
 52 62  1  0  0  0
 53 57  2  0  0  0
 53 61  1  0  0  0
 54 59  1  0  0  0
 54 63  1  0  0  0
 54 64  1  0  0  0
 55 65  1  0  0  0
 55 66  1  0  0  0
 56 57  1  0  0  0
 56 67  1  0  0  0
 56 68  1  0  0  0
 57 58  1  0  0  0
 58 60  2  0  0  0
 58 69  1  0  0  0
 59 60  1  0  0  0
 59 61  2  0  0  0
 60 70  1  0  0  0
 61 71  1  0  0  0
M  END
> <s_m_entry_id>
335

> <s_m_entry_name>
000000335.1

> <s_m_Source_Path>
/Users/zaksoul/Documents/2

> <s_m_Source_File>
000000335.mol2

> <i_m_Source_File_Index>
1

$$$$
No_0_354
                    3D
 Schrodinger Suite 2022-4.
 71 77  0  0  1  0            999 V2000
   -5.3210    3.2450  -22.0620 C   0  0  0  0  0  0
   -5.5650    3.4290  -23.4020 C   0  0  0  0  0  0
   -4.0820    3.0320  -21.6950 C   0  0  0  0  0  0
   -3.1510    3.1950  -23.8420 C   0  0  0  0  0  0
   -3.0120    2.9520  -22.4190 C   0  0  0  0  0  0
   -4.4950    3.4140  -24.3900 C   0  0  0  0  0  0
   -3.6950    3.4680  -26.5720 C   0  0  0  0  0  0
    5.9410    3.0420  -21.1050 C   0  0  0  0  0  0
    5.8510    3.1870  -23.6570 C   0  0  0  0  0  0
   -4.7220    3.5370  -25.7300 C   0  0  0  0  0  0
    2.0510    3.6090  -23.7520 C   0  0  0  0  0  0
    1.1880    4.6880  -23.4680 C   0  0  0  0  0  0
    2.9300    5.9410  -22.7470 C   0  0  0  0  0  0
    3.4370    3.8450  -23.4090 C   0  0  0  0  0  0
    1.5560    2.4760  -24.4270 C   0  0  0  0  0  0
   -0.5990    3.2180  -24.3590 C   0  0  0  0  0  0
   -0.1260    4.4530  -23.7470 C   0  0  0  0  0  0
   -2.0430    3.1770  -24.7440 C   0  0  0  0  0  0
    4.1200    1.3680  -23.1100 C   0  0  0  0  0  0
    5.0410    1.0400  -21.9450 C   0  0  2  0  0  0
    6.5920    2.6340  -22.4450 C   0  0  2  0  0  0
    4.9650    2.0370  -20.7760 C   0  0  0  0  0  0
   -2.3440    3.3290  -26.1780 C   0  0  0  0  0  0
   -1.6670    2.5810  -21.7930 C   0  0  0  0  0  0
   -0.6360    2.2670  -21.2660 C   0  0  0  0  0  0
   -1.0090    5.4690  -23.4170 F   0  0  0  0  0  0
   -3.8930    2.7930  -20.3100 F   0  0  0  0  0  0
    1.6140    5.8610  -22.9230 N   0  0  0  0  0  0
    3.8630    5.0100  -22.9510 N   0  0  0  0  0  0
    0.2600    2.3440  -24.7600 N   0  0  0  0  0  0
    4.3940    2.8290  -23.5690 N   0  0  0  0  0  0
    6.4540    1.1550  -22.3980 N   0  0  1  0  0  0
   -3.8390    3.4810  -27.9650 O   0  0  0  0  0  0
   -6.1389    3.2791  -21.3515 H   0  0  0  0  0  0
   -6.5784    3.5905  -23.7512 H   0  0  0  0  0  0
    5.4394    4.0139  -21.2221 H   0  0  0  0  0  0
    6.7103    3.0763  -20.3195 H   0  0  0  0  0  0
    6.2793    2.7587  -24.5752 H   0  0  0  0  0  0
    5.9579    4.2815  -23.6842 H   0  0  0  0  0  0
   -5.7304    3.6895  -26.0972 H   0  0  0  0  0  0
    2.2284    1.6701  -24.6980 H   0  0  0  0  0  0
    3.0725    1.2762  -22.7871 H   0  0  0  0  0  0
    4.3229    0.6786  -23.9428 H   0  0  0  0  0  0
    4.8423    0.0202  -21.5839 H   0  0  0  0  0  0
    7.6519    2.9275  -22.4682 H   0  0  0  0  0  0
    3.9648    2.4942  -20.7528 H   0  0  0  0  0  0
    5.2628    1.5302  -19.8462 H   0  0  0  0  0  0
   -1.5582    3.3380  -26.9247 H   0  0  0  0  0  0
    0.2716    1.9898  -20.8027 H   0  0  0  0  0  0
    7.1032    0.6770  -21.6793 H   0  0  0  0  0  0
   -2.9829    3.4226  -28.3727 H   0  0  0  0  0  0
    4.3830    7.1450  -21.1030 N   0  0  1  0  0  0
    5.1530    9.8670  -22.4880 N   0  0  0  0  0  0
    8.1220   11.3580  -24.0400 N   0  0  0  0  0  0
    3.4350    7.2970  -22.2640 C   0  0  0  0  0  0
    4.8870    8.4340  -20.5080 C   0  0  0  0  0  0
    5.7580    9.2170  -21.4750 C   0  0  0  0  0  0
    7.1180    9.2210  -21.2630 C   0  0  0  0  0  0
    7.3420   10.6140  -23.1540 C   0  0  0  0  0  0
    7.9240    9.9280  -22.1120 C   0  0  0  0  0  0
    5.9700   10.5540  -23.3080 C   0  0  0  0  0  0
    3.8909    6.6119  -20.3029 H   0  0  0  0  0  0
    7.6767   11.8674  -24.8166 H   0  0  0  0  0  0
    9.1439   11.3970  -23.9170 H   0  0  0  0  0  0
    3.9471    7.8121  -23.0901 H   0  0  0  0  0  0
    2.5801    7.9189  -21.9600 H   0  0  0  0  0  0
    5.4597    8.2161  -19.5945 H   0  0  0  0  0  0
    4.0319    9.0541  -20.2010 H   0  0  0  0  0  0
    7.5380    8.6690  -20.4300 H   0  0  0  0  0  0
    8.9968    9.9400  -21.9569 H   0  0  0  0  0  0
    5.5590   11.1039  -24.1469 H   0  0  0  0  0  0
  1  2  2  0  0  0
  1  3  1  0  0  0
  1 34  1  0  0  0
  2  6  1  0  0  0
  2 35  1  0  0  0
  3  5  2  0  0  0
  3 27  1  0  0  0
  4  5  1  0  0  0
  4  6  2  0  0  0
  4 18  1  0  0  0
  5 24  1  0  0  0
  6 10  1  0  0  0
  7 10  2  0  0  0
  7 23  1  0  0  0
  7 33  1  0  0  0
  8 21  1  0  0  0
  8 22  1  0  0  0
  8 36  1  0  0  0
  8 37  1  0  0  0
  9 21  1  0  0  0
  9 31  1  0  0  0
  9 38  1  0  0  0
  9 39  1  0  0  0
 10 40  1  0  0  0
 11 12  1  0  0  0
 11 14  2  0  0  0
 11 15  1  0  0  0
 12 17  1  0  0  0
 12 28  2  0  0  0
 13 28  1  0  0  0
 13 29  2  0  0  0
 13 55  1  0  0  0
 14 29  1  0  0  0
 14 31  1  0  0  0
 15 30  2  0  0  0
 15 41  1  0  0  0
 16 17  2  0  0  0
 16 18  1  0  0  0
 16 30  1  0  0  0
 17 26  1  0  0  0
 18 23  2  0  0  0
 19 20  1  0  0  0
 19 31  1  0  0  0
 19 42  1  0  0  0
 19 43  1  0  0  0
 20 22  1  0  0  0
 20 32  1  0  0  0
 20 44  1  0  0  0
 21 32  1  0  0  0
 21 45  1  0  0  0
 22 46  1  0  0  0
 22 47  1  0  0  0
 23 48  1  0  0  0
 24 25  3  0  0  0
 25 49  1  0  0  0
 32 50  1  0  0  0
 33 51  1  0  0  0
 52 55  1  0  0  0
 52 56  1  0  0  0
 52 62  1  0  0  0
 53 57  2  0  0  0
 53 61  1  0  0  0
 54 59  1  0  0  0
 54 63  1  0  0  0
 54 64  1  0  0  0
 55 65  1  0  0  0
 55 66  1  0  0  0
 56 57  1  0  0  0
 56 67  1  0  0  0
 56 68  1  0  0  0
 57 58  1  0  0  0
 58 60  2  0  0  0
 58 69  1  0  0  0
 59 60  1  0  0  0
 59 61  2  0  0  0
 60 70  1  0  0  0
 61 71  1  0  0  0
M  END
> <s_m_entry_id>
336

> <s_m_entry_name>
000000336.1

> <s_m_Source_Path>
/Users/zaksoul/Documents/2

> <s_m_Source_File>
000000336.mol2

> <i_m_Source_File_Index>
1

$$$$
No_0_355
                    3D
 Schrodinger Suite 2022-4.
 72 78  0  0  1  0            999 V2000
   -5.2260    3.6530  -22.0890 C   0  0  0  0  0  0
   -5.4900    3.8240  -23.4280 C   0  0  0  0  0  0
   -3.9900    3.3940  -21.7440 C   0  0  0  0  0  0
   -3.0960    3.4810  -23.9100 C   0  0  0  0  0  0
   -2.9390    3.2560  -22.4860 C   0  0  0  0  0  0
   -4.4410    3.7470  -24.4360 C   0  0  0  0  0  0
   -3.6840    3.7300  -26.6340 C   0  0  0  0  0  0
    6.0340    2.9930  -21.3480 C   0  0  0  0  0  0
    5.8990    3.0980  -23.9000 C   0  0  0  0  0  0
   -4.6900    3.8570  -25.7740 C   0  0  0  0  0  0
    2.1190    3.6780  -23.9290 C   0  0  0  0  0  0
    1.3070    4.7970  -23.6470 C   0  0  0  0  0  0
    3.1150    5.9880  -22.9830 C   0  0  0  0  0  0
    3.5210    3.8610  -23.6170 C   0  0  0  0  0  0
    1.5640    2.5550  -24.5740 C   0  0  0  0  0  0
   -0.5570    3.3880  -24.4780 C   0  0  0  0  0  0
   -0.0200    4.6130  -23.8960 C   0  0  0  0  0  0
   -2.0090    3.4010  -24.8340 C   0  0  0  0  0  0
    4.1050    1.3630  -23.2880 C   0  0  0  0  0  0
    5.0350    1.0160  -22.1350 C   0  0  2  0  0  0
    6.6410    2.5360  -22.6930 C   0  0  2  0  0  0
    5.0240    2.0350  -20.9830 C   0  0  0  0  0  0
   -2.3320    3.5420  -26.2640 C   0  0  0  0  0  0
   -1.5990    2.8410  -21.8800 C   0  0  0  0  0  0
   -0.5710    2.4920  -21.3680 C   0  0  0  0  0  0
   -0.8530    5.6700  -23.5680 F   0  0  0  0  0  0
   -3.7830    3.1710  -20.3580 F   0  0  0  0  0  0
    1.7930    5.9600  -23.1320 N   0  0  0  0  0  0
    4.0030    5.0150  -23.1880 N   0  0  0  0  0  0
    0.2570    2.4720  -24.8790 N   0  0  0  0  0  0
    4.4300    2.8030  -23.7780 N   0  0  0  0  0  0
    6.4420    1.0650  -22.6170 N   0  0  1  0  0  0
   -3.8550    3.7260  -28.0240 O   0  0  0  0  0  0
   -6.0281    3.7333  -21.3642 H   0  0  0  0  0  0
   -6.5024    4.0229  -23.7605 H   0  0  0  0  0  0
    5.5717    3.9832  -21.4732 H   0  0  0  0  0  0
    6.8198    3.0081  -20.5784 H   0  0  0  0  0  0
    6.2907    2.6367  -24.8186 H   0  0  0  0  0  0
    6.0513    4.1863  -23.9484 H   0  0  0  0  0  0
   -5.6987    4.0457  -26.1233 H   0  0  0  0  0  0
    2.1965    1.7167  -24.8430 H   0  0  0  0  0  0
    3.0617    1.3206  -22.9419 H   0  0  0  0  0  0
    4.2625    0.6513  -24.1118 H   0  0  0  0  0  0
    4.8018    0.0117  -21.7515 H   0  0  0  0  0  0
    7.7117    2.7832  -22.7424 H   0  0  0  0  0  0
    4.0447    2.5347  -20.9477 H   0  0  0  0  0  0
    5.3195    1.5327  -20.0501 H   0  0  0  0  0  0
   -1.5619    3.5049  -27.0260 H   0  0  0  0  0  0
    0.3331    2.1850  -20.9169 H   0  0  0  0  0  0
    7.0847    0.5720  -21.9026 H   0  0  0  0  0  0
   -3.0108    3.6241  -28.4476 H   0  0  0  0  0  0
    3.6790    7.4510  -21.0330 N   0  0  1  0  0  0
    5.9940    9.3600  -22.0880 N   0  0  0  0  0  0
    3.6850    7.3290  -22.5340 C   0  0  0  0  0  0
    4.2390    8.7380  -20.4880 C   0  0  0  0  0  0
    8.3100    9.1660  -21.4850 C   0  0  0  0  0  0
    5.7030    8.9050  -20.8550 C   0  0  0  0  0  0
    6.6520    8.5700  -19.9190 C   0  0  0  0  0  0
    7.9760    8.7030  -20.2400 C   0  0  0  0  0  0
    7.3060    9.4800  -22.3690 C   0  0  0  0  0  0
    9.7560    9.3400  -21.9000 C   0  0  0  0  0  0
    2.6645    7.3810  -20.6692 H   0  0  0  0  0  0
    4.7154    7.4320  -22.9051 H   0  0  0  0  0  0
    3.0893    8.1446  -22.9698 H   0  0  0  0  0  0
    4.1330    8.7500  -19.3932 H   0  0  0  0  0  0
    3.6630    9.5860  -20.8870 H   0  0  0  0  0  0
    6.3481    8.2061  -18.9442 H   0  0  0  0  0  0
    8.7544    8.4492  -19.5296 H   0  0  0  0  0  0
    7.6220    9.8410  -23.3410 H   0  0  0  0  0  0
    9.7990    9.7201  -22.9313 H   0  0  0  0  0  0
   10.2482   10.0553  -21.2247 H   0  0  0  0  0  0
   10.2720    8.3700  -21.8460 H   0  0  0  0  0  0
  1  2  2  0  0  0
  1  3  1  0  0  0
  1 34  1  0  0  0
  2  6  1  0  0  0
  2 35  1  0  0  0
  3  5  2  0  0  0
  3 27  1  0  0  0
  4  5  1  0  0  0
  4  6  2  0  0  0
  4 18  1  0  0  0
  5 24  1  0  0  0
  6 10  1  0  0  0
  7 10  2  0  0  0
  7 23  1  0  0  0
  7 33  1  0  0  0
  8 21  1  0  0  0
  8 22  1  0  0  0
  8 36  1  0  0  0
  8 37  1  0  0  0
  9 21  1  0  0  0
  9 31  1  0  0  0
  9 38  1  0  0  0
  9 39  1  0  0  0
 10 40  1  0  0  0
 11 12  1  0  0  0
 11 14  2  0  0  0
 11 15  1  0  0  0
 12 17  1  0  0  0
 12 28  2  0  0  0
 13 28  1  0  0  0
 13 29  2  0  0  0
 13 54  1  0  0  0
 14 29  1  0  0  0
 14 31  1  0  0  0
 15 30  2  0  0  0
 15 41  1  0  0  0
 16 17  2  0  0  0
 16 18  1  0  0  0
 16 30  1  0  0  0
 17 26  1  0  0  0
 18 23  2  0  0  0
 19 20  1  0  0  0
 19 31  1  0  0  0
 19 42  1  0  0  0
 19 43  1  0  0  0
 20 22  1  0  0  0
 20 32  1  0  0  0
 20 44  1  0  0  0
 21 32  1  0  0  0
 21 45  1  0  0  0
 22 46  1  0  0  0
 22 47  1  0  0  0
 23 48  1  0  0  0
 24 25  3  0  0  0
 25 49  1  0  0  0
 32 50  1  0  0  0
 33 51  1  0  0  0
 52 54  1  0  0  0
 52 55  1  0  0  0
 52 62  1  0  0  0
 53 57  2  0  0  0
 53 60  1  0  0  0
 54 63  1  0  0  0
 54 64  1  0  0  0
 55 57  1  0  0  0
 55 65  1  0  0  0
 55 66  1  0  0  0
 56 59  1  0  0  0
 56 60  2  0  0  0
 56 61  1  0  0  0
 57 58  1  0  0  0
 58 59  2  0  0  0
 58 67  1  0  0  0
 59 68  1  0  0  0
 60 69  1  0  0  0
 61 70  1  0  0  0
 61 71  1  0  0  0
 61 72  1  0  0  0
M  END
> <s_m_entry_id>
337

> <s_m_entry_name>
000000337.1

> <s_m_Source_Path>
/Users/zaksoul/Documents/2

> <s_m_Source_File>
000000337.mol2

> <i_m_Source_File_Index>
1

$$$$
No_0_356
                    3D
 Schrodinger Suite 2022-4.
 74 80  0  0  1  0            999 V2000
   -5.4340    3.3460  -22.1510 C   0  0  0  0  0  0
   -5.6970    3.5430  -23.4860 C   0  0  0  0  0  0
   -4.1940    3.1060  -21.8070 C   0  0  0  0  0  0
   -3.2960    3.2620  -23.9680 C   0  0  0  0  0  0
   -3.1380    3.0070  -22.5490 C   0  0  0  0  0  0
   -4.6440    3.5120  -24.4930 C   0  0  0  0  0  0
   -3.8800    3.5620  -26.6870 C   0  0  0  0  0  0
    5.8360    2.9040  -21.3870 C   0  0  0  0  0  0
    5.7060    3.0660  -23.9360 C   0  0  0  0  0  0
   -4.8910    3.6470  -25.8280 C   0  0  0  0  0  0
    1.9150    3.5670  -23.9640 C   0  0  0  0  0  0
    1.0780    4.6630  -23.6590 C   0  0  0  0  0  0
    2.8590    5.8750  -22.9620 C   0  0  0  0  0  0
    3.3110    3.7730  -23.6440 C   0  0  0  0  0  0
    1.3850    2.4490  -24.6370 C   0  0  0  0  0  0
   -0.7530    3.2350  -24.5290 C   0  0  0  0  0  0
   -0.2440    4.4560  -23.9170 C   0  0  0  0  0  0
   -2.2040    3.2260  -24.8890 C   0  0  0  0  0  0
    3.9470    1.2800  -23.3700 C   0  0  0  0  0  0
    4.8800    0.9260  -22.2230 C   0  0  2  0  0  0
    6.4560    2.4910  -22.7400 C   0  0  2  0  0  0
    4.8450    1.9170  -21.0470 C   0  0  0  0  0  0
   -2.5260    3.3930  -26.3170 C   0  0  0  0  0  0
   -1.7910    2.6060  -21.9480 C   0  0  0  0  0  0
   -0.7580    2.2660  -21.4410 C   0  0  0  0  0  0
   -1.1000    5.4880  -23.5680 F   0  0  0  0  0  0
   -3.9860    2.8540  -20.4270 F   0  0  0  0  0  0
    1.5390    5.8230  -23.1160 N   0  0  0  0  0  0
    3.7680    4.9260  -23.1860 N   0  0  0  0  0  0
    0.0810    2.3460  -24.9490 N   0  0  0  0  0  0
    4.2430    2.7380  -23.8260 N   0  0  0  0  0  0
    6.2880    1.0150  -22.6990 N   0  0  1  0  0  0
   -4.0470    3.5860  -28.0780 O   0  0  0  0  0  0
   -6.2398    3.3932  -21.4275 H   0  0  0  0  0  0
   -6.7125    3.7276  -23.8172 H   0  0  0  0  0  0
    5.3527    3.8868  -21.4899 H   0  0  0  0  0  0
    6.6183    2.9181  -20.6138 H   0  0  0  0  0  0
    6.1099    2.6349  -24.8639 H   0  0  0  0  0  0
    5.8351    4.1582  -23.9592 H   0  0  0  0  0  0
   -5.9021    3.8225  -26.1771 H   0  0  0  0  0  0
    2.0355    1.6308  -24.9241 H   0  0  0  0  0  0
    2.9034    1.2083  -23.0299 H   0  0  0  0  0  0
    4.1205    0.5919  -24.2105 H   0  0  0  0  0  0
    4.6670   -0.0916  -21.8636 H   0  0  0  0  0  0
    7.5212    2.7626  -22.7794 H   0  0  0  0  0  0
    3.8553    2.3952  -21.0036 H   0  0  0  0  0  0
    5.1479    1.3990  -20.1251 H   0  0  0  0  0  0
   -1.7535    3.3900  -27.0775 H   0  0  0  0  0  0
    0.1515    1.9678  -20.9948 H   0  0  0  0  0  0
    6.9387    0.5195  -21.9937 H   0  0  0  0  0  0
   -3.1995    3.5117  -28.5008 H   0  0  0  0  0  0
    3.7250    7.1680  -21.0100 N   0  0  1  0  0  0
    6.7790    8.0600  -20.3390 N   0  0  0  0  0  0
    4.2540    8.4550  -20.4330 C   0  0  0  0  0  0
    5.6950    8.7270  -20.8410 C   0  0  0  0  0  0
    3.3990    7.2170  -22.4800 C   0  0  0  0  0  0
    7.8570    8.6230  -20.9630 C   0  0  0  0  0  0
    6.0680    9.6480  -21.7310 C   0  0  0  0  0  0
    7.4790    9.5810  -21.8100 C   0  0  0  0  0  0
    6.7950    6.9430  -19.3830 C   0  0  0  0  0  0
    9.2890    8.1970  -20.7050 C   0  0  0  0  0  0
    4.4599    6.3871  -20.8820 H   0  0  0  0  0  0
    4.1850    8.4200  -19.3357 H   0  0  0  0  0  0
    3.6181    9.2909  -20.7600 H   0  0  0  0  0  0
    4.3059    7.4720  -23.0479 H   0  0  0  0  0  0
    2.6497    8.0013  -22.6631 H   0  0  0  0  0  0
    5.3209   10.2601  -22.2231 H   0  0  0  0  0  0
    8.2223   10.1222  -22.3842 H   0  0  0  0  0  0
    7.8346    6.6398  -19.1899 H   0  0  0  0  0  0
    6.3251    7.2599  -18.4402 H   0  0  0  0  0  0
    6.2371    6.0931  -19.8030 H   0  0  0  0  0  0
    9.9692    8.7982  -21.3262 H   0  0  0  0  0  0
    9.5320    8.3500  -19.6431 H   0  0  0  0  0  0
    9.4070    7.1328  -20.9571 H   0  0  0  0  0  0
  1  2  2  0  0  0
  1  3  1  0  0  0
  1 34  1  0  0  0
  2  6  1  0  0  0
  2 35  1  0  0  0
  3  5  2  0  0  0
  3 27  1  0  0  0
  4  5  1  0  0  0
  4  6  2  0  0  0
  4 18  1  0  0  0
  5 24  1  0  0  0
  6 10  1  0  0  0
  7 10  2  0  0  0
  7 23  1  0  0  0
  7 33  1  0  0  0
  8 21  1  0  0  0
  8 22  1  0  0  0
  8 36  1  0  0  0
  8 37  1  0  0  0
  9 21  1  0  0  0
  9 31  1  0  0  0
  9 38  1  0  0  0
  9 39  1  0  0  0
 10 40  1  0  0  0
 11 12  1  0  0  0
 11 14  2  0  0  0
 11 15  1  0  0  0
 12 17  1  0  0  0
 12 28  2  0  0  0
 13 28  1  0  0  0
 13 29  2  0  0  0
 13 56  1  0  0  0
 14 29  1  0  0  0
 14 31  1  0  0  0
 15 30  2  0  0  0
 15 41  1  0  0  0
 16 17  2  0  0  0
 16 18  1  0  0  0
 16 30  1  0  0  0
 17 26  1  0  0  0
 18 23  2  0  0  0
 19 20  1  0  0  0
 19 31  1  0  0  0
 19 42  1  0  0  0
 19 43  1  0  0  0
 20 22  1  0  0  0
 20 32  1  0  0  0
 20 44  1  0  0  0
 21 32  1  0  0  0
 21 45  1  0  0  0
 22 46  1  0  0  0
 22 47  1  0  0  0
 23 48  1  0  0  0
 24 25  3  0  0  0
 25 49  1  0  0  0
 32 50  1  0  0  0
 33 51  1  0  0  0
 52 54  1  0  0  0
 52 56  1  0  0  0
 52 62  1  0  0  0
 53 55  1  0  0  0
 53 57  1  0  0  0
 53 60  1  0  0  0
 54 55  1  0  0  0
 54 63  1  0  0  0
 54 64  1  0  0  0
 55 58  2  0  0  0
 56 65  1  0  0  0
 56 66  1  0  0  0
 57 59  2  0  0  0
 57 61  1  0  0  0
 58 59  1  0  0  0
 58 67  1  0  0  0
 59 68  1  0  0  0
 60 69  1  0  0  0
 60 70  1  0  0  0
 60 71  1  0  0  0
 61 72  1  0  0  0
 61 73  1  0  0  0
 61 74  1  0  0  0
M  END
> <s_m_entry_id>
338

> <s_m_entry_name>
000000338.1

> <s_m_Source_Path>
/Users/zaksoul/Documents/2

> <s_m_Source_File>
000000338.mol2

> <i_m_Source_File_Index>
1

$$$$
No_0_357
                    3D
 Schrodinger Suite 2022-4.
 74 80  0  0  1  0            999 V2000
   -4.9600    3.1560  -21.9110 C   0  0  0  0  0  0
   -5.2380    3.3270  -23.2460 C   0  0  0  0  0  0
   -3.7130    2.9420  -21.5740 C   0  0  0  0  0  0
   -2.8370    3.0770  -23.7450 C   0  0  0  0  0  0
   -2.6620    2.8480  -22.3240 C   0  0  0  0  0  0
   -4.1940    3.2960  -24.2610 C   0  0  0  0  0  0
   -3.4510    3.3220  -26.4640 C   0  0  0  0  0  0
    6.3220    2.9110  -21.2440 C   0  0  0  0  0  0
    6.1660    3.0290  -23.7940 C   0  0  0  0  0  0
   -4.4560    3.4060  -25.5960 C   0  0  0  0  0  0
    2.3670    3.4670  -23.7950 C   0  0  0  0  0  0
    1.5160    4.5540  -23.5010 C   0  0  0  0  0  0
    3.2820    5.8060  -22.8390 C   0  0  0  0  0  0
    3.7630    3.7010  -23.4910 C   0  0  0  0  0  0
    1.8500    2.3300  -24.4450 C   0  0  0  0  0  0
   -0.2990    3.0820  -24.3300 C   0  0  0  0  0  0
    0.1950    4.3220  -23.7430 C   0  0  0  0  0  0
   -1.7540    3.0430  -24.6760 C   0  0  0  0  0  0
    4.4420    1.2240  -23.1830 C   0  0  0  0  0  0
    5.3910    0.9040  -22.0390 C   0  0  2  0  0  0
    6.9360    2.4860  -22.5960 C   0  0  2  0  0  0
    5.3500    1.9140  -20.8790 C   0  0  0  0  0  0
   -2.0910    3.1820  -26.1040 C   0  0  0  0  0  0
   -1.3030    2.4790  -21.7290 C   0  0  0  0  0  0
   -0.2600    2.1650  -21.2260 C   0  0  0  0  0  0
   -0.6750    5.3450  -23.4020 F   0  0  0  0  0  0
   -3.4890    2.7160  -20.1910 F   0  0  0  0  0  0
    1.9620    5.7300  -22.9800 N   0  0  0  0  0  0
    4.2050    4.8680  -23.0570 N   0  0  0  0  0  0
    0.5450    2.2000  -24.7430 N   0  0  0  0  0  0
    4.7100    2.6790  -23.6650 N   0  0  0  0  0  0
    6.7930    1.0080  -22.5290 N   0  0  1  0  0  0
   -3.6310    3.3210  -27.8530 O   0  0  0  0  0  0
   -5.7596    3.2022  -21.1806 H   0  0  0  0  0  0
   -6.2596    3.4896  -23.5701 H   0  0  0  0  0  0
    5.8223    3.8842  -21.3591 H   0  0  0  0  0  0
    7.1113    2.9504  -20.4789 H   0  0  0  0  0  0
    6.5686    2.5890  -24.7183 H   0  0  0  0  0  0
    6.2770    4.1226  -23.8364 H   0  0  0  0  0  0
   -5.4731    3.5586  -25.9384 H   0  0  0  0  0  0
    2.5111    1.5174  -24.7239 H   0  0  0  0  0  0
    3.4030    1.1402  -22.8316 H   0  0  0  0  0  0
    4.6206    0.5249  -24.0133 H   0  0  0  0  0  0
    5.1983   -0.1111  -21.6616 H   0  0  0  0  0  0
    7.9964    2.7735  -22.6505 H   0  0  0  0  0  0
    4.3528    2.3763  -20.8346 H   0  0  0  0  0  0
    5.6699    1.4165  -19.9516 H   0  0  0  0  0  0
   -1.3250    3.1790  -26.8710 H   0  0  0  0  0  0
    0.6581    1.8880  -20.7839 H   0  0  0  0  0  0
    7.4584    0.5352  -21.8219 H   0  0  0  0  0  0
   -2.7860    3.2536  -28.2819 H   0  0  0  0  0  0
    4.4150    7.0720  -21.0100 N   0  0  1  0  0  0
    7.4650    8.1890  -20.8780 N   0  0  0  0  0  0
    4.9480    8.3710  -20.4630 C   0  0  0  0  0  0
    6.2570    8.7840  -21.1200 C   0  0  0  0  0  0
    3.8050    7.1650  -22.3840 C   0  0  0  0  0  0
    8.3560    8.8720  -21.6590 C   0  0  0  0  0  0
    6.3800    9.7760  -22.0040 C   0  0  0  0  0  0
    7.7490    9.8340  -22.3550 C   0  0  0  0  0  0
    7.7510    7.0330  -20.0160 C   0  0  0  0  0  0
    9.8390    8.5580  -21.7070 C   0  0  0  0  0  0
    5.2172    6.3518  -21.0750 H   0  0  0  0  0  0
    5.0981    8.2760  -19.3774 H   0  0  0  0  0  0
    4.1998    9.1642  -20.6080 H   0  0  0  0  0  0
    4.5615    7.5237  -23.0975 H   0  0  0  0  0  0
    2.9779    7.8901  -22.3700 H   0  0  0  0  0  0
    5.5073   10.3448  -22.3039 H   0  0  0  0  0  0
    8.3240   10.4630  -23.0250 H   0  0  0  0  0  0
    8.8280    6.8110  -20.0450 H   0  0  0  0  0  0
    7.4519    7.2621  -18.9825 H   0  0  0  0  0  0
    7.1872    6.1593  -20.3749 H   0  0  0  0  0  0
   10.3373    9.2444  -22.4074 H   0  0  0  0  0  0
   10.2719    8.6800  -20.7032 H   0  0  0  0  0  0
    9.9840    7.5210  -22.0440 H   0  0  0  0  0  0
  1  2  2  0  0  0
  1  3  1  0  0  0
  1 34  1  0  0  0
  2  6  1  0  0  0
  2 35  1  0  0  0
  3  5  2  0  0  0
  3 27  1  0  0  0
  4  5  1  0  0  0
  4  6  2  0  0  0
  4 18  1  0  0  0
  5 24  1  0  0  0
  6 10  1  0  0  0
  7 10  2  0  0  0
  7 23  1  0  0  0
  7 33  1  0  0  0
  8 21  1  0  0  0
  8 22  1  0  0  0
  8 36  1  0  0  0
  8 37  1  0  0  0
  9 21  1  0  0  0
  9 31  1  0  0  0
  9 38  1  0  0  0
  9 39  1  0  0  0
 10 40  1  0  0  0
 11 12  1  0  0  0
 11 14  2  0  0  0
 11 15  1  0  0  0
 12 17  1  0  0  0
 12 28  2  0  0  0
 13 28  1  0  0  0
 13 29  2  0  0  0
 13 56  1  0  0  0
 14 29  1  0  0  0
 14 31  1  0  0  0
 15 30  2  0  0  0
 15 41  1  0  0  0
 16 17  2  0  0  0
 16 18  1  0  0  0
 16 30  1  0  0  0
 17 26  1  0  0  0
 18 23  2  0  0  0
 19 20  1  0  0  0
 19 31  1  0  0  0
 19 42  1  0  0  0
 19 43  1  0  0  0
 20 22  1  0  0  0
 20 32  1  0  0  0
 20 44  1  0  0  0
 21 32  1  0  0  0
 21 45  1  0  0  0
 22 46  1  0  0  0
 22 47  1  0  0  0
 23 48  1  0  0  0
 24 25  3  0  0  0
 25 49  1  0  0  0
 32 50  1  0  0  0
 33 51  1  0  0  0
 52 54  1  0  0  0
 52 56  1  0  0  0
 52 62  1  0  0  0
 53 55  1  0  0  0
 53 57  1  0  0  0
 53 60  1  0  0  0
 54 55  1  0  0  0
 54 63  1  0  0  0
 54 64  1  0  0  0
 55 58  2  0  0  0
 56 65  1  0  0  0
 56 66  1  0  0  0
 57 59  2  0  0  0
 57 61  1  0  0  0
 58 59  1  0  0  0
 58 67  1  0  0  0
 59 68  1  0  0  0
 60 69  1  0  0  0
 60 70  1  0  0  0
 60 71  1  0  0  0
 61 72  1  0  0  0
 61 73  1  0  0  0
 61 74  1  0  0  0
M  END
> <s_m_entry_id>
339

> <s_m_entry_name>
000000339.1

> <s_m_Source_Path>
/Users/zaksoul/Documents/2

> <s_m_Source_File>
000000339.mol2

> <i_m_Source_File_Index>
1

$$$$
No_0_358
                    3D
 Schrodinger Suite 2022-4.
 74 80  0  0  1  0            999 V2000
   -5.2980    3.2820  -22.2310 C   0  0  0  0  0  0
   -5.5450    3.4690  -23.5710 C   0  0  0  0  0  0
   -4.0580    3.0680  -21.8690 C   0  0  0  0  0  0
   -3.1310    3.2360  -24.0160 C   0  0  0  0  0  0
   -2.9890    2.9890  -22.5940 C   0  0  0  0  0  0
   -4.4770    3.4570  -24.5610 C   0  0  0  0  0  0
   -3.6820    3.5150  -26.7450 C   0  0  0  0  0  0
    5.9660    3.0730  -21.3010 C   0  0  0  0  0  0
    5.8700    3.2250  -23.8520 C   0  0  0  0  0  0
   -4.7070    3.5830  -25.9010 C   0  0  0  0  0  0
    2.0710    3.6480  -23.9380 C   0  0  0  0  0  0
    1.2080    4.7270  -23.6490 C   0  0  0  0  0  0
    2.9530    5.9780  -22.9290 C   0  0  0  0  0  0
    3.4580    3.8830  -23.5970 C   0  0  0  0  0  0
    1.5740    2.5170  -24.6140 C   0  0  0  0  0  0
   -0.5810    3.2590  -24.5400 C   0  0  0  0  0  0
   -0.1060    4.4930  -23.9250 C   0  0  0  0  0  0
   -2.0260    3.2190  -24.9220 C   0  0  0  0  0  0
    4.1400    1.4050  -23.3060 C   0  0  0  0  0  0
    5.0640    1.0740  -22.1440 C   0  0  2  0  0  0
    6.6140    2.6690  -22.6430 C   0  0  2  0  0  0
    4.9910    2.0680  -20.9720 C   0  0  0  0  0  0
   -2.3300    3.3760  -26.3550 C   0  0  0  0  0  0
   -1.6430    2.6170  -21.9730 C   0  0  0  0  0  0
   -0.6110    2.3010  -21.4490 C   0  0  0  0  0  0
   -0.9880    5.5080  -23.5920 F   0  0  0  0  0  0
   -3.8660    2.8250  -20.4840 F   0  0  0  0  0  0
    1.6370    5.8980  -23.1030 N   0  0  0  0  0  0
    3.8850    5.0460  -23.1370 N   0  0  0  0  0  0
    0.2770    2.3860  -24.9450 N   0  0  0  0  0  0
    4.4130    2.8670  -23.7620 N   0  0  0  0  0  0
    6.4760    1.1900  -22.5990 N   0  0  1  0  0  0
   -3.8290    3.5320  -28.1380 O   0  0  0  0  0  0
   -6.1150    3.3151  -21.5194 H   0  0  0  0  0  0
   -6.5590    3.6327  -23.9174 H   0  0  0  0  0  0
    5.4654    4.0459  -21.4150 H   0  0  0  0  0  0
    6.7369    3.1053  -20.5170 H   0  0  0  0  0  0
    6.2969    2.7981  -24.7715 H   0  0  0  0  0  0
    5.9780    4.3194  -23.8762 H   0  0  0  0  0  0
   -5.7164    3.7365  -26.2652 H   0  0  0  0  0  0
    2.2453    1.7112  -24.8880 H   0  0  0  0  0  0
    3.0935    1.3122  -22.9800 H   0  0  0  0  0  0
    4.3408    0.7169  -24.1404 H   0  0  0  0  0  0
    4.8663    0.0532  -21.7849 H   0  0  0  0  0  0
    7.6741    2.9615  -22.6682 H   0  0  0  0  0  0
    3.9909    2.5252  -20.9448 H   0  0  0  0  0  0
    5.2909    1.5591  -20.0441 H   0  0  0  0  0  0
   -1.5457    3.3850  -27.1032 H   0  0  0  0  0  0
    0.2971    2.0220  -20.9879 H   0  0  0  0  0  0
    7.1265    0.7096  -21.8832 H   0  0  0  0  0  0
   -2.9739    3.4736  -28.5477 H   0  0  0  0  0  0
    4.1660    7.1980  -21.1210 N   0  0  1  0  0  0
    7.1780    8.4230  -21.1430 N   0  0  0  0  0  0
    4.6920    8.4890  -20.5480 C   0  0  0  0  0  0
    5.9360    8.9820  -21.2710 C   0  0  0  0  0  0
    3.4590    7.3320  -22.4440 C   0  0  0  0  0  0
    7.9870    9.1750  -21.9480 C   0  0  0  0  0  0
    5.9620   10.0180  -22.1110 C   0  0  0  0  0  0
    7.3000   10.1450  -22.5520 C   0  0  0  0  0  0
    7.5640    7.2390  -20.3610 C   0  0  0  0  0  0
    9.4730    8.9200  -22.1120 C   0  0  0  0  0  0
    4.9857    6.5123  -21.2769 H   0  0  0  0  0  0
    4.9200    8.3490  -19.4810 H   0  0  0  0  0  0
    3.9077    9.2583  -20.6020 H   0  0  0  0  0  0
    4.1507    7.7528  -23.1887 H   0  0  0  0  0  0
    2.6099    8.0231  -22.3370 H   0  0  0  0  0  0
    5.0517   10.5676  -22.3218 H   0  0  0  0  0  0
    7.8041   10.8271  -23.2271 H   0  0  0  0  0  0
    8.6432    7.0590  -20.4750 H   0  0  0  0  0  0
    7.3299    7.4071  -19.2994 H   0  0  0  0  0  0
    7.0073    6.3624  -20.7238 H   0  0  0  0  0  0
    9.8970    9.6570  -22.8100 H   0  0  0  0  0  0
    9.9720    9.0110  -21.1359 H   0  0  0  0  0  0
    9.6300    7.9070  -22.5110 H   0  0  0  0  0  0
  1  2  2  0  0  0
  1  3  1  0  0  0
  1 34  1  0  0  0
  2  6  1  0  0  0
  2 35  1  0  0  0
  3  5  2  0  0  0
  3 27  1  0  0  0
  4  5  1  0  0  0
  4  6  2  0  0  0
  4 18  1  0  0  0
  5 24  1  0  0  0
  6 10  1  0  0  0
  7 10  2  0  0  0
  7 23  1  0  0  0
  7 33  1  0  0  0
  8 21  1  0  0  0
  8 22  1  0  0  0
  8 36  1  0  0  0
  8 37  1  0  0  0
  9 21  1  0  0  0
  9 31  1  0  0  0
  9 38  1  0  0  0
  9 39  1  0  0  0
 10 40  1  0  0  0
 11 12  1  0  0  0
 11 14  2  0  0  0
 11 15  1  0  0  0
 12 17  1  0  0  0
 12 28  2  0  0  0
 13 28  1  0  0  0
 13 29  2  0  0  0
 13 56  1  0  0  0
 14 29  1  0  0  0
 14 31  1  0  0  0
 15 30  2  0  0  0
 15 41  1  0  0  0
 16 17  2  0  0  0
 16 18  1  0  0  0
 16 30  1  0  0  0
 17 26  1  0  0  0
 18 23  2  0  0  0
 19 20  1  0  0  0
 19 31  1  0  0  0
 19 42  1  0  0  0
 19 43  1  0  0  0
 20 22  1  0  0  0
 20 32  1  0  0  0
 20 44  1  0  0  0
 21 32  1  0  0  0
 21 45  1  0  0  0
 22 46  1  0  0  0
 22 47  1  0  0  0
 23 48  1  0  0  0
 24 25  3  0  0  0
 25 49  1  0  0  0
 32 50  1  0  0  0
 33 51  1  0  0  0
 52 54  1  0  0  0
 52 56  1  0  0  0
 52 62  1  0  0  0
 53 55  1  0  0  0
 53 57  1  0  0  0
 53 60  1  0  0  0
 54 55  1  0  0  0
 54 63  1  0  0  0
 54 64  1  0  0  0
 55 58  2  0  0  0
 56 65  1  0  0  0
 56 66  1  0  0  0
 57 59  2  0  0  0
 57 61  1  0  0  0
 58 59  1  0  0  0
 58 67  1  0  0  0
 59 68  1  0  0  0
 60 69  1  0  0  0
 60 70  1  0  0  0
 60 71  1  0  0  0
 61 72  1  0  0  0
 61 73  1  0  0  0
 61 74  1  0  0  0
M  END
> <s_m_entry_id>
340

> <s_m_entry_name>
000000340.1

> <s_m_Source_Path>
/Users/zaksoul/Documents/2

> <s_m_Source_File>
000000340.mol2

> <i_m_Source_File_Index>
1

$$$$
No_0_359
                    3D
 Schrodinger Suite 2022-4.
 73 79  0  0  1  0            999 V2000
   -5.0820    3.3340  -22.2170 C   0  0  0  0  0  0
   -5.3480    3.5030  -23.5550 C   0  0  0  0  0  0
   -3.8360    3.1330  -21.8670 C   0  0  0  0  0  0
   -2.9390    3.2800  -24.0290 C   0  0  0  0  0  0
   -2.7760    3.0520  -22.6060 C   0  0  0  0  0  0
   -4.2930    3.4850  -24.5590 C   0  0  0  0  0  0
   -3.5270    3.5220  -26.7540 C   0  0  0  0  0  0
    6.1950    3.2150  -21.4330 C   0  0  0  0  0  0
    6.0640    3.3340  -23.9840 C   0  0  0  0  0  0
   -4.5420    3.5930  -25.8970 C   0  0  0  0  0  0
    2.2610    3.7300  -24.0250 C   0  0  0  0  0  0
    1.3940    4.8060  -23.7380 C   0  0  0  0  0  0
    3.1390    6.0780  -23.0570 C   0  0  0  0  0  0
    3.6510    3.9790  -23.7060 C   0  0  0  0  0  0
    1.7630    2.5870  -24.6810 C   0  0  0  0  0  0
   -0.3950    3.3150  -24.5870 C   0  0  0  0  0  0
    0.0790    4.5590  -23.9940 C   0  0  0  0  0  0
   -1.8460    3.2600  -24.9490 C   0  0  0  0  0  0
    4.3550    1.5090  -23.3930 C   0  0  0  0  0  0
    5.2950    1.1990  -22.2390 C   0  0  2  0  0  0
    6.8280    2.7990  -22.7780 C   0  0  2  0  0  0
    5.2310    2.2070  -21.0790 C   0  0  0  0  0  0
   -2.1690    3.3970  -26.3800 C   0  0  0  0  0  0
   -1.4190    2.6970  -21.9980 C   0  0  0  0  0  0
   -0.3780    2.3950  -21.4840 C   0  0  0  0  0  0
   -0.8060    5.5720  -23.6610 F   0  0  0  0  0  0
   -3.6230    2.9090  -20.4830 F   0  0  0  0  0  0
    1.8220    5.9870  -23.2120 N   0  0  0  0  0  0
    4.0750    5.1510  -23.2660 N   0  0  0  0  0  0
    0.4630    2.4430  -24.9920 N   0  0  0  0  0  0
    4.6110    2.9670  -23.8710 N   0  0  0  0  0  0
    6.7010    1.3190  -22.7150 N   0  0  1  0  0  0
   -3.6930    3.5200  -28.1440 O   0  0  0  0  0  0
   -5.8891    3.3701  -21.4942 H   0  0  0  0  0  0
   -6.3680    3.6546  -23.8893 H   0  0  0  0  0  0
    5.6855    4.1826  -21.5521 H   0  0  0  0  0  0
    6.9761    3.2624  -20.6600 H   0  0  0  0  0  0
    6.4809    2.8999  -24.9047 H   0  0  0  0  0  0
    6.1639    4.4287  -24.0244 H   0  0  0  0  0  0
   -5.5573    3.7346  -26.2495 H   0  0  0  0  0  0
    2.4362    1.7824  -24.9539 H   0  0  0  0  0  0
    3.3135    1.4132  -23.0522 H   0  0  0  0  0  0
    4.5489    0.8123  -24.2219 H   0  0  0  0  0  0
    5.1103    0.1814  -21.8645 H   0  0  0  0  0  0
    7.8855    3.0987  -22.8214 H   0  0  0  0  0  0
    4.2283    2.6579  -21.0437 H   0  0  0  0  0  0
    5.5469    1.7125  -20.1486 H   0  0  0  0  0  0
   -1.3950    3.4030  -27.1389 H   0  0  0  0  0  0
    0.5382    2.1279  -21.0319 H   0  0  0  0  0  0
    7.3642    0.8526  -22.0015 H   0  0  0  0  0  0
   -2.8431    3.4626  -28.5645 H   0  0  0  0  0  0
    7.8360   10.9760  -23.3350 F   0  0  0  0  0  0
    3.9700    7.4350  -21.1250 N   0  3  0  0  0  0
    5.1550   10.3730  -22.9180 N   0  0  0  0  0  0
    5.8160    9.1660  -20.9160 C   0  0  0  0  0  0
    3.6420    7.4420  -22.5950 C   0  0  0  0  0  0
    4.3950    8.7580  -20.5360 C   0  0  0  0  0  0
    6.1450    9.9230  -22.0340 C   0  0  0  0  0  0
    6.8150    8.7440  -20.0650 C   0  0  0  0  0  0
    7.4790   10.2430  -22.2680 C   0  0  0  0  0  0
    8.1300    9.0640  -20.3040 C   0  0  0  0  0  0
    8.4610    9.8150  -21.4070 C   0  0  0  0  0  0
    4.6849    6.7471  -20.9470 H   0  0  0  0  0  0
    3.1797    7.0799  -20.6098 H   0  0  0  0  0  0
    5.4160   10.9331  -23.7421 H   0  0  0  0  0  0
    4.1660   10.1440  -22.7440 H   0  0  0  0  0  0
    4.5394    7.7148  -23.1696 H   0  0  0  0  0  0
    2.8728    8.2022  -22.7961 H   0  0  0  0  0  0
    4.3080    8.7140  -19.4403 H   0  0  0  0  0  0
    3.6922    9.5418  -20.8549 H   0  0  0  0  0  0
    6.5681    8.1502  -19.1923 H   0  0  0  0  0  0
    8.9024    8.7243  -19.6235 H   0  0  0  0  0  0
    9.4971   10.0700  -21.5980 H   0  0  0  0  0  0
  1  2  2  0  0  0
  1  3  1  0  0  0
  1 34  1  0  0  0
  2  6  1  0  0  0
  2 35  1  0  0  0
  3  5  2  0  0  0
  3 27  1  0  0  0
  4  5  1  0  0  0
  4  6  2  0  0  0
  4 18  1  0  0  0
  5 24  1  0  0  0
  6 10  1  0  0  0
  7 10  2  0  0  0
  7 23  1  0  0  0
  7 33  1  0  0  0
  8 21  1  0  0  0
  8 22  1  0  0  0
  8 36  1  0  0  0
  8 37  1  0  0  0
  9 21  1  0  0  0
  9 31  1  0  0  0
  9 38  1  0  0  0
  9 39  1  0  0  0
 10 40  1  0  0  0
 11 12  1  0  0  0
 11 14  2  0  0  0
 11 15  1  0  0  0
 12 17  1  0  0  0
 12 28  2  0  0  0
 13 28  1  0  0  0
 13 29  2  0  0  0
 13 56  1  0  0  0
 14 29  1  0  0  0
 14 31  1  0  0  0
 15 30  2  0  0  0
 15 41  1  0  0  0
 16 17  2  0  0  0
 16 18  1  0  0  0
 16 30  1  0  0  0
 17 26  1  0  0  0
 18 23  2  0  0  0
 19 20  1  0  0  0
 19 31  1  0  0  0
 19 42  1  0  0  0
 19 43  1  0  0  0
 20 22  1  0  0  0
 20 32  1  0  0  0
 20 44  1  0  0  0
 21 32  1  0  0  0
 21 45  1  0  0  0
 22 46  1  0  0  0
 22 47  1  0  0  0
 23 48  1  0  0  0
 24 25  3  0  0  0
 25 49  1  0  0  0
 32 50  1  0  0  0
 33 51  1  0  0  0
 52 60  1  0  0  0
 53 56  1  0  0  0
 53 57  1  0  0  0
 53 63  1  0  0  0
 53 64  1  0  0  0
 54 58  1  0  0  0
 54 65  1  0  0  0
 54 66  1  0  0  0
 55 57  1  0  0  0
 55 58  2  0  0  0
 55 59  1  0  0  0
 56 67  1  0  0  0
 56 68  1  0  0  0
 57 69  1  0  0  0
 57 70  1  0  0  0
 58 60  1  0  0  0
 59 61  2  0  0  0
 59 71  1  0  0  0
 60 62  2  0  0  0
 61 62  1  0  0  0
 61 72  1  0  0  0
 62 73  1  0  0  0
M  CHG  1  53   1
M  END
> <s_m_entry_id>
341

> <s_m_entry_name>
000000341.1

> <s_m_Source_Path>
/Users/zaksoul/Documents/2

> <s_m_Source_File>
000000341.mol2

> <i_m_Source_File_Index>
1

$$$$
No_0_360
                    3D
 Schrodinger Suite 2022-4.
 76 82  0  0  1  0            999 V2000
   -5.3240    3.5590  -22.1540 C   0  0  0  0  0  0
   -5.5830    3.7030  -23.4970 C   0  0  0  0  0  0
   -4.0820    3.3550  -21.7950 C   0  0  0  0  0  0
   -3.1740    3.4520  -23.9550 C   0  0  0  0  0  0
   -3.0190    3.2510  -22.5270 C   0  0  0  0  0  0
   -4.5240    3.6560  -24.4960 C   0  0  0  0  0  0
   -3.7480    3.6430  -26.6870 C   0  0  0  0  0  0
    5.9470    3.3660  -21.3140 C   0  0  0  0  0  0
    5.8290    3.4350  -23.8680 C   0  0  0  0  0  0
   -4.7650    3.7390  -25.8360 C   0  0  0  0  0  0
    2.0290    3.8600  -23.9350 C   0  0  0  0  0  0
    1.1700    4.9490  -23.6740 C   0  0  0  0  0  0
    2.9220    6.2200  -23.0100 C   0  0  0  0  0  0
    3.4200    4.1040  -23.6140 C   0  0  0  0  0  0
    1.5260    2.7080  -24.5700 C   0  0  0  0  0  0
   -0.6280    3.4550  -24.5010 C   0  0  0  0  0  0
   -0.1460    4.7070  -23.9310 C   0  0  0  0  0  0
   -2.0760    3.4040  -24.8690 C   0  0  0  0  0  0
    4.1020    1.6360  -23.2480 C   0  0  0  0  0  0
    5.0350    1.3410  -22.0840 C   0  0  2  0  0  0
    6.5830    2.9180  -22.6480 C   0  0  2  0  0  0
    4.9730    2.3730  -20.9450 C   0  0  0  0  0  0
   -2.3920    3.5150  -26.3040 C   0  0  0  0  0  0
   -1.6690    2.8980  -21.9050 C   0  0  0  0  0  0
   -0.6330    2.5970  -21.3810 C   0  0  0  0  0  0
   -1.0240    5.7340  -23.6230 F   0  0  0  0  0  0
   -3.8780    3.1570  -20.4050 F   0  0  0  0  0  0
    1.6050    6.1360  -23.1700 N   0  0  0  0  0  0
    3.8510    5.2810  -23.1960 N   0  0  0  0  0  0
    0.2260    2.5680  -24.8850 N   0  0  0  0  0  0
    4.3730    3.0820  -23.7540 N   0  0  0  0  0  0
    6.4440    1.4410  -22.5550 N   0  0  1  0  0  0
   -3.9070    3.6140  -28.0780 O   0  0  0  0  0  0
   -6.1352    3.6162  -21.4372 H   0  0  0  0  0  0
   -6.6001    3.8556  -23.8394 H   0  0  0  0  0  0
    5.4455    4.3348  -21.4553 H   0  0  0  0  0  0
    6.7243    3.4225  -20.5377 H   0  0  0  0  0  0
    6.2467    2.9779  -24.7771 H   0  0  0  0  0  0
    5.9380    4.5279  -23.9296 H   0  0  0  0  0  0
   -5.7773    3.8825  -26.1962 H   0  0  0  0  0  0
    2.1938    1.8925  -24.8231 H   0  0  0  0  0  0
    3.0581    1.5552  -22.9108 H   0  0  0  0  0  0
    4.2946    0.9212  -24.0616 H   0  0  0  0  0  0
    4.8392    0.3327  -21.6904 H   0  0  0  0  0  0
    7.6432    3.2078  -22.6914 H   0  0  0  0  0  0
    3.9737    2.8323  -20.9238 H   0  0  0  0  0  0
    5.2808    1.8947  -20.0035 H   0  0  0  0  0  0
   -1.6146    3.4989  -27.0593 H   0  0  0  0  0  0
    0.2794    2.3332  -20.9193 H   0  0  0  0  0  0
    7.0995    0.9833  -21.8289 H   0  0  0  0  0  0
   -3.0553    3.5418  -28.4925 H   0  0  0  0  0  0
    3.7490    7.5870  -21.1000 N   0  3  0  0  0  0
    7.7150   11.0060  -23.6140 N   0  0  0  0  0  0
    4.3680    8.8460  -20.5460 C   0  0  0  0  0  0
    5.7590    9.1280  -21.1120 C   0  0  0  0  0  0
    3.4340    7.5890  -22.5740 C   0  0  0  0  0  0
    6.0420    9.9680  -22.1770 C   0  0  0  0  0  0
    7.3690   10.1450  -22.5660 C   0  0  0  0  0  0
    6.7830    8.4630  -20.4700 C   0  0  0  0  0  0
    8.0890    8.6270  -20.8640 C   0  0  0  0  0  0
    8.3790    9.4690  -21.9060 C   0  0  0  0  0  0
    4.9540   10.7110  -22.9450 C   0  0  0  0  0  0
    2.9111    7.3730  -20.5821 H   0  0  0  0  0  0
    4.3450    6.8020  -20.8890 H   0  0  0  0  0  0
    8.7030   11.1200  -23.8820 H   0  0  0  0  0  0
    6.9811   11.5249  -24.1169 H   0  0  0  0  0  0
    4.4290    8.7710  -19.4503 H   0  0  0  0  0  0
    3.7076    9.7005  -20.7551 H   0  0  0  0  0  0
    4.3422    7.8390  -23.1421 H   0  0  0  0  0  0
    2.6680    8.3500  -22.7840 H   0  0  0  0  0  0
    6.5619    7.8008  -19.6407 H   0  0  0  0  0  0
    8.8804    8.0928  -20.3508 H   0  0  0  0  0  0
    9.4106    9.6021  -22.2112 H   0  0  0  0  0  0
    5.4131   11.3141  -23.7422 H   0  0  0  0  0  0
    4.2579    9.9849  -23.3901 H   0  0  0  0  0  0
    4.4043   11.3706  -22.2574 H   0  0  0  0  0  0
  1  2  2  0  0  0
  1  3  1  0  0  0
  1 34  1  0  0  0
  2  6  1  0  0  0
  2 35  1  0  0  0
  3  5  2  0  0  0
  3 27  1  0  0  0
  4  5  1  0  0  0
  4  6  2  0  0  0
  4 18  1  0  0  0
  5 24  1  0  0  0
  6 10  1  0  0  0
  7 10  2  0  0  0
  7 23  1  0  0  0
  7 33  1  0  0  0
  8 21  1  0  0  0
  8 22  1  0  0  0
  8 36  1  0  0  0
  8 37  1  0  0  0
  9 21  1  0  0  0
  9 31  1  0  0  0
  9 38  1  0  0  0
  9 39  1  0  0  0
 10 40  1  0  0  0
 11 12  1  0  0  0
 11 14  2  0  0  0
 11 15  1  0  0  0
 12 17  1  0  0  0
 12 28  2  0  0  0
 13 28  1  0  0  0
 13 29  2  0  0  0
 13 56  1  0  0  0
 14 29  1  0  0  0
 14 31  1  0  0  0
 15 30  2  0  0  0
 15 41  1  0  0  0
 16 17  2  0  0  0
 16 18  1  0  0  0
 16 30  1  0  0  0
 17 26  1  0  0  0
 18 23  2  0  0  0
 19 20  1  0  0  0
 19 31  1  0  0  0
 19 42  1  0  0  0
 19 43  1  0  0  0
 20 22  1  0  0  0
 20 32  1  0  0  0
 20 44  1  0  0  0
 21 32  1  0  0  0
 21 45  1  0  0  0
 22 46  1  0  0  0
 22 47  1  0  0  0
 23 48  1  0  0  0
 24 25  3  0  0  0
 25 49  1  0  0  0
 32 50  1  0  0  0
 33 51  1  0  0  0
 52 54  1  0  0  0
 52 56  1  0  0  0
 52 63  1  0  0  0
 52 64  1  0  0  0
 53 58  1  0  0  0
 53 65  1  0  0  0
 53 66  1  0  0  0
 54 55  1  0  0  0
 54 67  1  0  0  0
 54 68  1  0  0  0
 55 57  2  0  0  0
 55 59  1  0  0  0
 56 69  1  0  0  0
 56 70  1  0  0  0
 57 58  1  0  0  0
 57 62  1  0  0  0
 58 61  2  0  0  0
 59 60  2  0  0  0
 59 71  1  0  0  0
 60 61  1  0  0  0
 60 72  1  0  0  0
 61 73  1  0  0  0
 62 74  1  0  0  0
 62 75  1  0  0  0
 62 76  1  0  0  0
M  CHG  1  52   1
M  END
> <s_m_entry_id>
342

> <s_m_entry_name>
000000342.1

> <s_m_Source_Path>
/Users/zaksoul/Documents/2

> <s_m_Source_File>
000000342.mol2

> <i_m_Source_File_Index>
1

$$$$
No_0_361
                    3D
 Schrodinger Suite 2022-4.
 76 82  0  0  1  0            999 V2000
   -5.3880    3.4780  -22.2820 C   0  0  0  0  0  0
   -5.6060    3.6530  -23.6280 C   0  0  0  0  0  0
   -4.1590    3.2470  -21.8930 C   0  0  0  0  0  0
   -3.1900    3.3720  -24.0250 C   0  0  0  0  0  0
   -3.0780    3.1400  -22.5980 C   0  0  0  0  0  0
   -4.5210    3.6100  -24.5980 C   0  0  0  0  0  0
   -3.6840    3.6280  -26.7660 C   0  0  0  0  0  0
    5.8510    3.0840  -21.1360 C   0  0  0  0  0  0
    5.8060    3.2070  -23.6900 C   0  0  0  0  0  0
   -4.7240    3.7240  -25.9430 C   0  0  0  0  0  0
    2.0170    3.6950  -23.8530 C   0  0  0  0  0  0
    1.1680    4.7920  -23.5930 C   0  0  0  0  0  0
    2.9210    6.0210  -22.8550 C   0  0  0  0  0  0
    3.4010    3.9100  -23.4890 C   0  0  0  0  0  0
    1.5130    2.5650  -24.5260 C   0  0  0  0  0  0
   -0.6300    3.3450  -24.5000 C   0  0  0  0  0  0
   -0.1450    4.5780  -23.8910 C   0  0  0  0  0  0
   -2.0680    3.3260  -24.9090 C   0  0  0  0  0  0
    4.0340    1.4240  -23.1560 C   0  0  0  0  0  0
    4.9300    1.0910  -21.9730 C   0  0  2  0  0  0
    6.5170    2.6530  -22.4610 C   0  0  2  0  0  0
    4.8530    2.1000  -20.8150 C   0  0  0  0  0  0
   -2.3420    3.4700  -26.3490 C   0  0  0  0  0  0
   -1.7510    2.7520  -21.9460 C   0  0  0  0  0  0
   -0.7350    2.4250  -21.4000 C   0  0  0  0  0  0
   -1.0150    5.6120  -23.5860 F   0  0  0  0  0  0
   -3.9970    3.0170  -20.5020 F   0  0  0  0  0  0
    1.6070    5.9620  -23.0530 N   0  0  0  0  0  0
    3.8390    5.0710  -23.0350 N   0  0  0  0  0  0
    0.2200    2.4520  -24.8790 N   0  0  0  0  0  0
    4.3410    2.8750  -23.6240 N   0  0  0  0  0  0
    6.3520    1.1770  -22.4030 N   0  0  1  0  0  0
   -3.8050    3.6310  -28.1620 O   0  0  0  0  0  0
   -6.2174    3.5332  -21.5862 H   0  0  0  0  0  0
   -6.6105    3.8296  -23.9953 H   0  0  0  0  0  0
    5.3697    4.0638  -21.2712 H   0  0  0  0  0  0
    6.6081    3.1123  -20.3385 H   0  0  0  0  0  0
    6.2417    2.7622  -24.5968 H   0  0  0  0  0  0
    5.9332    4.2990  -23.7263 H   0  0  0  0  0  0
   -5.7237    3.8906  -26.3274 H   0  0  0  0  0  0
    2.1746    1.7438  -24.7770 H   0  0  0  0  0  0
    2.9800    1.3533  -22.8491 H   0  0  0  0  0  0
    4.2379    0.7226  -23.9785 H   0  0  0  0  0  0
    4.7081    0.0781  -21.6058 H   0  0  0  0  0  0
    7.5824    2.9264  -22.4701 H   0  0  0  0  0  0
    3.8610    2.5753  -20.8120 H   0  0  0  0  0  0
    5.1265    1.5975  -19.8755 H   0  0  0  0  0  0
   -1.5441    3.4570  -27.0827 H   0  0  0  0  0  0
    0.1597    2.1361  -20.9192 H   0  0  0  0  0  0
    6.9809    0.6947  -21.6693 H   0  0  0  0  0  0
   -2.9437    3.5528  -28.5550 H   0  0  0  0  0  0
    3.9880    7.2590  -20.9770 N   0  3  0  0  0  0
    7.3620   11.0920  -23.7440 N   0  0  0  0  0  0
    4.6390    8.4960  -20.4100 C   0  0  0  0  0  0
    5.9080    8.9010  -21.1570 C   0  0  0  0  0  0
    3.4410    7.3720  -22.3770 C   0  0  0  0  0  0
    5.9840    9.8440  -22.1680 C   0  0  0  0  0  0
    7.2230   10.1260  -22.7410 C   0  0  0  0  0  0
    7.0470    8.2390  -20.7480 C   0  0  0  0  0  0
    8.2660    8.5070  -21.3230 C   0  0  0  0  0  0
    8.3510    9.4500  -22.3140 C   0  0  0  0  0  0
    4.7580   10.5920  -22.6840 C   0  0  0  0  0  0
    3.2536    6.9558  -20.3567 H   0  0  0  0  0  0
    4.6409    6.4921  -20.9370 H   0  0  0  0  0  0
    8.2886   11.2819  -24.1518 H   0  0  0  0  0  0
    6.5380   11.6140  -24.0750 H   0  0  0  0  0  0
    4.8770    8.3300  -19.3490 H   0  0  0  0  0  0
    3.9210    9.3291  -20.4310 H   0  0  0  0  0  0
    4.2357    7.7189  -23.0538 H   0  0  0  0  0  0
    2.6219    8.1061  -22.3920 H   0  0  0  0  0  0
    6.9890    7.4959  -19.9609 H   0  0  0  0  0  0
    9.1501    7.9730  -20.9940 H   0  0  0  0  0  0
    9.3145    9.6649  -22.7618 H   0  0  0  0  0  0
    5.0600   11.2861  -23.4821 H   0  0  0  0  0  0
    4.0287    9.8707  -23.0812 H   0  0  0  0  0  0
    4.3004   11.1586  -21.8596 H   0  0  0  0  0  0
  1  2  2  0  0  0
  1  3  1  0  0  0
  1 34  1  0  0  0
  2  6  1  0  0  0
  2 35  1  0  0  0
  3  5  2  0  0  0
  3 27  1  0  0  0
  4  5  1  0  0  0
  4  6  2  0  0  0
  4 18  1  0  0  0
  5 24  1  0  0  0
  6 10  1  0  0  0
  7 10  2  0  0  0
  7 23  1  0  0  0
  7 33  1  0  0  0
  8 21  1  0  0  0
  8 22  1  0  0  0
  8 36  1  0  0  0
  8 37  1  0  0  0
  9 21  1  0  0  0
  9 31  1  0  0  0
  9 38  1  0  0  0
  9 39  1  0  0  0
 10 40  1  0  0  0
 11 12  1  0  0  0
 11 14  2  0  0  0
 11 15  1  0  0  0
 12 17  1  0  0  0
 12 28  2  0  0  0
 13 28  1  0  0  0
 13 29  2  0  0  0
 13 56  1  0  0  0
 14 29  1  0  0  0
 14 31  1  0  0  0
 15 30  2  0  0  0
 15 41  1  0  0  0
 16 17  2  0  0  0
 16 18  1  0  0  0
 16 30  1  0  0  0
 17 26  1  0  0  0
 18 23  2  0  0  0
 19 20  1  0  0  0
 19 31  1  0  0  0
 19 42  1  0  0  0
 19 43  1  0  0  0
 20 22  1  0  0  0
 20 32  1  0  0  0
 20 44  1  0  0  0
 21 32  1  0  0  0
 21 45  1  0  0  0
 22 46  1  0  0  0
 22 47  1  0  0  0
 23 48  1  0  0  0
 24 25  3  0  0  0
 25 49  1  0  0  0
 32 50  1  0  0  0
 33 51  1  0  0  0
 52 54  1  0  0  0
 52 56  1  0  0  0
 52 63  1  0  0  0
 52 64  1  0  0  0
 53 58  1  0  0  0
 53 65  1  0  0  0
 53 66  1  0  0  0
 54 55  1  0  0  0
 54 67  1  0  0  0
 54 68  1  0  0  0
 55 57  2  0  0  0
 55 59  1  0  0  0
 56 69  1  0  0  0
 56 70  1  0  0  0
 57 58  1  0  0  0
 57 62  1  0  0  0
 58 61  2  0  0  0
 59 60  2  0  0  0
 59 71  1  0  0  0
 60 61  1  0  0  0
 60 72  1  0  0  0
 61 73  1  0  0  0
 62 74  1  0  0  0
 62 75  1  0  0  0
 62 76  1  0  0  0
M  CHG  1  52   1
M  END
> <s_m_entry_id>
343

> <s_m_entry_name>
000000343.1

> <s_m_Source_Path>
/Users/zaksoul/Documents/2

> <s_m_Source_File>
000000343.mol2

> <i_m_Source_File_Index>
1

$$$$
No_0_362
                    3D
 Schrodinger Suite 2022-4.
 72 78  0  0  1  0            999 V2000
   -5.1610    3.6010  -22.1100 C   0  0  0  0  0  0
   -5.4170    3.7430  -23.4530 C   0  0  0  0  0  0
   -3.9210    3.3910  -21.7480 C   0  0  0  0  0  0
   -3.0080    3.4770  -23.9070 C   0  0  0  0  0  0
   -2.8580    3.2780  -22.4780 C   0  0  0  0  0  0
   -4.3560    3.6880  -24.4500 C   0  0  0  0  0  0
   -3.5760    3.6650  -26.6400 C   0  0  0  0  0  0
    6.1070    3.3420  -21.2490 C   0  0  0  0  0  0
    5.9940    3.4060  -23.8030 C   0  0  0  0  0  0
   -4.5950    3.7690  -25.7910 C   0  0  0  0  0  0
    2.1970    3.8530  -23.8780 C   0  0  0  0  0  0
    1.3440    4.9480  -23.6210 C   0  0  0  0  0  0
    3.1030    6.2100  -22.9570 C   0  0  0  0  0  0
    3.5880    4.0900  -23.5550 C   0  0  0  0  0  0
    1.6880    2.7030  -24.5110 C   0  0  0  0  0  0
   -0.4610    3.4630  -24.4480 C   0  0  0  0  0  0
    0.0270    4.7140  -23.8800 C   0  0  0  0  0  0
   -1.9100    3.4200  -24.8180 C   0  0  0  0  0  0
    4.2550    1.6180  -23.1830 C   0  0  0  0  0  0
    5.1840    1.3210  -22.0160 C   0  0  2  0  0  0
    6.7430    2.8870  -22.5810 C   0  0  2  0  0  0
    5.1270    2.3560  -20.8790 C   0  0  0  0  0  0
   -2.2220    3.5290  -26.2540 C   0  0  0  0  0  0
   -1.5100    2.9180  -21.8530 C   0  0  0  0  0  0
   -0.4770    2.6130  -21.3260 C   0  0  0  0  0  0
   -0.8460    5.7460  -23.5760 F   0  0  0  0  0  0
   -3.7200    3.1950  -20.3570 F   0  0  0  0  0  0
    1.7850    6.1340  -23.1190 N   0  0  0  0  0  0
    4.0260    5.2650  -23.1390 N   0  0  0  0  0  0
    0.3880    2.5700  -24.8280 N   0  0  0  0  0  0
    4.5350    3.0620  -23.6910 N   0  0  0  0  0  0
    6.5940    1.4110  -22.4850 N   0  0  1  0  0  0
   -3.7330    3.6340  -28.0310 O   0  0  0  0  0  0
   -5.9728    3.6642  -21.3945 H   0  0  0  0  0  0
   -6.4322    3.9017  -23.7984 H   0  0  0  0  0  0
    5.6125    4.3139  -21.3933 H   0  0  0  0  0  0
    6.8839    3.3965  -20.4721 H   0  0  0  0  0  0
    6.4106    2.9451  -24.7108 H   0  0  0  0  0  0
    6.1091    4.4981  -23.8676 H   0  0  0  0  0  0
   -5.6058    3.9176  -26.1534 H   0  0  0  0  0  0
    2.3513    1.8832  -24.7619 H   0  0  0  0  0  0
    3.2102    1.5453  -22.8468 H   0  0  0  0  0  0
    4.4448    0.9002  -23.9947 H   0  0  0  0  0  0
    4.9821    0.3147  -21.6203 H   0  0  0  0  0  0
    7.8050    3.1707  -22.6234 H   0  0  0  0  0  0
    4.1305    2.8214  -20.8608 H   0  0  0  0  0  0
    5.4299    1.8774  -19.9360 H   0  0  0  0  0  0
   -1.4437    3.5069  -27.0082 H   0  0  0  0  0  0
    0.4327    2.3441  -20.8621 H   0  0  0  0  0  0
    7.2461    0.9513  -21.7570 H   0  0  0  0  0  0
   -2.8813    3.5559  -28.4445 H   0  0  0  0  0  0
    8.9000    9.0980  -20.5850 O   0  0  0  0  0  0
    3.6090    7.7540  -21.0260 N   0  3  0  0  0  0
    5.3340    9.6060  -21.0610 C   0  0  0  0  0  0
    3.6220    7.5770  -22.5230 C   0  0  0  0  0  0
    3.9930    9.1250  -20.5240 C   0  0  0  0  0  0
    7.7240    9.5720  -21.0800 C   0  0  0  0  0  0
    6.5450   10.9530  -22.6240 C   0  0  0  0  0  0
    6.5240    9.1400  -20.5500 C   0  0  0  0  0  0
    5.3510   10.5180  -22.0940 C   0  0  0  0  0  0
    7.7320   10.4790  -22.1200 C   0  0  0  0  0  0
    9.6242    9.4931  -21.0561 H   0  0  0  0  0  0
    4.2117    7.0643  -20.6052 H   0  0  0  0  0  0
    2.6978    7.5110  -20.6699 H   0  0  0  0  0  0
    4.6464    7.7151  -22.8992 H   0  0  0  0  0  0
    3.0123    8.3646  -22.9898 H   0  0  0  0  0  0
    4.0220    9.1160  -19.4244 H   0  0  0  0  0  0
    3.2092    9.8469  -20.7969 H   0  0  0  0  0  0
    6.5480   11.6689  -23.4379 H   0  0  0  0  0  0
    6.5210    8.4327  -19.7286 H   0  0  0  0  0  0
    4.4194   10.8992  -22.4963 H   0  0  0  0  0  0
    8.6732   10.8161  -22.5391 H   0  0  0  0  0  0
  1  2  2  0  0  0
  1  3  1  0  0  0
  1 34  1  0  0  0
  2  6  1  0  0  0
  2 35  1  0  0  0
  3  5  2  0  0  0
  3 27  1  0  0  0
  4  5  1  0  0  0
  4  6  2  0  0  0
  4 18  1  0  0  0
  5 24  1  0  0  0
  6 10  1  0  0  0
  7 10  2  0  0  0
  7 23  1  0  0  0
  7 33  1  0  0  0
  8 21  1  0  0  0
  8 22  1  0  0  0
  8 36  1  0  0  0
  8 37  1  0  0  0
  9 21  1  0  0  0
  9 31  1  0  0  0
  9 38  1  0  0  0
  9 39  1  0  0  0
 10 40  1  0  0  0
 11 12  1  0  0  0
 11 14  2  0  0  0
 11 15  1  0  0  0
 12 17  1  0  0  0
 12 28  2  0  0  0
 13 28  1  0  0  0
 13 29  2  0  0  0
 13 55  1  0  0  0
 14 29  1  0  0  0
 14 31  1  0  0  0
 15 30  2  0  0  0
 15 41  1  0  0  0
 16 17  2  0  0  0
 16 18  1  0  0  0
 16 30  1  0  0  0
 17 26  1  0  0  0
 18 23  2  0  0  0
 19 20  1  0  0  0
 19 31  1  0  0  0
 19 42  1  0  0  0
 19 43  1  0  0  0
 20 22  1  0  0  0
 20 32  1  0  0  0
 20 44  1  0  0  0
 21 32  1  0  0  0
 21 45  1  0  0  0
 22 46  1  0  0  0
 22 47  1  0  0  0
 23 48  1  0  0  0
 24 25  3  0  0  0
 25 49  1  0  0  0
 32 50  1  0  0  0
 33 51  1  0  0  0
 52 57  1  0  0  0
 52 62  1  0  0  0
 53 55  1  0  0  0
 53 56  1  0  0  0
 53 63  1  0  0  0
 53 64  1  0  0  0
 54 56  1  0  0  0
 54 59  2  0  0  0
 54 60  1  0  0  0
 55 65  1  0  0  0
 55 66  1  0  0  0
 56 67  1  0  0  0
 56 68  1  0  0  0
 57 59  1  0  0  0
 57 61  2  0  0  0
 58 60  2  0  0  0
 58 61  1  0  0  0
 58 69  1  0  0  0
 59 70  1  0  0  0
 60 71  1  0  0  0
 61 72  1  0  0  0
M  CHG  1  53   1
M  END
> <s_m_entry_id>
344

> <s_m_entry_name>
000000344.1

> <s_m_Source_Path>
/Users/zaksoul/Documents/2

> <s_m_Source_File>
000000344.mol2

> <i_m_Source_File_Index>
1

$$$$
No_0_363
                    3D
 Schrodinger Suite 2022-4.
 74 80  0  0  1  0            999 V2000
   -5.2660    3.6230  -21.9780 C   0  0  0  0  0  0
   -5.5580    3.7710  -23.3130 C   0  0  0  0  0  0
   -4.0160    3.4090  -21.6510 C   0  0  0  0  0  0
   -3.1630    3.5010  -23.8340 C   0  0  0  0  0  0
   -2.9740    3.2980  -22.4100 C   0  0  0  0  0  0
   -4.5250    3.7180  -24.3390 C   0  0  0  0  0  0
   -3.8060    3.7010  -26.5490 C   0  0  0  0  0  0
    6.0210    3.3400  -21.4280 C   0  0  0  0  0  0
    5.8390    3.4140  -23.9780 C   0  0  0  0  0  0
   -4.8000    3.8040  -25.6730 C   0  0  0  0  0  0
    2.0420    3.8680  -23.9460 C   0  0  0  0  0  0
    1.1980    4.9640  -23.6620 C   0  0  0  0  0  0
    2.9770    6.2200  -23.0420 C   0  0  0  0  0  0
    3.4420    4.1010  -23.6610 C   0  0  0  0  0  0
    1.5130    2.7220  -24.5700 C   0  0  0  0  0  0
   -0.6320    3.4850  -24.4450 C   0  0  0  0  0  0
   -0.1260    4.7330  -23.8860 C   0  0  0  0  0  0
   -2.0900    3.4470  -24.7750 C   0  0  0  0  0  0
    4.1140    1.6270  -23.3160 C   0  0  0  0  0  0
    5.0740    1.3240  -22.1770 C   0  0  2  0  0  0
    6.6200    2.8890  -22.7780 C   0  0  2  0  0  0
    5.0500    2.3540  -21.0350 C   0  0  0  0  0  0
   -2.4420    3.5620  -26.2010 C   0  0  0  0  0  0
   -1.6100    2.9330  -21.8240 C   0  0  0  0  0  0
   -0.5630    2.6240  -21.3260 C   0  0  0  0  0  0
   -0.9880    5.7660  -23.5540 F   0  0  0  0  0  0
   -3.7780    3.2080  -20.2670 F   0  0  0  0  0  0
    1.6550    6.1470  -23.1680 N   0  0  0  0  0  0
    3.8930    5.2740  -23.2530 N   0  0  0  0  0  0
    0.2040    2.5920  -24.8510 N   0  0  0  0  0  0
    4.3830    3.0720  -23.8270 N   0  0  0  0  0  0
    6.4710    1.4130  -22.6840 N   0  0  1  0  0  0
   -4.0010    3.6760  -27.9360 O   0  0  0  0  0  0
   -6.0569    3.6852  -21.2393 H   0  0  0  0  0  0
   -6.5822    3.9327  -23.6293 H   0  0  0  0  0  0
    5.5247    4.3134  -21.5551 H   0  0  0  0  0  0
    6.8194    3.3895  -20.6730 H   0  0  0  0  0  0
    6.2295    2.9549  -24.8982 H   0  0  0  0  0  0
    5.9541    4.5062  -24.0406 H   0  0  0  0  0  0
   -5.8204    3.9555  -26.0061 H   0  0  0  0  0  0
    2.1672    1.9012  -24.8409 H   0  0  0  0  0  0
    3.0783    1.5543  -22.9526 H   0  0  0  0  0  0
    4.2795    0.9123  -24.1357 H   0  0  0  0  0  0
    4.8812    0.3167  -21.7793 H   0  0  0  0  0  0
    7.6809    3.1706  -22.8497 H   0  0  0  0  0  0
    4.0556    2.8219  -20.9876 H   0  0  0  0  0  0
    5.3780    1.8716  -20.1024 H   0  0  0  0  0  0
   -1.6842    3.5409  -26.9758 H   0  0  0  0  0  0
    0.3586    2.3508  -20.8887 H   0  0  0  0  0  0
    7.1416    0.9488  -21.9760 H   0  0  0  0  0  0
   -3.1608    3.5978  -28.3724 H   0  0  0  0  0  0
    4.2010    7.5050  -21.2800 N   0  3  0  0  0  0
    4.6580    8.8220  -20.7010 C   0  0  0  0  0  0
    3.5100    7.5840  -22.6180 C   0  0  0  0  0  0
    5.8970    9.9870  -22.5650 C   0  0  0  0  0  0
    7.1310    9.2610  -20.6650 C   0  0  0  0  0  0
    8.2460   10.3670  -22.4580 C   0  0  0  0  0  0
    6.9940   11.1400  -24.4940 C   0  0  0  0  0  0
    5.9310    9.3710  -21.3330 C   0  0  0  0  0  0
    7.0500   10.4820  -23.1300 C   0  0  0  0  0  0
    8.2860    9.7590  -21.2240 C   0  0  0  0  0  0
    3.5951    7.0430  -20.6201 H   0  0  0  0  0  0
    4.9889    6.8801  -21.3490 H   0  0  0  0  0  0
    4.8070    8.7110  -19.6168 H   0  0  0  0  0  0
    3.8521    9.5639  -20.8020 H   0  0  0  0  0  0
    4.2191    7.9521  -23.3741 H   0  0  0  0  0  0
    2.6780    8.3010  -22.5580 H   0  0  0  0  0  0
    4.9572   10.0841  -23.0964 H   0  0  0  0  0  0
    7.1690    8.7809  -19.6938 H   0  0  0  0  0  0
    9.1561   10.7560  -22.9001 H   0  0  0  0  0  0
    8.0022   11.4717  -24.7828 H   0  0  0  0  0  0
    6.6198   10.4186  -25.2354 H   0  0  0  0  0  0
    6.3198   12.0083  -24.4550 H   0  0  0  0  0  0
    9.2268    9.6719  -20.6926 H   0  0  0  0  0  0
  1  2  2  0  0  0
  1  3  1  0  0  0
  1 34  1  0  0  0
  2  6  1  0  0  0
  2 35  1  0  0  0
  3  5  2  0  0  0
  3 27  1  0  0  0
  4  5  1  0  0  0
  4  6  2  0  0  0
  4 18  1  0  0  0
  5 24  1  0  0  0
  6 10  1  0  0  0
  7 10  2  0  0  0
  7 23  1  0  0  0
  7 33  1  0  0  0
  8 21  1  0  0  0
  8 22  1  0  0  0
  8 36  1  0  0  0
  8 37  1  0  0  0
  9 21  1  0  0  0
  9 31  1  0  0  0
  9 38  1  0  0  0
  9 39  1  0  0  0
 10 40  1  0  0  0
 11 12  1  0  0  0
 11 14  2  0  0  0
 11 15  1  0  0  0
 12 17  1  0  0  0
 12 28  2  0  0  0
 13 28  1  0  0  0
 13 29  2  0  0  0
 13 54  1  0  0  0
 14 29  1  0  0  0
 14 31  1  0  0  0
 15 30  2  0  0  0
 15 41  1  0  0  0
 16 17  2  0  0  0
 16 18  1  0  0  0
 16 30  1  0  0  0
 17 26  1  0  0  0
 18 23  2  0  0  0
 19 20  1  0  0  0
 19 31  1  0  0  0
 19 42  1  0  0  0
 19 43  1  0  0  0
 20 22  1  0  0  0
 20 32  1  0  0  0
 20 44  1  0  0  0
 21 32  1  0  0  0
 21 45  1  0  0  0
 22 46  1  0  0  0
 22 47  1  0  0  0
 23 48  1  0  0  0
 24 25  3  0  0  0
 25 49  1  0  0  0
 32 50  1  0  0  0
 33 51  1  0  0  0
 52 53  1  0  0  0
 52 54  1  0  0  0
 52 62  1  0  0  0
 52 63  1  0  0  0
 53 59  1  0  0  0
 53 64  1  0  0  0
 53 65  1  0  0  0
 54 66  1  0  0  0
 54 67  1  0  0  0
 55 59  2  0  0  0
 55 60  1  0  0  0
 55 68  1  0  0  0
 56 59  1  0  0  0
 56 61  2  0  0  0
 56 69  1  0  0  0
 57 60  2  0  0  0
 57 61  1  0  0  0
 57 70  1  0  0  0
 58 60  1  0  0  0
 58 71  1  0  0  0
 58 72  1  0  0  0
 58 73  1  0  0  0
 61 74  1  0  0  0
M  CHG  1  52   1
M  END
> <s_m_entry_id>
345

> <s_m_entry_name>
000000345.1

> <s_m_Source_Path>
/Users/zaksoul/Documents/2

> <s_m_Source_File>
000000345.mol2

> <i_m_Source_File_Index>
1

$$$$
No_0_369
                    3D
 Schrodinger Suite 2022-4.
 71 77  0  0  1  0            999 V2000
   -5.0810    3.4860  -22.2920 C   0  0  0  0  0  0
   -5.3280    3.6760  -23.6310 C   0  0  0  0  0  0
   -3.8420    3.2670  -21.9310 C   0  0  0  0  0  0
   -2.9160    3.4340  -24.0790 C   0  0  0  0  0  0
   -2.7730    3.1850  -22.6580 C   0  0  0  0  0  0
   -4.2610    3.6600  -24.6230 C   0  0  0  0  0  0
   -3.4680    3.7190  -26.8070 C   0  0  0  0  0  0
    6.1830    3.2380  -21.3720 C   0  0  0  0  0  0
    6.0860    3.3930  -23.9230 C   0  0  0  0  0  0
   -4.4930    3.7890  -25.9620 C   0  0  0  0  0  0
    2.2870    3.8290  -24.0050 C   0  0  0  0  0  0
    1.4290    4.9110  -23.7140 C   0  0  0  0  0  0
    3.1780    6.1540  -22.9940 C   0  0  0  0  0  0
    3.6760    4.0590  -23.6650 C   0  0  0  0  0  0
    1.7860    2.7010  -24.6830 C   0  0  0  0  0  0
   -0.3660    3.4500  -24.6050 C   0  0  0  0  0  0
    0.1140    4.6810  -23.9890 C   0  0  0  0  0  0
   -1.8120    3.4150  -24.9860 C   0  0  0  0  0  0
    4.3500    1.5780  -23.3780 C   0  0  0  0  0  0
    5.2730    1.2430  -22.2170 C   0  0  2  0  0  0
    6.8290    2.8330  -22.7150 C   0  0  2  0  0  0
    5.2050    2.2350  -21.0440 C   0  0  0  0  0  0
   -2.1170    3.5750  -26.4180 C   0  0  0  0  0  0
   -1.4280    2.8080  -22.0380 C   0  0  0  0  0  0
   -0.3970    2.4880  -21.5160 C   0  0  0  0  0  0
   -0.7650    5.6990  -23.6540 F   0  0  0  0  0  0
   -3.6490    3.0220  -20.5470 F   0  0  0  0  0  0
    1.8620    6.0800  -23.1660 N   0  0  0  0  0  0
    4.1070    5.2200  -23.2040 N   0  0  0  0  0  0
    0.4890    2.5740  -25.0120 N   0  0  0  0  0  0
    4.6270    3.0400  -23.8320 N   0  0  0  0  0  0
    6.6860    1.3540  -22.6740 N   0  0  1  0  0  0
   -3.6170    3.7380  -28.1990 O   0  0  0  0  0  0
   -5.8971    3.5201  -21.5793 H   0  0  0  0  0  0
   -6.3420    3.8425  -23.9760 H   0  0  0  0  0  0
    5.6852    4.2125  -21.4841 H   0  0  0  0  0  0
    6.9550    3.2663  -20.5889 H   0  0  0  0  0  0
    6.5097    2.9663  -24.8441 H   0  0  0  0  0  0
    6.1970    4.4871  -23.9462 H   0  0  0  0  0  0
   -5.5023    3.9467  -26.3246 H   0  0  0  0  0  0
    2.4544    1.8931  -24.9580 H   0  0  0  0  0  0
    3.3036    1.4882  -23.0511 H   0  0  0  0  0  0
    4.5478    0.8907  -24.2137 H   0  0  0  0  0  0
    5.0723    0.2224  -21.8590 H   0  0  0  0  0  0
    7.8898    3.1227  -22.7412 H   0  0  0  0  0  0
    4.2068    2.6963  -21.0157 H   0  0  0  0  0  0
    5.5039    1.7240  -20.1169 H   0  0  0  0  0  0
   -1.3337    3.5830  -27.1672 H   0  0  0  0  0  0
    0.5106    2.2051  -21.0562 H   0  0  0  0  0  0
    7.3353    0.8716  -21.9584 H   0  0  0  0  0  0
   -2.7628    3.6777  -28.6103 H   0  0  0  0  0  0
    5.9310    9.4780  -23.5870 Cl  0  0  0  0  0  0
    4.6970    7.3650  -21.3990 N   0  3  0  0  0  0
    5.1320    8.6670  -20.7670 C   0  0  0  0  0  0
    3.6890    7.5060  -22.5080 C   0  0  0  0  0  0
    7.0410    9.3960  -22.2540 C   0  0  0  0  0  0
    7.4920    8.9380  -19.9630 C   0  0  0  0  0  0
    6.5970    9.0050  -21.0080 C   0  0  0  0  0  0
    9.2530    9.6570  -21.4010 C   0  0  0  0  0  0
    8.3650    9.7230  -22.4490 C   0  0  0  0  0  0
    8.8160    9.2630  -20.1570 C   0  0  0  0  0  0
    4.3253    6.7565  -20.6866 H   0  0  0  0  0  0
    5.5066    6.8736  -21.7443 H   0  0  0  0  0  0
    4.9389    8.6300  -19.6847 H   0  0  0  0  0  0
    4.5019    9.4851  -21.1461 H   0  0  0  0  0  0
    4.1450    8.0490  -23.3490 H   0  0  0  0  0  0
    2.8417    8.1132  -22.1569 H   0  0  0  0  0  0
    7.1560    8.6280  -18.9801 H   0  0  0  0  0  0
   10.2943    9.9161  -21.5550 H   0  0  0  0  0  0
    8.7079   10.0319  -23.4298 H   0  0  0  0  0  0
    9.5143    9.2080  -19.3297 H   0  0  0  0  0  0
  1  2  2  0  0  0
  1  3  1  0  0  0
  1 34  1  0  0  0
  2  6  1  0  0  0
  2 35  1  0  0  0
  3  5  2  0  0  0
  3 27  1  0  0  0
  4  5  1  0  0  0
  4  6  2  0  0  0
  4 18  1  0  0  0
  5 24  1  0  0  0
  6 10  1  0  0  0
  7 10  2  0  0  0
  7 23  1  0  0  0
  7 33  1  0  0  0
  8 21  1  0  0  0
  8 22  1  0  0  0
  8 36  1  0  0  0
  8 37  1  0  0  0
  9 21  1  0  0  0
  9 31  1  0  0  0
  9 38  1  0  0  0
  9 39  1  0  0  0
 10 40  1  0  0  0
 11 12  1  0  0  0
 11 14  2  0  0  0
 11 15  1  0  0  0
 12 17  1  0  0  0
 12 28  2  0  0  0
 13 28  1  0  0  0
 13 29  2  0  0  0
 13 55  1  0  0  0
 14 29  1  0  0  0
 14 31  1  0  0  0
 15 30  2  0  0  0
 15 41  1  0  0  0
 16 17  2  0  0  0
 16 18  1  0  0  0
 16 30  1  0  0  0
 17 26  1  0  0  0
 18 23  2  0  0  0
 19 20  1  0  0  0
 19 31  1  0  0  0
 19 42  1  0  0  0
 19 43  1  0  0  0
 20 22  1  0  0  0
 20 32  1  0  0  0
 20 44  1  0  0  0
 21 32  1  0  0  0
 21 45  1  0  0  0
 22 46  1  0  0  0
 22 47  1  0  0  0
 23 48  1  0  0  0
 24 25  3  0  0  0
 25 49  1  0  0  0
 32 50  1  0  0  0
 33 51  1  0  0  0
 52 56  1  0  0  0
 53 54  1  0  0  0
 53 55  1  0  0  0
 53 62  1  0  0  0
 53 63  1  0  0  0
 54 58  1  0  0  0
 54 64  1  0  0  0
 54 65  1  0  0  0
 55 66  1  0  0  0
 55 67  1  0  0  0
 56 58  2  0  0  0
 56 60  1  0  0  0
 57 58  1  0  0  0
 57 61  2  0  0  0
 57 68  1  0  0  0
 59 60  2  0  0  0
 59 61  1  0  0  0
 59 69  1  0  0  0
 60 70  1  0  0  0
 61 71  1  0  0  0
M  CHG  1  53   1
M  END
> <s_m_entry_id>
346

> <s_m_entry_name>
000000346.1

> <s_m_Source_Path>
/Users/zaksoul/Documents/2

> <s_m_Source_File>
000000346.mol2

> <i_m_Source_File_Index>
1

$$$$
No_0_370
                    3D
 Schrodinger Suite 2022-4.
 71 77  0  0  1  0            999 V2000
   -5.3460    3.6580  -21.9260 C   0  0  0  0  0  0
   -5.5770    3.8620  -23.2650 C   0  0  0  0  0  0
   -4.1170    3.3990  -21.5560 C   0  0  0  0  0  0
   -3.1700    3.5500  -23.6960 C   0  0  0  0  0  0
   -3.0460    3.2890  -22.2750 C   0  0  0  0  0  0
   -4.5030    3.8200  -24.2490 C   0  0  0  0  0  0
   -3.6920    3.8670  -26.4260 C   0  0  0  0  0  0
    5.8980    3.0610  -20.9200 C   0  0  0  0  0  0
    5.8250    3.2340  -23.4710 C   0  0  0  0  0  0
   -4.7200    3.9640  -25.5890 C   0  0  0  0  0  0
    2.0420    3.7860  -23.5790 C   0  0  0  0  0  0
    1.2150    4.8910  -23.2880 C   0  0  0  0  0  0
    2.9960    6.0770  -22.5480 C   0  0  0  0  0  0
    3.4340    3.9710  -23.2280 C   0  0  0  0  0  0
    1.5130    2.6770  -24.2670 C   0  0  0  0  0  0
   -0.6160    3.4910  -24.2020 C   0  0  0  0  0  0
   -0.1040    4.7040  -23.5750 C   0  0  0  0  0  0
   -2.0600    3.5030  -24.5940 C   0  0  0  0  0  0
    4.0300    1.4700  -22.9500 C   0  0  0  0  0  0
    4.9340    1.0990  -21.7840 C   0  0  2  0  0  0
    6.5410    2.6450  -22.2610 C   0  0  2  0  0  0
    4.8860    2.0870  -20.6060 C   0  0  0  0  0  0
   -2.3480    3.6790  -26.0280 C   0  0  0  0  0  0
   -1.7180    2.8670  -21.6470 C   0  0  0  0  0  0
   -0.7010    2.5130  -21.1190 C   0  0  0  0  0  0
   -0.9540    5.7460  -23.2410 F   0  0  0  0  0  0
   -3.9430    3.1410  -20.1720 F   0  0  0  0  0  0
    1.6790    6.0440  -22.7310 N   0  0  0  0  0  0
    3.8970    5.1160  -22.7560 N   0  0  0  0  0  0
    0.2140    2.5920  -24.6070 N   0  0  0  0  0  0
    4.3560    2.9250  -23.3930 N   0  0  0  0  0  0
    6.3530    1.1710  -22.2290 N   0  0  1  0  0  0
   -3.8290    3.8990  -27.8200 O   0  0  0  0  0  0
   -6.1661    3.7132  -21.2193 H   0  0  0  0  0  0
   -6.5824    4.0627  -23.6172 H   0  0  0  0  0  0
    5.4309    4.0508  -21.0300 H   0  0  0  0  0  0
    6.6641    3.0620  -20.1307 H   0  0  0  0  0  0
    6.2431    2.7997  -24.3911 H   0  0  0  0  0  0
    5.9694    4.3244  -23.4872 H   0  0  0  0  0  0
   -5.7212    4.1538  -25.9586 H   0  0  0  0  0  0
    2.1584    1.8510  -24.5430 H   0  0  0  0  0  0
    2.9787    1.4104  -22.6319 H   0  0  0  0  0  0
    4.2137    0.7815  -23.7880 H   0  0  0  0  0  0
    4.6998    0.0833  -21.4326 H   0  0  0  0  0  0
    7.6106    2.9013  -22.2771 H   0  0  0  0  0  0
    3.9022    2.5784  -20.5818 H   0  0  0  0  0  0
    5.1625    1.5623  -19.6796 H   0  0  0  0  0  0
   -1.5588    3.6680  -26.7710 H   0  0  0  0  0  0
    0.1940    2.2000  -20.6540 H   0  0  0  0  0  0
    6.9816    0.6643  -21.5117 H   0  0  0  0  0  0
   -2.9735    3.8149  -28.2245 H   0  0  0  0  0  0
    5.4010    9.6110  -23.3850 Cl  0  0  0  0  0  0
    4.7780    7.2350  -21.2070 N   0  3  0  0  0  0
    5.2870    8.5000  -20.5560 C   0  0  0  0  0  0
    3.5440    7.4100  -22.0500 C   0  0  0  0  0  0
    6.7840    9.4810  -22.3410 C   0  0  0  0  0  0
    7.7530    8.8500  -20.2620 C   0  0  0  0  0  0
    6.6460    8.9520  -21.0750 C   0  0  0  0  0  0
    9.1160    9.8070  -21.9680 C   0  0  0  0  0  0
    8.0150    9.9090  -22.7860 C   0  0  0  0  0  0
    8.9850    9.2750  -20.7060 C   0  0  0  0  0  0
    4.6011    6.5424  -20.4964 H   0  0  0  0  0  0
    5.5106    6.8302  -21.7687 H   0  0  0  0  0  0
    5.3420    8.3539  -19.4671 H   0  0  0  0  0  0
    4.5540    9.3070  -20.7030 H   0  0  0  0  0  0
    3.7770    8.0550  -22.9100 H   0  0  0  0  0  0
    2.7703    7.9268  -21.4632 H   0  0  0  0  0  0
    7.6579    8.4318  -19.2665 H   0  0  0  0  0  0
   10.0847   10.1449  -22.3179 H   0  0  0  0  0  0
    8.1170   10.3261  -23.7813 H   0  0  0  0  0  0
    9.8516    9.1910  -20.0603 H   0  0  0  0  0  0
  1  2  2  0  0  0
  1  3  1  0  0  0
  1 34  1  0  0  0
  2  6  1  0  0  0
  2 35  1  0  0  0
  3  5  2  0  0  0
  3 27  1  0  0  0
  4  5  1  0  0  0
  4  6  2  0  0  0
  4 18  1  0  0  0
  5 24  1  0  0  0
  6 10  1  0  0  0
  7 10  2  0  0  0
  7 23  1  0  0  0
  7 33  1  0  0  0
  8 21  1  0  0  0
  8 22  1  0  0  0
  8 36  1  0  0  0
  8 37  1  0  0  0
  9 21  1  0  0  0
  9 31  1  0  0  0
  9 38  1  0  0  0
  9 39  1  0  0  0
 10 40  1  0  0  0
 11 12  1  0  0  0
 11 14  2  0  0  0
 11 15  1  0  0  0
 12 17  1  0  0  0
 12 28  2  0  0  0
 13 28  1  0  0  0
 13 29  2  0  0  0
 13 55  1  0  0  0
 14 29  1  0  0  0
 14 31  1  0  0  0
 15 30  2  0  0  0
 15 41  1  0  0  0
 16 17  2  0  0  0
 16 18  1  0  0  0
 16 30  1  0  0  0
 17 26  1  0  0  0
 18 23  2  0  0  0
 19 20  1  0  0  0
 19 31  1  0  0  0
 19 42  1  0  0  0
 19 43  1  0  0  0
 20 22  1  0  0  0
 20 32  1  0  0  0
 20 44  1  0  0  0
 21 32  1  0  0  0
 21 45  1  0  0  0
 22 46  1  0  0  0
 22 47  1  0  0  0
 23 48  1  0  0  0
 24 25  3  0  0  0
 25 49  1  0  0  0
 32 50  1  0  0  0
 33 51  1  0  0  0
 52 56  1  0  0  0
 53 54  1  0  0  0
 53 55  1  0  0  0
 53 62  1  0  0  0
 53 63  1  0  0  0
 54 58  1  0  0  0
 54 64  1  0  0  0
 54 65  1  0  0  0
 55 66  1  0  0  0
 55 67  1  0  0  0
 56 58  2  0  0  0
 56 60  1  0  0  0
 57 58  1  0  0  0
 57 61  2  0  0  0
 57 68  1  0  0  0
 59 60  2  0  0  0
 59 61  1  0  0  0
 59 69  1  0  0  0
 60 70  1  0  0  0
 61 71  1  0  0  0
M  CHG  1  53   1
M  END
> <s_m_entry_id>
347

> <s_m_entry_name>
000000347.1

> <s_m_Source_Path>
/Users/zaksoul/Documents/2

> <s_m_Source_File>
000000347.mol2

> <i_m_Source_File_Index>
1

$$$$
No_0_371
                    3D
 Schrodinger Suite 2022-4.
 71 77  0  0  1  0            999 V2000
   -5.4250    3.2330  -22.3060 C   0  0  0  0  0  0
   -5.6710    3.4160  -23.6460 C   0  0  0  0  0  0
   -4.1860    3.0180  -21.9420 C   0  0  0  0  0  0
   -3.2580    3.1760  -24.0900 C   0  0  0  0  0  0
   -3.1170    2.9330  -22.6670 C   0  0  0  0  0  0
   -4.6020    3.3980  -24.6360 C   0  0  0  0  0  0
   -3.8060    3.4470  -26.8190 C   0  0  0  0  0  0
    5.8380    3.0020  -21.3680 C   0  0  0  0  0  0
    5.7440    3.1450  -23.9200 C   0  0  0  0  0  0
   -4.8320    3.5200  -25.9760 C   0  0  0  0  0  0
    1.9450    3.5760  -24.0090 C   0  0  0  0  0  0
    1.0850    4.6580  -23.7240 C   0  0  0  0  0  0
    2.8320    5.9080  -23.0080 C   0  0  0  0  0  0
    3.3330    3.8090  -23.6690 C   0  0  0  0  0  0
    1.4460    2.4440  -24.6820 C   0  0  0  0  0  0
   -0.7070    3.1910  -24.6120 C   0  0  0  0  0  0
   -0.2290    4.4260  -24.0010 C   0  0  0  0  0  0
   -2.1520    3.1530  -24.9940 C   0  0  0  0  0  0
    4.0090    1.3310  -23.3690 C   0  0  0  0  0  0
    4.9310    1.0020  -22.2050 C   0  0  2  0  0  0
    6.4860    2.5920  -22.7080 C   0  0  2  0  0  0
    4.8600    2.0000  -21.0370 C   0  0  0  0  0  0
   -2.4550    3.3060  -26.4280 C   0  0  0  0  0  0
   -1.7720    2.5610  -22.0430 C   0  0  0  0  0  0
   -0.7410    2.2440  -21.5180 C   0  0  0  0  0  0
   -1.1090    5.4440  -23.6710 F   0  0  0  0  0  0
   -3.9950    2.7790  -20.5560 F   0  0  0  0  0  0
    1.5160    5.8310  -23.1820 N   0  0  0  0  0  0
    3.7620    4.9730  -23.2130 N   0  0  0  0  0  0
    0.1500    2.3150  -25.0130 N   0  0  0  0  0  0
    4.2860    2.7910  -23.8300 N   0  0  0  0  0  0
    6.3440    1.1130  -22.6600 N   0  0  1  0  0  0
   -3.9530    3.4590  -28.2120 O   0  0  0  0  0  0
   -6.2424    3.2702  -21.5950 H   0  0  0  0  0  0
   -6.6846    3.5806  -23.9932 H   0  0  0  0  0  0
    5.3392    3.9753  -21.4861 H   0  0  0  0  0  0
    6.6084    3.0353  -20.5835 H   0  0  0  0  0  0
    6.1698    2.7142  -24.8382 H   0  0  0  0  0  0
    5.8540    4.2391  -23.9483 H   0  0  0  0  0  0
   -5.8408    3.6746  -26.3414 H   0  0  0  0  0  0
    2.1163    1.6363  -24.9529 H   0  0  0  0  0  0
    2.9623    1.2412  -23.0430 H   0  0  0  0  0  0
    4.2089    0.6395  -24.2008 H   0  0  0  0  0  0
    4.7313   -0.0169  -21.8418 H   0  0  0  0  0  0
    7.5468    2.8817  -22.7342 H   0  0  0  0  0  0
    3.8612    2.4601  -21.0118 H   0  0  0  0  0  0
    5.1585    1.4937  -20.1072 H   0  0  0  0  0  0
   -1.6702    3.3110  -27.1757 H   0  0  0  0  0  0
    0.1661    1.9650  -21.0549 H   0  0  0  0  0  0
    6.9929    0.6341  -21.9417 H   0  0  0  0  0  0
   -3.0979    3.3977  -28.6213 H   0  0  0  0  0  0
    4.5890   10.4370  -22.5850 F   0  0  0  0  0  0
    3.3080    7.3700  -21.0260 N   0  3  0  0  0  0
    3.8230    8.6730  -20.4660 C   0  0  0  0  0  0
    3.3410    7.2620  -22.5280 C   0  0  0  0  0  0
    5.5660    9.8060  -21.9150 C   0  0  0  0  0  0
    6.2940    8.3290  -20.1940 C   0  0  0  0  0  0
    5.2670    8.9530  -20.8690 C   0  0  0  0  0  0
    7.8950    9.3850  -21.6080 C   0  0  0  0  0  0
    7.6030    8.5450  -20.5590 C   0  0  0  0  0  0
    6.8770   10.0140  -22.2840 C   0  0  0  0  0  0
    2.3659    7.2170  -20.7020 H   0  0  0  0  0  0
    3.8292    6.6057  -20.6258 H   0  0  0  0  0  0
    3.7470    8.6550  -19.3688 H   0  0  0  0  0  0
    3.1811    9.4979  -20.8089 H   0  0  0  0  0  0
    4.3710    7.4140  -22.8830 H   0  0  0  0  0  0
    2.7242    8.0607  -22.9658 H   0  0  0  0  0  0
    6.0731    7.6612  -19.3692 H   0  0  0  0  0  0
    8.9260    9.5490  -21.9000 H   0  0  0  0  0  0
    8.4043    8.0538  -20.0188 H   0  0  0  0  0  0
    7.1089   10.6768  -23.1098 H   0  0  0  0  0  0
  1  2  2  0  0  0
  1  3  1  0  0  0
  1 34  1  0  0  0
  2  6  1  0  0  0
  2 35  1  0  0  0
  3  5  2  0  0  0
  3 27  1  0  0  0
  4  5  1  0  0  0
  4  6  2  0  0  0
  4 18  1  0  0  0
  5 24  1  0  0  0
  6 10  1  0  0  0
  7 10  2  0  0  0
  7 23  1  0  0  0
  7 33  1  0  0  0
  8 21  1  0  0  0
  8 22  1  0  0  0
  8 36  1  0  0  0
  8 37  1  0  0  0
  9 21  1  0  0  0
  9 31  1  0  0  0
  9 38  1  0  0  0
  9 39  1  0  0  0
 10 40  1  0  0  0
 11 12  1  0  0  0
 11 14  2  0  0  0
 11 15  1  0  0  0
 12 17  1  0  0  0
 12 28  2  0  0  0
 13 28  1  0  0  0
 13 29  2  0  0  0
 13 55  1  0  0  0
 14 29  1  0  0  0
 14 31  1  0  0  0
 15 30  2  0  0  0
 15 41  1  0  0  0
 16 17  2  0  0  0
 16 18  1  0  0  0
 16 30  1  0  0  0
 17 26  1  0  0  0
 18 23  2  0  0  0
 19 20  1  0  0  0
 19 31  1  0  0  0
 19 42  1  0  0  0
 19 43  1  0  0  0
 20 22  1  0  0  0
 20 32  1  0  0  0
 20 44  1  0  0  0
 21 32  1  0  0  0
 21 45  1  0  0  0
 22 46  1  0  0  0
 22 47  1  0  0  0
 23 48  1  0  0  0
 24 25  3  0  0  0
 25 49  1  0  0  0
 32 50  1  0  0  0
 33 51  1  0  0  0
 52 56  1  0  0  0
 53 54  1  0  0  0
 53 55  1  0  0  0
 53 62  1  0  0  0
 53 63  1  0  0  0
 54 58  1  0  0  0
 54 64  1  0  0  0
 54 65  1  0  0  0
 55 66  1  0  0  0
 55 67  1  0  0  0
 56 58  2  0  0  0
 56 61  1  0  0  0
 57 58  1  0  0  0
 57 60  2  0  0  0
 57 68  1  0  0  0
 59 60  1  0  0  0
 59 61  2  0  0  0
 59 69  1  0  0  0
 60 70  1  0  0  0
 61 71  1  0  0  0
M  CHG  1  53   1
M  END
> <s_m_entry_id>
348

> <s_m_entry_name>
000000348.1

> <s_m_Source_Path>
/Users/zaksoul/Documents/2

> <s_m_Source_File>
000000348.mol2

> <i_m_Source_File_Index>
1

$$$$
No_0_372
                    3D
 Schrodinger Suite 2022-4.
 71 77  0  0  1  0            999 V2000
   -5.2660    3.3410  -22.0330 C   0  0  0  0  0  0
   -5.5210    3.5010  -23.3740 C   0  0  0  0  0  0
   -4.0240    3.1370  -21.6730 C   0  0  0  0  0  0
   -3.1100    3.2640  -23.8290 C   0  0  0  0  0  0
   -2.9590    3.0460  -22.4030 C   0  0  0  0  0  0
   -4.4590    3.4710  -24.3710 C   0  0  0  0  0  0
   -3.6770    3.4880  -26.5590 C   0  0  0  0  0  0
    6.0040    3.1750  -21.1640 C   0  0  0  0  0  0
    5.8930    3.2760  -23.7170 C   0  0  0  0  0  0
   -4.6970    3.5700  -25.7110 C   0  0  0  0  0  0
    2.0920    3.6890  -23.7890 C   0  0  0  0  0  0
    1.2280    4.7720  -23.5160 C   0  0  0  0  0  0
    2.9740    6.0400  -22.8320 C   0  0  0  0  0  0
    3.4800    3.9340  -23.4610 C   0  0  0  0  0  0
    1.5940    2.5440  -24.4400 C   0  0  0  0  0  0
   -0.5620    3.2820  -24.3680 C   0  0  0  0  0  0
   -0.0860    4.5290  -23.7810 C   0  0  0  0  0  0
   -2.0100    3.2320  -24.7400 C   0  0  0  0  0  0
    4.1700    1.4630  -23.1250 C   0  0  0  0  0  0
    5.1010    1.1570  -21.9620 C   0  0  2  0  0  0
    6.6450    2.7460  -22.5010 C   0  0  2  0  0  0
    5.0330    2.1740  -20.8100 C   0  0  0  0  0  0
   -2.3220    3.3590  -26.1740 C   0  0  0  0  0  0
   -1.6080    2.6890  -21.7820 C   0  0  0  0  0  0
   -0.5730    2.3850  -21.2590 C   0  0  0  0  0  0
   -0.9690    5.5480  -23.4620 F   0  0  0  0  0  0
   -3.8230    2.9220  -20.2850 F   0  0  0  0  0  0
    1.6570    5.9540  -22.9960 N   0  0  0  0  0  0
    3.9070    5.1070  -23.0270 N   0  0  0  0  0  0
    0.2960    2.4030  -24.7600 N   0  0  0  0  0  0
    4.4370    2.9170  -23.6120 N   0  0  0  0  0  0
    6.5100    1.2670  -22.4280 N   0  0  1  0  0  0
   -3.8320    3.4770  -27.9510 O   0  0  0  0  0  0
   -6.0790    3.3862  -21.3174 H   0  0  0  0  0  0
   -6.5373    3.6555  -23.7181 H   0  0  0  0  0  0
    5.4994    4.1438  -21.2942 H   0  0  0  0  0  0
    6.7790    3.2244  -20.3850 H   0  0  0  0  0  0
    6.3151    2.8327  -24.6309 H   0  0  0  0  0  0
    5.9980    4.3700  -23.7644 H   0  0  0  0  0  0
   -5.7087    3.7145  -26.0723 H   0  0  0  0  0  0
    2.2653    1.7342  -24.7019 H   0  0  0  0  0  0
    3.1253    1.3752  -22.7919 H   0  0  0  0  0  0
    4.3678    0.7597  -23.9474 H   0  0  0  0  0  0
    4.9081    0.1432  -21.5813 H   0  0  0  0  0  0
    7.7044    3.0396  -22.5383 H   0  0  0  0  0  0
    4.0323    2.6300  -20.7858 H   0  0  0  0  0  0
    5.3388    1.6846  -19.8735 H   0  0  0  0  0  0
   -1.5426    3.3560  -26.9273 H   0  0  0  0  0  0
    0.3388    2.1181  -20.7981 H   0  0  0  0  0  0
    7.1663    0.8031  -21.7065 H   0  0  0  0  0  0
   -2.9792    3.4127  -28.3646 H   0  0  0  0  0  0
    4.4930    7.2660  -21.2680 N   0  0  1  0  0  0
    7.5430    9.0720  -21.0880 N   0  0  0  0  0  0
    5.0670    8.5610  -20.7510 C   0  0  0  0  0  0
    3.4800    7.4050  -22.3770 C   0  0  0  0  0  0
    6.2580    9.0650  -21.5570 C   0  0  0  0  0  0
    6.2030    9.5620  -22.7960 C   0  0  0  0  0  0
    7.5280    9.9050  -23.1570 C   0  0  0  0  0  0
    8.2850    9.5940  -22.1060 C   0  0  0  0  0  0
    8.0390    8.6390  -19.7750 C   0  0  0  0  0  0
    5.2890    6.6490  -21.6580 H   0  0  0  0  0  0
    5.3651    8.4340  -19.6998 H   0  0  0  0  0  0
    4.2808    9.3302  -20.7410 H   0  0  0  0  0  0
    3.9393    7.9283  -23.2286 H   0  0  0  0  0  0
    2.6319    8.0101  -22.0240 H   0  0  0  0  0  0
    5.2511    9.6310  -23.3100 H   0  0  0  0  0  0
    7.7310   10.3289  -24.1338 H   0  0  0  0  0  0
    9.3568    9.7090  -21.9920 H   0  0  0  0  0  0
    9.1290    8.7800  -19.7300 H   0  0  0  0  0  0
    7.5597    9.2364  -18.9855 H   0  0  0  0  0  0
    7.8020    7.5752  -19.6260 H   0  0  0  0  0  0
  1  2  2  0  0  0
  1  3  1  0  0  0
  1 34  1  0  0  0
  2  6  1  0  0  0
  2 35  1  0  0  0
  3  5  2  0  0  0
  3 27  1  0  0  0
  4  5  1  0  0  0
  4  6  2  0  0  0
  4 18  1  0  0  0
  5 24  1  0  0  0
  6 10  1  0  0  0
  7 10  2  0  0  0
  7 23  1  0  0  0
  7 33  1  0  0  0
  8 21  1  0  0  0
  8 22  1  0  0  0
  8 36  1  0  0  0
  8 37  1  0  0  0
  9 21  1  0  0  0
  9 31  1  0  0  0
  9 38  1  0  0  0
  9 39  1  0  0  0
 10 40  1  0  0  0
 11 12  1  0  0  0
 11 14  2  0  0  0
 11 15  1  0  0  0
 12 17  1  0  0  0
 12 28  2  0  0  0
 13 28  1  0  0  0
 13 29  2  0  0  0
 13 55  1  0  0  0
 14 29  1  0  0  0
 14 31  1  0  0  0
 15 30  2  0  0  0
 15 41  1  0  0  0
 16 17  2  0  0  0
 16 18  1  0  0  0
 16 30  1  0  0  0
 17 26  1  0  0  0
 18 23  2  0  0  0
 19 20  1  0  0  0
 19 31  1  0  0  0
 19 42  1  0  0  0
 19 43  1  0  0  0
 20 22  1  0  0  0
 20 32  1  0  0  0
 20 44  1  0  0  0
 21 32  1  0  0  0
 21 45  1  0  0  0
 22 46  1  0  0  0
 22 47  1  0  0  0
 23 48  1  0  0  0
 24 25  3  0  0  0
 25 49  1  0  0  0
 32 50  1  0  0  0
 33 51  1  0  0  0
 52 54  1  0  0  0
 52 55  1  0  0  0
 52 61  1  0  0  0
 53 56  1  0  0  0
 53 59  1  0  0  0
 53 60  1  0  0  0
 54 56  1  0  0  0
 54 62  1  0  0  0
 54 63  1  0  0  0
 55 64  1  0  0  0
 55 65  1  0  0  0
 56 57  2  0  0  0
 57 58  1  0  0  0
 57 66  1  0  0  0
 58 59  2  0  0  0
 58 67  1  0  0  0
 59 68  1  0  0  0
 60 69  1  0  0  0
 60 70  1  0  0  0
 60 71  1  0  0  0
M  END
> <s_m_entry_id>
349

> <s_m_entry_name>
000000349.1

> <s_m_Source_Path>
/Users/zaksoul/Documents/2

> <s_m_Source_File>
000000349.mol2

> <i_m_Source_File_Index>
1

$$$$
No_0_373
                    3D
 Schrodinger Suite 2022-4.
 71 77  0  0  1  0            999 V2000
   -5.2950    3.3280  -22.0790 C   0  0  0  0  0  0
   -5.5430    3.5080  -23.4190 C   0  0  0  0  0  0
   -4.0560    3.1150  -21.7150 C   0  0  0  0  0  0
   -3.1300    3.2710  -23.8640 C   0  0  0  0  0  0
   -2.9870    3.0310  -22.4410 C   0  0  0  0  0  0
   -4.4750    3.4890  -24.4100 C   0  0  0  0  0  0
   -3.6810    3.5360  -26.5940 C   0  0  0  0  0  0
    5.9690    3.1190  -21.1500 C   0  0  0  0  0  0
    5.8720    3.2580  -23.7020 C   0  0  0  0  0  0
   -4.7060    3.6090  -25.7500 C   0  0  0  0  0  0
    2.0730    3.6810  -23.7890 C   0  0  0  0  0  0
    1.2100    4.7620  -23.5050 C   0  0  0  0  0  0
    2.9560    6.0160  -22.7930 C   0  0  0  0  0  0
    3.4600    3.9180  -23.4500 C   0  0  0  0  0  0
    1.5750    2.5470  -24.4600 C   0  0  0  0  0  0
   -0.5790    3.2910  -24.3880 C   0  0  0  0  0  0
   -0.1040    4.5270  -23.7800 C   0  0  0  0  0  0
   -2.0250    3.2490  -24.7690 C   0  0  0  0  0  0
    4.1410    1.4410  -23.1460 C   0  0  0  0  0  0
    5.0650    1.1160  -21.9820 C   0  0  2  0  0  0
    6.6160    2.7080  -22.4900 C   0  0  2  0  0  0
    4.9930    2.1160  -20.8160 C   0  0  0  0  0  0
   -2.3290    3.3980  -26.2030 C   0  0  0  0  0  0
   -1.6410    2.6620  -21.8170 C   0  0  0  0  0  0
   -0.6090    2.3480  -21.2930 C   0  0  0  0  0  0
   -0.9850    5.5440  -23.4520 F   0  0  0  0  0  0
   -3.8630    2.8790  -20.3290 F   0  0  0  0  0  0
    1.6390    5.9360  -22.9660 N   0  0  0  0  0  0
    3.8870    5.0830  -22.9960 N   0  0  0  0  0  0
    0.2780    2.4150  -24.7890 N   0  0  0  0  0  0
    4.4150    2.9010  -23.6100 N   0  0  0  0  0  0
    6.4770    1.2290  -22.4390 N   0  0  1  0  0  0
   -3.8290    3.5450  -27.9860 O   0  0  0  0  0  0
   -6.1120    3.3641  -21.3674 H   0  0  0  0  0  0
   -6.5570    3.6696  -23.7664 H   0  0  0  0  0  0
    5.4679    4.0910  -21.2690 H   0  0  0  0  0  0
    6.7403    3.1553  -20.3666 H   0  0  0  0  0  0
    6.2976    2.8263  -24.6199 H   0  0  0  0  0  0
    5.9800    4.3523  -23.7323 H   0  0  0  0  0  0
   -5.7156    3.7605  -26.1143 H   0  0  0  0  0  0
    2.2465    1.7400  -24.7300 H   0  0  0  0  0  0
    3.0944    1.3502  -22.8200 H   0  0  0  0  0  0
    4.3417    0.7490  -23.9772 H   0  0  0  0  0  0
    4.8673    0.0970  -21.6178 H   0  0  0  0  0  0
    7.6763    2.9996  -22.5172 H   0  0  0  0  0  0
    3.9932    2.5740  -20.7908 H   0  0  0  0  0  0
    5.2928    1.6123  -19.8852 H   0  0  0  0  0  0
   -1.5451    3.4040  -26.9517 H   0  0  0  0  0  0
    0.2994    2.0719  -20.8308 H   0  0  0  0  0  0
    7.1278    0.7524  -21.7209 H   0  0  0  0  0  0
   -2.9744    3.4847  -28.3965 H   0  0  0  0  0  0
    4.7100    7.2230  -21.4810 N   0  0  1  0  0  0
    7.5960    9.2670  -21.7850 N   0  0  0  0  0  0
    5.3010    8.5110  -20.9660 C   0  0  0  0  0  0
    3.4620    7.3730  -22.3150 C   0  0  0  0  0  0
    6.2400    9.1900  -21.9560 C   0  0  0  0  0  0
    5.8700    9.7910  -23.0900 C   0  0  0  0  0  0
    7.0510   10.2810  -23.6960 C   0  0  0  0  0  0
    8.0480    9.9430  -22.8790 C   0  0  0  0  0  0
    8.4070    8.7610  -20.6710 C   0  0  0  0  0  0
    5.4342    6.7169  -22.1021 H   0  0  0  0  0  0
    5.8399    8.3151  -20.0273 H   0  0  0  0  0  0
    4.4899    9.2041  -20.6980 H   0  0  0  0  0  0
    3.6781    8.0102  -23.1852 H   0  0  0  0  0  0
    2.6807    7.8672  -21.7188 H   0  0  0  0  0  0
    4.8233    9.8230  -23.3699 H   0  0  0  0  0  0
    6.9970   10.8079  -24.6418 H   0  0  0  0  0  0
    9.1075   10.1411  -22.9941 H   0  0  0  0  0  0
    9.4667    8.9932  -20.8531 H   0  0  0  0  0  0
    8.0832    9.2387  -19.7346 H   0  0  0  0  0  0
    8.2789    7.6716  -20.5890 H   0  0  0  0  0  0
  1  2  2  0  0  0
  1  3  1  0  0  0
  1 34  1  0  0  0
  2  6  1  0  0  0
  2 35  1  0  0  0
  3  5  2  0  0  0
  3 27  1  0  0  0
  4  5  1  0  0  0
  4  6  2  0  0  0
  4 18  1  0  0  0
  5 24  1  0  0  0
  6 10  1  0  0  0
  7 10  2  0  0  0
  7 23  1  0  0  0
  7 33  1  0  0  0
  8 21  1  0  0  0
  8 22  1  0  0  0
  8 36  1  0  0  0
  8 37  1  0  0  0
  9 21  1  0  0  0
  9 31  1  0  0  0
  9 38  1  0  0  0
  9 39  1  0  0  0
 10 40  1  0  0  0
 11 12  1  0  0  0
 11 14  2  0  0  0
 11 15  1  0  0  0
 12 17  1  0  0  0
 12 28  2  0  0  0
 13 28  1  0  0  0
 13 29  2  0  0  0
 13 55  1  0  0  0
 14 29  1  0  0  0
 14 31  1  0  0  0
 15 30  2  0  0  0
 15 41  1  0  0  0
 16 17  2  0  0  0
 16 18  1  0  0  0
 16 30  1  0  0  0
 17 26  1  0  0  0
 18 23  2  0  0  0
 19 20  1  0  0  0
 19 31  1  0  0  0
 19 42  1  0  0  0
 19 43  1  0  0  0
 20 22  1  0  0  0
 20 32  1  0  0  0
 20 44  1  0  0  0
 21 32  1  0  0  0
 21 45  1  0  0  0
 22 46  1  0  0  0
 22 47  1  0  0  0
 23 48  1  0  0  0
 24 25  3  0  0  0
 25 49  1  0  0  0
 32 50  1  0  0  0
 33 51  1  0  0  0
 52 54  1  0  0  0
 52 55  1  0  0  0
 52 61  1  0  0  0
 53 56  1  0  0  0
 53 59  1  0  0  0
 53 60  1  0  0  0
 54 56  1  0  0  0
 54 62  1  0  0  0
 54 63  1  0  0  0
 55 64  1  0  0  0
 55 65  1  0  0  0
 56 57  2  0  0  0
 57 58  1  0  0  0
 57 66  1  0  0  0
 58 59  2  0  0  0
 58 67  1  0  0  0
 59 68  1  0  0  0
 60 69  1  0  0  0
 60 70  1  0  0  0
 60 71  1  0  0  0
M  END
> <s_m_entry_id>
350

> <s_m_entry_name>
000000350.1

> <s_m_Source_Path>
/Users/zaksoul/Documents/2

> <s_m_Source_File>
000000350.mol2

> <i_m_Source_File_Index>
1

$$$$
No_0_374
                    3D
 Schrodinger Suite 2022-4.
 72 78  0  0  1  0            999 V2000
   -5.1780    3.4830  -22.1070 C   0  0  0  0  0  0
   -5.4370    3.6440  -23.4470 C   0  0  0  0  0  0
   -3.9370    3.2610  -21.7520 C   0  0  0  0  0  0
   -3.0310    3.3700  -23.9130 C   0  0  0  0  0  0
   -2.8770    3.1530  -22.4870 C   0  0  0  0  0  0
   -4.3800    3.5960  -24.4490 C   0  0  0  0  0  0
   -3.6070    3.5970  -26.6410 C   0  0  0  0  0  0
    6.0920    3.1520  -21.2890 C   0  0  0  0  0  0
    5.9710    3.2500  -23.8420 C   0  0  0  0  0  0
   -4.6230    3.6960  -25.7880 C   0  0  0  0  0  0
    2.1760    3.7180  -23.8970 C   0  0  0  0  0  0
    1.3300    4.8150  -23.6230 C   0  0  0  0  0  0
    3.0980    6.0580  -22.9490 C   0  0  0  0  0  0
    3.5700    3.9440  -23.5770 C   0  0  0  0  0  0
    1.6580    2.5800  -24.5440 C   0  0  0  0  0  0
   -0.4860    3.3500  -24.4630 C   0  0  0  0  0  0
    0.0110    4.5910  -23.8810 C   0  0  0  0  0  0
   -1.9360    3.3200  -24.8290 C   0  0  0  0  0  0
    4.2240    1.4640  -23.2380 C   0  0  0  0  0  0
    5.1560    1.1470  -22.0790 C   0  0  2  0  0  0
    6.7210    2.7110  -22.6290 C   0  0  2  0  0  0
    5.1080    2.1660  -20.9290 C   0  0  0  0  0  0
   -2.2530    3.4490  -26.2620 C   0  0  0  0  0  0
   -1.5290    2.7770  -21.8720 C   0  0  0  0  0  0
   -0.4960    2.4600  -21.3520 C   0  0  0  0  0  0
   -0.8550    5.6240  -23.5600 F   0  0  0  0  0  0
   -3.7330    3.0460  -20.3650 F   0  0  0  0  0  0
    1.7790    5.9920  -23.1070 N   0  0  0  0  0  0
    4.0150    5.1110  -23.1470 N   0  0  0  0  0  0
    0.3570    2.4580  -24.8580 N   0  0  0  0  0  0
    4.5110    2.9120  -23.7290 N   0  0  0  0  0  0
    6.5650    1.2350  -22.5520 N   0  0  1  0  0  0
   -3.7690    3.5860  -28.0320 O   0  0  0  0  0  0
   -5.9863    3.5412  -21.3871 H   0  0  0  0  0  0
   -6.4527    3.8126  -23.7862 H   0  0  0  0  0  0
    5.6019    4.1282  -21.4191 H   0  0  0  0  0  0
    6.8718    3.1913  -20.5142 H   0  0  0  0  0  0
    6.3819    2.7977  -24.7567 H   0  0  0  0  0  0
    6.0921    4.3422  -23.8915 H   0  0  0  0  0  0
   -5.6340    3.8546  -26.1454 H   0  0  0  0  0  0
    2.3159    1.7596  -24.8068 H   0  0  0  0  0  0
    3.1798    1.3913  -22.8997 H   0  0  0  0  0  0
    4.4075    0.7562  -24.0598 H   0  0  0  0  0  0
    4.9503    0.1366  -21.6958 H   0  0  0  0  0  0
    7.7843    2.9894  -22.6714 H   0  0  0  0  0  0
    4.1144    2.6371  -20.9008 H   0  0  0  0  0  0
    5.4117    1.6747  -19.9928 H   0  0  0  0  0  0
   -1.4771    3.4329  -27.0188 H   0  0  0  0  0  0
    0.4139    2.1800  -20.8950 H   0  0  0  0  0  0
    7.2172    0.7624  -21.8325 H   0  0  0  0  0  0
   -2.9194    3.5078  -28.4499 H   0  0  0  0  0  0
    3.6030    7.5330  -20.9970 N   0  0  1  0  0  0
    7.4580   10.2690  -21.5540 N   0  0  0  0  0  0
    3.6260    7.4160  -22.4990 C   0  0  0  0  0  0
    4.0780    8.8510  -20.4380 C   0  0  0  0  0  0
    5.5760    9.0860  -20.6250 C   0  0  0  0  0  0
    6.1310   10.0740  -21.4150 C   0  0  0  0  0  0
    6.4250    8.2520  -19.9430 C   0  0  0  0  0  0
    7.7780    8.4190  -20.0650 C   0  0  0  0  0  0
    5.2380   11.0230  -22.1930 C   0  0  0  0  0  0
    8.2510    9.4250  -20.8680 C   0  0  0  0  0  0
    2.5921    7.4000  -20.6410 H   0  0  0  0  0  0
    4.6564    7.5470  -22.8611 H   0  0  0  0  0  0
    3.0077    8.2131  -22.9375 H   0  0  0  0  0  0
    3.8311    8.9030  -19.3673 H   0  0  0  0  0  0
    3.5177    9.6714  -20.9102 H   0  0  0  0  0  0
    6.0239    7.4657  -19.3138 H   0  0  0  0  0  0
    8.4557    7.7624  -19.5315 H   0  0  0  0  0  0
    4.1837   10.7719  -22.0049 H   0  0  0  0  0  0
    5.4321   12.0564  -21.8699 H   0  0  0  0  0  0
    5.4510   10.9290  -23.2681 H   0  0  0  0  0  0
    9.3287    9.5210  -20.9340 H   0  0  0  0  0  0
  1  2  2  0  0  0
  1  3  1  0  0  0
  1 34  1  0  0  0
  2  6  1  0  0  0
  2 35  1  0  0  0
  3  5  2  0  0  0
  3 27  1  0  0  0
  4  5  1  0  0  0
  4  6  2  0  0  0
  4 18  1  0  0  0
  5 24  1  0  0  0
  6 10  1  0  0  0
  7 10  2  0  0  0
  7 23  1  0  0  0
  7 33  1  0  0  0
  8 21  1  0  0  0
  8 22  1  0  0  0
  8 36  1  0  0  0
  8 37  1  0  0  0
  9 21  1  0  0  0
  9 31  1  0  0  0
  9 38  1  0  0  0
  9 39  1  0  0  0
 10 40  1  0  0  0
 11 12  1  0  0  0
 11 14  2  0  0  0
 11 15  1  0  0  0
 12 17  1  0  0  0
 12 28  2  0  0  0
 13 28  1  0  0  0
 13 29  2  0  0  0
 13 54  1  0  0  0
 14 29  1  0  0  0
 14 31  1  0  0  0
 15 30  2  0  0  0
 15 41  1  0  0  0
 16 17  2  0  0  0
 16 18  1  0  0  0
 16 30  1  0  0  0
 17 26  1  0  0  0
 18 23  2  0  0  0
 19 20  1  0  0  0
 19 31  1  0  0  0
 19 42  1  0  0  0
 19 43  1  0  0  0
 20 22  1  0  0  0
 20 32  1  0  0  0
 20 44  1  0  0  0
 21 32  1  0  0  0
 21 45  1  0  0  0
 22 46  1  0  0  0
 22 47  1  0  0  0
 23 48  1  0  0  0
 24 25  3  0  0  0
 25 49  1  0  0  0
 32 50  1  0  0  0
 33 51  1  0  0  0
 52 54  1  0  0  0
 52 55  1  0  0  0
 52 62  1  0  0  0
 53 57  2  0  0  0
 53 61  1  0  0  0
 54 63  1  0  0  0
 54 64  1  0  0  0
 55 56  1  0  0  0
 55 65  1  0  0  0
 55 66  1  0  0  0
 56 57  1  0  0  0
 56 58  2  0  0  0
 57 60  1  0  0  0
 58 59  1  0  0  0
 58 67  1  0  0  0
 59 61  2  0  0  0
 59 68  1  0  0  0
 60 69  1  0  0  0
 60 70  1  0  0  0
 60 71  1  0  0  0
 61 72  1  0  0  0
M  END
> <s_m_entry_id>
351

> <s_m_entry_name>
000000351.1

> <s_m_Source_Path>
/Users/zaksoul/Documents/2

> <s_m_Source_File>
000000351.mol2

> <i_m_Source_File_Index>
1

$$$$
No_0_375
                    3D
 Schrodinger Suite 2022-4.
 72 78  0  0  1  0            999 V2000
   -5.2460    3.4080  -21.9870 C   0  0  0  0  0  0
   -5.5000    3.6100  -23.3230 C   0  0  0  0  0  0
   -4.0080    3.1690  -21.6360 C   0  0  0  0  0  0
   -3.0950    3.3380  -23.7890 C   0  0  0  0  0  0
   -2.9460    3.0770  -22.3700 C   0  0  0  0  0  0
   -4.4400    3.5870  -24.3220 C   0  0  0  0  0  0
   -3.6610    3.6500  -26.5110 C   0  0  0  0  0  0
    6.0190    2.9950  -21.1450 C   0  0  0  0  0  0
    5.9070    3.1690  -23.6940 C   0  0  0  0  0  0
   -4.6790    3.7280  -25.6580 C   0  0  0  0  0  0
    2.1140    3.6590  -23.7470 C   0  0  0  0  0  0
    1.2730    4.7500  -23.4430 C   0  0  0  0  0  0
    3.0450    5.9640  -22.7270 C   0  0  0  0  0  0
    3.5080    3.8670  -23.4160 C   0  0  0  0  0  0
    1.5930    2.5420  -24.4290 C   0  0  0  0  0  0
   -0.5480    3.3210  -24.3320 C   0  0  0  0  0  0
   -0.0470    4.5410  -23.7110 C   0  0  0  0  0  0
   -1.9970    3.3100  -24.7030 C   0  0  0  0  0  0
    4.1490    1.3750  -23.1500 C   0  0  0  0  0  0
    5.0750    1.0180  -21.9970 C   0  0  2  0  0  0
    6.6500    2.5900  -22.4950 C   0  0  2  0  0  0
    5.0290    2.0030  -20.8170 C   0  0  0  0  0  0
   -2.3090    3.4830  -26.1320 C   0  0  0  0  0  0
   -1.6020    2.6770  -21.7620 C   0  0  0  0  0  0
   -0.5720    2.3380  -21.2490 C   0  0  0  0  0  0
   -0.9090    5.5690  -23.3630 F   0  0  0  0  0  0
   -3.8090    2.9120  -20.2550 F   0  0  0  0  0  0
    1.7260    5.9090  -22.8910 N   0  0  0  0  0  0
    3.9580    5.0190  -22.9490 N   0  0  0  0  0  0
    0.2910    2.4370  -24.7510 N   0  0  0  0  0  0
    4.4440    2.8360  -23.5960 N   0  0  0  0  0  0
    6.4860    1.1130  -22.4630 N   0  0  1  0  0  0
   -3.8190    3.6800  -27.9020 O   0  0  0  0  0  0
   -6.0572    3.4492  -21.2692 H   0  0  0  0  0  0
   -6.5137    3.7937  -23.6602 H   0  0  0  0  0  0
    5.5336    3.9768  -21.2469 H   0  0  0  0  0  0
    6.7963    3.0071  -20.3667 H   0  0  0  0  0  0
    6.3180    2.7428  -24.6211 H   0  0  0  0  0  0
    6.0332    4.2616  -23.7112 H   0  0  0  0  0  0
   -5.6881    3.9027  -26.0134 H   0  0  0  0  0  0
    2.2476    1.7267  -24.7151 H   0  0  0  0  0  0
    3.1034    1.2983  -22.8170 H   0  0  0  0  0  0
    4.3307    0.6906  -23.9918 H   0  0  0  0  0  0
    4.8621   -0.0021  -21.6448 H   0  0  0  0  0  0
    7.7147    2.8645  -22.5263 H   0  0  0  0  0  0
    4.0376    2.4780  -20.7787 H   0  0  0  0  0  0
    5.3269    1.4820  -19.8951 H   0  0  0  0  0  0
   -1.5306    3.4860  -26.8864 H   0  0  0  0  0  0
    0.3351    2.0400  -20.7979 H   0  0  0  0  0  0
    7.1332    0.6155  -21.7559 H   0  0  0  0  0  0
   -2.9684    3.6108  -28.3194 H   0  0  0  0  0  0
    3.8950    7.2530  -20.7630 N   0  0  1  0  0  0
    7.3430   10.3640  -21.8040 N   0  0  0  0  0  0
    3.5780    7.3060  -22.2350 C   0  0  0  0  0  0
    4.4050    8.5370  -20.1580 C   0  0  0  0  0  0
    5.8020    8.9230  -20.6410 C   0  0  0  0  0  0
    6.0980   10.0380  -21.4010 C   0  0  0  0  0  0
    6.8350    8.0970  -20.2770 C   0  0  0  0  0  0
    8.1100    8.3970  -20.6720 C   0  0  0  0  0  0
    4.9940   10.9850  -21.8330 C   0  0  0  0  0  0
    8.3230    9.5230  -21.4250 C   0  0  0  0  0  0
    3.0041    6.9920  -20.2111 H   0  0  0  0  0  0
    4.4875    7.5662  -22.7963 H   0  0  0  0  0  0
    2.8275    8.0886  -22.4201 H   0  0  0  0  0  0
    4.4090    8.4480  -19.0616 H   0  0  0  0  0  0
    3.7020    9.3520  -20.3850 H   0  0  0  0  0  0
    6.6381    7.2144  -19.6793 H   0  0  0  0  0  0
    8.9313    7.7478  -20.3909 H   0  0  0  0  0  0
    4.0289   10.6220  -21.4500 H   0  0  0  0  0  0
    5.1931   11.9897  -21.4317 H   0  0  0  0  0  0
    4.9590   11.0300  -22.9315 H   0  0  0  0  0  0
    9.3486    9.7209  -21.7149 H   0  0  0  0  0  0
  1  2  2  0  0  0
  1  3  1  0  0  0
  1 34  1  0  0  0
  2  6  1  0  0  0
  2 35  1  0  0  0
  3  5  2  0  0  0
  3 27  1  0  0  0
  4  5  1  0  0  0
  4  6  2  0  0  0
  4 18  1  0  0  0
  5 24  1  0  0  0
  6 10  1  0  0  0
  7 10  2  0  0  0
  7 23  1  0  0  0
  7 33  1  0  0  0
  8 21  1  0  0  0
  8 22  1  0  0  0
  8 36  1  0  0  0
  8 37  1  0  0  0
  9 21  1  0  0  0
  9 31  1  0  0  0
  9 38  1  0  0  0
  9 39  1  0  0  0
 10 40  1  0  0  0
 11 12  1  0  0  0
 11 14  2  0  0  0
 11 15  1  0  0  0
 12 17  1  0  0  0
 12 28  2  0  0  0
 13 28  1  0  0  0
 13 29  2  0  0  0
 13 54  1  0  0  0
 14 29  1  0  0  0
 14 31  1  0  0  0
 15 30  2  0  0  0
 15 41  1  0  0  0
 16 17  2  0  0  0
 16 18  1  0  0  0
 16 30  1  0  0  0
 17 26  1  0  0  0
 18 23  2  0  0  0
 19 20  1  0  0  0
 19 31  1  0  0  0
 19 42  1  0  0  0
 19 43  1  0  0  0
 20 22  1  0  0  0
 20 32  1  0  0  0
 20 44  1  0  0  0
 21 32  1  0  0  0
 21 45  1  0  0  0
 22 46  1  0  0  0
 22 47  1  0  0  0
 23 48  1  0  0  0
 24 25  3  0  0  0
 25 49  1  0  0  0
 32 50  1  0  0  0
 33 51  1  0  0  0
 52 54  1  0  0  0
 52 55  1  0  0  0
 52 62  1  0  0  0
 53 57  2  0  0  0
 53 61  1  0  0  0
 54 63  1  0  0  0
 54 64  1  0  0  0
 55 56  1  0  0  0
 55 65  1  0  0  0
 55 66  1  0  0  0
 56 57  1  0  0  0
 56 58  2  0  0  0
 57 60  1  0  0  0
 58 59  1  0  0  0
 58 67  1  0  0  0
 59 61  2  0  0  0
 59 68  1  0  0  0
 60 69  1  0  0  0
 60 70  1  0  0  0
 60 71  1  0  0  0
 61 72  1  0  0  0
M  END
> <s_m_entry_id>
352

> <s_m_entry_name>
000000352.1

> <s_m_Source_Path>
/Users/zaksoul/Documents/2

> <s_m_Source_File>
000000352.mol2

> <i_m_Source_File_Index>
1

$$$$
No_0_376
                    3D
 Schrodinger Suite 2022-4.
 68 74  0  0  1  0            999 V2000
   -5.4350    3.5370  -21.9520 C   0  0  0  0  0  0
   -5.6860    3.7300  -23.2890 C   0  0  0  0  0  0
   -4.2020    3.2770  -21.5980 C   0  0  0  0  0  0
   -3.2870    3.4030  -23.7540 C   0  0  0  0  0  0
   -3.1430    3.1550  -22.3320 C   0  0  0  0  0  0
   -4.6280    3.6740  -24.2880 C   0  0  0  0  0  0
   -3.8490    3.6960  -26.4780 C   0  0  0  0  0  0
    5.8190    2.9000  -21.1110 C   0  0  0  0  0  0
    5.7090    3.0490  -23.6610 C   0  0  0  0  0  0
   -4.8640    3.8050  -25.6260 C   0  0  0  0  0  0
    1.9270    3.6160  -23.7180 C   0  0  0  0  0  0
    1.1090    4.7280  -23.4250 C   0  0  0  0  0  0
    2.9060    5.9130  -22.7230 C   0  0  0  0  0  0
    3.3250    3.7990  -23.3890 C   0  0  0  0  0  0
    1.3820    2.5030  -24.3870 C   0  0  0  0  0  0
   -0.7420    3.3280  -24.2980 C   0  0  0  0  0  0
   -0.2150    4.5440  -23.6900 C   0  0  0  0  0  0
   -2.1910    3.3420  -24.6680 C   0  0  0  0  0  0
    3.9150    1.2970  -23.0960 C   0  0  0  0  0  0
    4.8340    0.9340  -21.9410 C   0  0  2  0  0  0
    6.4410    2.4680  -22.4570 C   0  0  2  0  0  0
    4.8090    1.9330  -20.7720 C   0  0  0  0  0  0
   -2.5000    3.5060  -26.0990 C   0  0  0  0  0  0
   -1.8070    2.7330  -21.7200 C   0  0  0  0  0  0
   -0.7840    2.3790  -21.2040 C   0  0  0  0  0  0
   -1.0550    5.5920  -23.3520 F   0  0  0  0  0  0
   -4.0080    3.0300  -20.2140 F   0  0  0  0  0  0
    1.5860    5.8840  -22.8860 N   0  0  0  0  0  0
    3.8000    4.9460  -22.9360 N   0  0  0  0  0  0
    0.0790    2.4210  -24.7070 N   0  0  0  0  0  0
    4.2400    2.7470  -23.5590 N   0  0  0  0  0  0
    6.2460    0.9950  -22.4080 N   0  0  1  0  0  0
   -4.0070    3.7150  -27.8700 O   0  0  0  0  0  0
   -6.2444    3.6022  -21.2339 H   0  0  0  0  0  0
   -6.6958    3.9308  -23.6283 H   0  0  0  0  0  0
    5.3548    3.8909  -21.2230 H   0  0  0  0  0  0
    6.5968    2.9040  -20.3332 H   0  0  0  0  0  0
    6.1106    2.6040  -24.5833 H   0  0  0  0  0  0
    5.8574    4.1385  -23.6903 H   0  0  0  0  0  0
   -5.8697    3.9967  -25.9823 H   0  0  0  0  0  0
    2.0204    1.6719  -24.6640 H   0  0  0  0  0  0
    2.8682    1.2455  -22.7619 H   0  0  0  0  0  0
    4.0826    0.6005  -23.9308 H   0  0  0  0  0  0
    4.6008   -0.0774  -21.5766 H   0  0  0  0  0  0
    7.5113    2.7194  -22.4913 H   0  0  0  0  0  0
    3.8276    2.4287  -20.7377 H   0  0  0  0  0  0
    5.0965    1.4155  -19.8449 H   0  0  0  0  0  0
   -1.7222    3.4839  -26.8537 H   0  0  0  0  0  0
    0.1169    2.0670  -20.7500 H   0  0  0  0  0  0
    6.8834    0.4923  -21.6957 H   0  0  0  0  0  0
   -3.1581    3.6230  -28.2865 H   0  0  0  0  0  0
    6.3130    7.5430  -19.5480 O   0  0  0  0  0  0
    3.4500    7.3540  -20.7440 N   0  3  0  0  0  0
    3.4670    7.2480  -22.2460 C   0  0  0  0  0  0
    4.1310    8.5790  -20.1910 C   0  0  0  0  0  0
    5.6380    8.4380  -20.2740 C   0  0  0  0  0  0
    7.7580    8.6280  -20.7990 C   0  0  0  0  0  0
    6.4600    9.1330  -21.0520 C   0  0  0  0  0  0
    7.5960    7.6760  -19.8900 C   0  0  0  0  0  0
    3.8723    6.5294  -20.3467 H   0  0  0  0  0  0
    2.4963    7.3270  -20.4188 H   0  0  0  0  0  0
    4.4991    7.3620  -22.6090 H   0  0  0  0  0  0
    2.8758    8.0693  -22.6772 H   0  0  0  0  0  0
    3.8331    8.7199  -19.1415 H   0  0  0  0  0  0
    3.8131    9.4639  -20.7619 H   0  0  0  0  0  0
    8.6156    9.0438  -21.3258 H   0  0  0  0  0  0
    6.0650    9.9099  -21.7049 H   0  0  0  0  0  0
    8.4578    7.1211  -19.5221 H   0  0  0  0  0  0
  1  2  2  0  0  0
  1  3  1  0  0  0
  1 34  1  0  0  0
  2  6  1  0  0  0
  2 35  1  0  0  0
  3  5  2  0  0  0
  3 27  1  0  0  0
  4  5  1  0  0  0
  4  6  2  0  0  0
  4 18  1  0  0  0
  5 24  1  0  0  0
  6 10  1  0  0  0
  7 10  2  0  0  0
  7 23  1  0  0  0
  7 33  1  0  0  0
  8 21  1  0  0  0
  8 22  1  0  0  0
  8 36  1  0  0  0
  8 37  1  0  0  0
  9 21  1  0  0  0
  9 31  1  0  0  0
  9 38  1  0  0  0
  9 39  1  0  0  0
 10 40  1  0  0  0
 11 12  1  0  0  0
 11 14  2  0  0  0
 11 15  1  0  0  0
 12 17  1  0  0  0
 12 28  2  0  0  0
 13 28  1  0  0  0
 13 29  2  0  0  0
 13 54  1  0  0  0
 14 29  1  0  0  0
 14 31  1  0  0  0
 15 30  2  0  0  0
 15 41  1  0  0  0
 16 17  2  0  0  0
 16 18  1  0  0  0
 16 30  1  0  0  0
 17 26  1  0  0  0
 18 23  2  0  0  0
 19 20  1  0  0  0
 19 31  1  0  0  0
 19 42  1  0  0  0
 19 43  1  0  0  0
 20 22  1  0  0  0
 20 32  1  0  0  0
 20 44  1  0  0  0
 21 32  1  0  0  0
 21 45  1  0  0  0
 22 46  1  0  0  0
 22 47  1  0  0  0
 23 48  1  0  0  0
 24 25  3  0  0  0
 25 49  1  0  0  0
 32 50  1  0  0  0
 33 51  1  0  0  0
 52 56  1  0  0  0
 52 59  1  0  0  0
 53 54  1  0  0  0
 53 55  1  0  0  0
 53 60  1  0  0  0
 53 61  1  0  0  0
 54 62  1  0  0  0
 54 63  1  0  0  0
 55 56  1  0  0  0
 55 64  1  0  0  0
 55 65  1  0  0  0
 56 58  2  0  0  0
 57 58  1  0  0  0
 57 59  2  0  0  0
 57 66  1  0  0  0
 58 67  1  0  0  0
 59 68  1  0  0  0
M  CHG  1  53   1
M  END
> <s_m_entry_id>
353

> <s_m_entry_name>
000000353.1

> <s_m_Source_Path>
/Users/zaksoul/Documents/2

> <s_m_Source_File>
000000353.mol2

> <i_m_Source_File_Index>
1

$$$$
No_0_377
                    3D
 Schrodinger Suite 2022-4.
 68 74  0  0  1  0            999 V2000
   -5.3440    3.5310  -22.1670 C   0  0  0  0  0  0
   -5.5770    3.7070  -23.5110 C   0  0  0  0  0  0
   -4.1100    3.3120  -21.7900 C   0  0  0  0  0  0
   -3.1610    3.4520  -23.9300 C   0  0  0  0  0  0
   -3.0350    3.2180  -22.5040 C   0  0  0  0  0  0
   -4.4990    3.6760  -24.4910 C   0  0  0  0  0  0
   -3.6820    3.7080  -26.6670 C   0  0  0  0  0  0
    5.9080    3.2530  -21.1220 C   0  0  0  0  0  0
    5.8390    3.3790  -23.6750 C   0  0  0  0  0  0
   -4.7150    3.7910  -25.8330 C   0  0  0  0  0  0
    2.0430    3.8280  -23.8030 C   0  0  0  0  0  0
    1.1850    4.9160  -23.5340 C   0  0  0  0  0  0
    2.9320    6.1620  -22.8090 C   0  0  0  0  0  0
    3.4280    4.0570  -23.4510 C   0  0  0  0  0  0
    1.5450    2.6940  -24.4740 C   0  0  0  0  0  0
   -0.6050    3.4520  -24.4280 C   0  0  0  0  0  0
   -0.1270    4.6880  -23.8210 C   0  0  0  0  0  0
   -2.0470    3.4180  -24.8240 C   0  0  0  0  0  0
    4.0900    1.5770  -23.1290 C   0  0  0  0  0  0
    5.0000    1.2510  -21.9540 C   0  0  2  0  0  0
    6.5670    2.8310  -22.4530 C   0  0  2  0  0  0
    4.9220    2.2570  -20.7930 C   0  0  0  0  0  0
   -2.3350    3.5620  -26.2610 C   0  0  0  0  0  0
   -1.6980    2.8430  -21.8650 C   0  0  0  0  0  0
   -0.6730    2.5250  -21.3280 C   0  0  0  0  0  0
   -1.0060    5.7130  -23.5060 F   0  0  0  0  0  0
   -3.9330    3.0820  -20.4010 F   0  0  0  0  0  0
    1.6170    6.0900  -22.9950 N   0  0  0  0  0  0
    3.8590    5.2220  -22.9990 N   0  0  0  0  0  0
    0.2510    2.5690  -24.8160 N   0  0  0  0  0  0
    4.3780    3.0330  -23.5960 N   0  0  0  0  0  0
    6.4170    1.3530  -22.3960 N   0  0  1  0  0  0
   -3.8160    3.7110  -28.0610 O   0  0  0  0  0  0
   -6.1681    3.5772  -21.4643 H   0  0  0  0  0  0
   -6.5864    3.8736  -23.8692 H   0  0  0  0  0  0
    5.4146    4.2277  -21.2501 H   0  0  0  0  0  0
    6.6712    3.2873  -20.3306 H   0  0  0  0  0  0
    6.2711    2.9408  -24.5867 H   0  0  0  0  0  0
    5.9540    4.4724  -23.7103 H   0  0  0  0  0  0
   -5.7195    3.9475  -26.2093 H   0  0  0  0  0  0
    2.2135    1.8809  -24.7330 H   0  0  0  0  0  0
    3.0398    1.4953  -22.8122 H   0  0  0  0  0  0
    4.2939    0.8795  -23.9547 H   0  0  0  0  0  0
    4.7910    0.2355  -21.5865 H   0  0  0  0  0  0
    7.6293    3.1158  -22.4712 H   0  0  0  0  0  0
    3.9252    2.7221  -20.7809 H   0  0  0  0  0  0
    5.2097    1.7553  -19.8573 H   0  0  0  0  0  0
   -1.5438    3.5590  -27.0020 H   0  0  0  0  0  0
    0.2291    2.2450  -20.8559 H   0  0  0  0  0  0
    7.0572    0.8752  -21.6692 H   0  0  0  0  0  0
   -2.9573    3.6427  -28.4616 H   0  0  0  0  0  0
    6.7570    7.9590  -20.2640 O   0  0  0  0  0  0
    3.7390    7.5130  -20.8570 N   0  3  0  0  0  0
    3.4420    7.5170  -22.3330 C   0  0  0  0  0  0
    4.3930    8.7670  -20.3410 C   0  0  0  0  0  0
    5.8540    8.8160  -20.7460 C   0  0  0  0  0  0
    7.7790    9.2980  -21.6760 C   0  0  0  0  0  0
    6.4120    9.6590  -21.6070 C   0  0  0  0  0  0
    7.9150    8.2700  -20.8480 C   0  0  0  0  0  0
    4.3190    6.7190  -20.6350 H   0  0  0  0  0  0
    2.8861    7.3470  -20.3461 H   0  0  0  0  0  0
    4.3542    7.7811  -22.8881 H   0  0  0  0  0  0
    2.6910    8.2900  -22.5530 H   0  0  0  0  0  0
    4.3160    8.7960  -19.2441 H   0  0  0  0  0  0
    3.8710    9.6460  -20.7470 H   0  0  0  0  0  0
    8.4557    9.8498  -22.3267 H   0  0  0  0  0  0
    5.8078   10.4273  -22.0872 H   0  0  0  0  0  0
    8.8887    7.7991  -20.7210 H   0  0  0  0  0  0
  1  2  2  0  0  0
  1  3  1  0  0  0
  1 34  1  0  0  0
  2  6  1  0  0  0
  2 35  1  0  0  0
  3  5  2  0  0  0
  3 27  1  0  0  0
  4  5  1  0  0  0
  4  6  2  0  0  0
  4 18  1  0  0  0
  5 24  1  0  0  0
  6 10  1  0  0  0
  7 10  2  0  0  0
  7 23  1  0  0  0
  7 33  1  0  0  0
  8 21  1  0  0  0
  8 22  1  0  0  0
  8 36  1  0  0  0
  8 37  1  0  0  0
  9 21  1  0  0  0
  9 31  1  0  0  0
  9 38  1  0  0  0
  9 39  1  0  0  0
 10 40  1  0  0  0
 11 12  1  0  0  0
 11 14  2  0  0  0
 11 15  1  0  0  0
 12 17  1  0  0  0
 12 28  2  0  0  0
 13 28  1  0  0  0
 13 29  2  0  0  0
 13 54  1  0  0  0
 14 29  1  0  0  0
 14 31  1  0  0  0
 15 30  2  0  0  0
 15 41  1  0  0  0
 16 17  2  0  0  0
 16 18  1  0  0  0
 16 30  1  0  0  0
 17 26  1  0  0  0
 18 23  2  0  0  0
 19 20  1  0  0  0
 19 31  1  0  0  0
 19 42  1  0  0  0
 19 43  1  0  0  0
 20 22  1  0  0  0
 20 32  1  0  0  0
 20 44  1  0  0  0
 21 32  1  0  0  0
 21 45  1  0  0  0
 22 46  1  0  0  0
 22 47  1  0  0  0
 23 48  1  0  0  0
 24 25  3  0  0  0
 25 49  1  0  0  0
 32 50  1  0  0  0
 33 51  1  0  0  0
 52 56  1  0  0  0
 52 59  1  0  0  0
 53 54  1  0  0  0
 53 55  1  0  0  0
 53 60  1  0  0  0
 53 61  1  0  0  0
 54 62  1  0  0  0
 54 63  1  0  0  0
 55 56  1  0  0  0
 55 64  1  0  0  0
 55 65  1  0  0  0
 56 58  2  0  0  0
 57 58  1  0  0  0
 57 59  2  0  0  0
 57 66  1  0  0  0
 58 67  1  0  0  0
 59 68  1  0  0  0
M  CHG  1  53   1
M  END
> <s_m_entry_id>
354

> <s_m_entry_name>
000000354.1

> <s_m_Source_Path>
/Users/zaksoul/Documents/2

> <s_m_Source_File>
000000354.mol2

> <i_m_Source_File_Index>
1

$$$$
No_0_378
                    3D
 Schrodinger Suite 2022-4.
 68 74  0  0  1  0            999 V2000
   -5.1840    3.3290  -22.1310 C   0  0  0  0  0  0
   -5.4220    3.5100  -23.4730 C   0  0  0  0  0  0
   -3.9470    3.1220  -21.7580 C   0  0  0  0  0  0
   -3.0040    3.2850  -23.8990 C   0  0  0  0  0  0
   -2.8720    3.0440  -22.4750 C   0  0  0  0  0  0
   -4.3460    3.4980  -24.4550 C   0  0  0  0  0  0
   -3.5350    3.5510  -26.6330 C   0  0  0  0  0  0
    6.0730    3.1720  -21.1130 C   0  0  0  0  0  0
    5.9960    3.3140  -23.6650 C   0  0  0  0  0  0
   -4.5670    3.6180  -25.7970 C   0  0  0  0  0  0
    2.1950    3.7200  -23.7820 C   0  0  0  0  0  0
    1.3260    4.7960  -23.5040 C   0  0  0  0  0  0
    3.0600    6.0570  -22.7760 C   0  0  0  0  0  0
    3.5790    3.9620  -23.4320 C   0  0  0  0  0  0
    1.7090    2.5840  -24.4580 C   0  0  0  0  0  0
   -0.4500    3.3170  -24.4030 C   0  0  0  0  0  0
    0.0150    4.5550  -23.7900 C   0  0  0  0  0  0
   -1.8920    3.2700  -24.7960 C   0  0  0  0  0  0
    4.2700    1.4880  -23.1260 C   0  0  0  0  0  0
    5.1850    1.1660  -21.9550 C   0  0  2  0  0  0
    6.7330    2.7660  -22.4480 C   0  0  2  0  0  0
    5.0990    2.1640  -20.7880 C   0  0  0  0  0  0
   -2.1850    3.4190  -26.2320 C   0  0  0  0  0  0
   -1.5290    2.6800  -21.8410 C   0  0  0  0  0  0
   -0.5000    2.3710  -21.3090 C   0  0  0  0  0  0
   -0.8740    5.5680  -23.4670 F   0  0  0  0  0  0
   -3.7640    2.8850  -20.3710 F   0  0  0  0  0  0
    1.7450    5.9720  -22.9590 N   0  0  0  0  0  0
    3.9970    5.1290  -22.9730 N   0  0  0  0  0  0
    0.4150    2.4460  -24.7980 N   0  0  0  0  0  0
    4.5400    2.9500  -23.5850 N   0  0  0  0  0  0
    6.6010    1.2860  -22.4000 N   0  0  1  0  0  0
   -3.6720    3.5620  -28.0260 O   0  0  0  0  0  0
   -6.0066    3.3611  -21.4258 H   0  0  0  0  0  0
   -6.4342    3.6677  -23.8275 H   0  0  0  0  0  0
    5.5684    4.1419  -21.2341 H   0  0  0  0  0  0
    6.8381    3.2104  -20.3236 H   0  0  0  0  0  0
    6.4309    2.8861  -24.5803 H   0  0  0  0  0  0
    6.0990    4.4088  -23.6933 H   0  0  0  0  0  0
   -5.5742    3.7656  -26.1696 H   0  0  0  0  0  0
    2.3856    1.7799  -24.7240 H   0  0  0  0  0  0
    3.2212    1.3922  -22.8083 H   0  0  0  0  0  0
    4.4800    0.7984  -23.9569 H   0  0  0  0  0  0
    4.9892    0.1456  -21.5937 H   0  0  0  0  0  0
    7.7920    3.0628  -22.4672 H   0  0  0  0  0  0
    4.0968    2.6171  -20.7698 H   0  0  0  0  0  0
    5.3946    1.6605  -19.8557 H   0  0  0  0  0  0
   -1.3953    3.4301  -26.9745 H   0  0  0  0  0  0
    0.4059    2.0980  -20.8400 H   0  0  0  0  0  0
    7.2479    0.8112  -21.6772 H   0  0  0  0  0  0
   -2.8137    3.5066  -28.4294 H   0  0  0  0  0  0
    7.2650    8.0710  -21.1610 O   0  0  0  0  0  0
    4.2570    7.3110  -20.9640 N   0  3  0  0  0  0
    3.5560    7.4160  -22.2920 C   0  0  0  0  0  0
    4.9110    8.5840  -20.4940 C   0  0  0  0  0  0
    6.1860    8.8500  -21.2710 C   0  0  0  0  0  0
    7.7160    9.6500  -22.6220 C   0  0  0  0  0  0
    6.3970    9.8320  -22.1400 C   0  0  0  0  0  0
    8.1760    8.5750  -21.9950 C   0  0  0  0  0  0
    4.9478    6.5782  -21.0080 H   0  0  0  0  0  0
    3.6030    6.9950  -20.2650 H   0  0  0  0  0  0
    4.2451    7.8401  -23.0371 H   0  0  0  0  0  0
    2.7040    8.1060  -22.2030 H   0  0  0  0  0  0
    5.1461    8.5020  -19.4226 H   0  0  0  0  0  0
    4.2163    9.4256  -20.6319 H   0  0  0  0  0  0
    8.1260   10.3400  -23.3580 H   0  0  0  0  0  0
    5.6126   10.5604  -22.3401 H   0  0  0  0  0  0
    9.1850    8.2180  -22.1960 H   0  0  0  0  0  0
  1  2  2  0  0  0
  1  3  1  0  0  0
  1 34  1  0  0  0
  2  6  1  0  0  0
  2 35  1  0  0  0
  3  5  2  0  0  0
  3 27  1  0  0  0
  4  5  1  0  0  0
  4  6  2  0  0  0
  4 18  1  0  0  0
  5 24  1  0  0  0
  6 10  1  0  0  0
  7 10  2  0  0  0
  7 23  1  0  0  0
  7 33  1  0  0  0
  8 21  1  0  0  0
  8 22  1  0  0  0
  8 36  1  0  0  0
  8 37  1  0  0  0
  9 21  1  0  0  0
  9 31  1  0  0  0
  9 38  1  0  0  0
  9 39  1  0  0  0
 10 40  1  0  0  0
 11 12  1  0  0  0
 11 14  2  0  0  0
 11 15  1  0  0  0
 12 17  1  0  0  0
 12 28  2  0  0  0
 13 28  1  0  0  0
 13 29  2  0  0  0
 13 54  1  0  0  0
 14 29  1  0  0  0
 14 31  1  0  0  0
 15 30  2  0  0  0
 15 41  1  0  0  0
 16 17  2  0  0  0
 16 18  1  0  0  0
 16 30  1  0  0  0
 17 26  1  0  0  0
 18 23  2  0  0  0
 19 20  1  0  0  0
 19 31  1  0  0  0
 19 42  1  0  0  0
 19 43  1  0  0  0
 20 22  1  0  0  0
 20 32  1  0  0  0
 20 44  1  0  0  0
 21 32  1  0  0  0
 21 45  1  0  0  0
 22 46  1  0  0  0
 22 47  1  0  0  0
 23 48  1  0  0  0
 24 25  3  0  0  0
 25 49  1  0  0  0
 32 50  1  0  0  0
 33 51  1  0  0  0
 52 56  1  0  0  0
 52 59  1  0  0  0
 53 54  1  0  0  0
 53 55  1  0  0  0
 53 60  1  0  0  0
 53 61  1  0  0  0
 54 62  1  0  0  0
 54 63  1  0  0  0
 55 56  1  0  0  0
 55 64  1  0  0  0
 55 65  1  0  0  0
 56 58  2  0  0  0
 57 58  1  0  0  0
 57 59  2  0  0  0
 57 66  1  0  0  0
 58 67  1  0  0  0
 59 68  1  0  0  0
M  CHG  1  53   1
M  END
> <s_m_entry_id>
355

> <s_m_entry_name>
000000355.1

> <s_m_Source_Path>
/Users/zaksoul/Documents/2

> <s_m_Source_File>
000000355.mol2

> <i_m_Source_File_Index>
1

$$$$
No_0_379
                    3D
 Schrodinger Suite 2022-4.
 68 74  0  0  1  0            999 V2000
   -5.2580    3.3370  -22.0030 C   0  0  0  0  0  0
   -5.5220    3.4930  -23.3440 C   0  0  0  0  0  0
   -4.0200    3.0940  -21.6540 C   0  0  0  0  0  0
   -3.1250    3.1710  -23.8200 C   0  0  0  0  0  0
   -2.9660    2.9600  -22.3940 C   0  0  0  0  0  0
   -4.4720    3.4180  -24.3500 C   0  0  0  0  0  0
   -3.7120    3.3890  -26.5470 C   0  0  0  0  0  0
    6.0080    2.8000  -21.2450 C   0  0  0  0  0  0
    5.8740    2.8810  -23.7980 C   0  0  0  0  0  0
   -4.7200    3.5130  -25.6890 C   0  0  0  0  0  0
    2.0880    3.4210  -23.8360 C   0  0  0  0  0  0
    1.2640    4.5350  -23.5650 C   0  0  0  0  0  0
    3.0590    5.7500  -22.9100 C   0  0  0  0  0  0
    3.4880    3.6220  -23.5240 C   0  0  0  0  0  0
    1.5460    2.2870  -24.4710 C   0  0  0  0  0  0
   -0.5840    3.0990  -24.3850 C   0  0  0  0  0  0
   -0.0600    4.3340  -23.8140 C   0  0  0  0  0  0
   -2.0360    3.0940  -24.7420 C   0  0  0  0  0  0
    4.0970    1.1330  -23.1720 C   0  0  0  0  0  0
    5.0290    0.8060  -22.0150 C   0  0  2  0  0  0
    6.6200    2.3370  -22.5850 C   0  0  2  0  0  0
    5.0070    1.8350  -20.8720 C   0  0  0  0  0  0
   -2.3590    3.2190  -26.1740 C   0  0  0  0  0  0
   -1.6230    2.5640  -21.7830 C   0  0  0  0  0  0
   -0.5920    2.2310  -21.2670 C   0  0  0  0  0  0
   -0.9050    5.3850  -23.4960 F   0  0  0  0  0  0
   -3.8120    2.8850  -20.2660 F   0  0  0  0  0  0
    1.7380    5.7070  -23.0600 N   0  0  0  0  0  0
    3.9580    4.7840  -23.1050 N   0  0  0  0  0  0
    0.2400    2.1880  -24.7770 N   0  0  0  0  0  0
    4.4080    2.5720  -23.6750 N   0  0  0  0  0  0
    6.4370    0.8650  -22.4960 N   0  0  1  0  0  0
   -3.8820    3.3710  -27.9370 O   0  0  0  0  0  0
   -6.0621    3.4153  -21.2802 H   0  0  0  0  0  0
   -6.5363    3.6788  -23.6784 H   0  0  0  0  0  0
    5.5347    3.7839  -21.3792 H   0  0  0  0  0  0
    6.7926    2.8303  -20.4746 H   0  0  0  0  0  0
    6.2718    2.4155  -24.7118 H   0  0  0  0  0  0
    6.0152    3.9703  -23.8565 H   0  0  0  0  0  0
   -5.7301    3.6885  -26.0411 H   0  0  0  0  0  0
    2.1867    1.4525  -24.7321 H   0  0  0  0  0  0
    3.0538    1.0825  -22.8266 H   0  0  0  0  0  0
    4.2625    0.4156  -23.9893 H   0  0  0  0  0  0
    4.8059   -0.1974  -21.6233 H   0  0  0  0  0  0
    7.6881    2.5952  -22.6354 H   0  0  0  0  0  0
    4.0223    2.3243  -20.8427 H   0  0  0  0  0  0
    5.3067    1.3436  -19.9346 H   0  0  0  0  0  0
   -1.5874    3.1829  -26.9345 H   0  0  0  0  0  0
    0.3150    1.9370  -20.8130 H   0  0  0  0  0  0
    7.0842    0.3847  -21.7771 H   0  0  0  0  0  0
   -3.0361    3.2740  -28.3584 H   0  0  0  0  0  0
    7.4650    7.8780  -22.2690 O   0  0  0  0  0  0
    4.6340    6.9540  -21.3740 N   0  3  0  0  0  0
    3.6150    7.1010  -22.4720 C   0  0  0  0  0  0
    5.3420    8.2290  -20.9960 C   0  0  0  0  0  0
    6.3670    8.6060  -22.0480 C   0  0  0  0  0  0
    7.4730    9.5620  -23.6810 C   0  0  0  0  0  0
    6.3150    9.6470  -22.8710 C   0  0  0  0  0  0
    8.1150    8.4770  -23.2670 C   0  0  0  0  0  0
    5.3156    6.2614  -21.6419 H   0  0  0  0  0  0
    4.1908    6.5628  -20.5576 H   0  0  0  0  0  0
    4.0759    7.6039  -23.3349 H   0  0  0  0  0  0
    2.7903    7.7398  -22.1231 H   0  0  0  0  0  0
    5.8438    8.0950  -20.0263 H   0  0  0  0  0  0
    4.6059    9.0401  -20.8950 H   0  0  0  0  0  0
    7.6590   10.3142  -24.4462 H   0  0  0  0  0  0
    5.4805   10.3444  -22.8150 H   0  0  0  0  0  0
    9.0513    8.1849  -23.7402 H   0  0  0  0  0  0
  1  2  2  0  0  0
  1  3  1  0  0  0
  1 34  1  0  0  0
  2  6  1  0  0  0
  2 35  1  0  0  0
  3  5  2  0  0  0
  3 27  1  0  0  0
  4  5  1  0  0  0
  4  6  2  0  0  0
  4 18  1  0  0  0
  5 24  1  0  0  0
  6 10  1  0  0  0
  7 10  2  0  0  0
  7 23  1  0  0  0
  7 33  1  0  0  0
  8 21  1  0  0  0
  8 22  1  0  0  0
  8 36  1  0  0  0
  8 37  1  0  0  0
  9 21  1  0  0  0
  9 31  1  0  0  0
  9 38  1  0  0  0
  9 39  1  0  0  0
 10 40  1  0  0  0
 11 12  1  0  0  0
 11 14  2  0  0  0
 11 15  1  0  0  0
 12 17  1  0  0  0
 12 28  2  0  0  0
 13 28  1  0  0  0
 13 29  2  0  0  0
 13 54  1  0  0  0
 14 29  1  0  0  0
 14 31  1  0  0  0
 15 30  2  0  0  0
 15 41  1  0  0  0
 16 17  2  0  0  0
 16 18  1  0  0  0
 16 30  1  0  0  0
 17 26  1  0  0  0
 18 23  2  0  0  0
 19 20  1  0  0  0
 19 31  1  0  0  0
 19 42  1  0  0  0
 19 43  1  0  0  0
 20 22  1  0  0  0
 20 32  1  0  0  0
 20 44  1  0  0  0
 21 32  1  0  0  0
 21 45  1  0  0  0
 22 46  1  0  0  0
 22 47  1  0  0  0
 23 48  1  0  0  0
 24 25  3  0  0  0
 25 49  1  0  0  0
 32 50  1  0  0  0
 33 51  1  0  0  0
 52 56  1  0  0  0
 52 59  1  0  0  0
 53 54  1  0  0  0
 53 55  1  0  0  0
 53 60  1  0  0  0
 53 61  1  0  0  0
 54 62  1  0  0  0
 54 63  1  0  0  0
 55 56  1  0  0  0
 55 64  1  0  0  0
 55 65  1  0  0  0
 56 58  2  0  0  0
 57 58  1  0  0  0
 57 59  2  0  0  0
 57 66  1  0  0  0
 58 67  1  0  0  0
 59 68  1  0  0  0
M  CHG  1  53   1
M  END
> <s_m_entry_id>
356

> <s_m_entry_name>
000000356.1

> <s_m_Source_Path>
/Users/zaksoul/Documents/2

> <s_m_Source_File>
000000356.mol2

> <i_m_Source_File_Index>
1

$$$$
No_0_380
                    3D
 Schrodinger Suite 2022-4.
 68 74  0  0  1  0            999 V2000
   -5.2990    3.4180  -22.1450 C   0  0  0  0  0  0
   -5.5100    3.6280  -23.4880 C   0  0  0  0  0  0
   -4.0730    3.1740  -21.7560 C   0  0  0  0  0  0
   -3.0910    3.3530  -23.8790 C   0  0  0  0  0  0
   -2.9880    3.0840  -22.4570 C   0  0  0  0  0  0
   -4.4190    3.6070  -24.4530 C   0  0  0  0  0  0
   -3.5710    3.6800  -26.6150 C   0  0  0  0  0  0
    5.9330    2.9740  -20.9500 C   0  0  0  0  0  0
    5.9020    3.1620  -23.5000 C   0  0  0  0  0  0
   -4.6150    3.7570  -25.7950 C   0  0  0  0  0  0
    2.1140    3.6610  -23.6710 C   0  0  0  0  0  0
    1.2660    4.7530  -23.3870 C   0  0  0  0  0  0
    3.0170    5.9590  -22.6090 C   0  0  0  0  0  0
    3.4970    3.8640  -23.2940 C   0  0  0  0  0  0
    1.6120    2.5500  -24.3750 C   0  0  0  0  0  0
   -0.5290    3.3330  -24.3410 C   0  0  0  0  0  0
   -0.0450    4.5490  -23.6980 C   0  0  0  0  0  0
   -1.9650    3.3270  -24.7580 C   0  0  0  0  0  0
    4.1240    1.3690  -23.0220 C   0  0  0  0  0  0
    5.0130    1.0040  -21.8430 C   0  0  2  0  0  0
    6.6060    2.5750  -22.2820 C   0  0  2  0  0  0
    4.9310    1.9830  -20.6590 C   0  0  0  0  0  0
   -2.2320    3.5090  -26.1950 C   0  0  0  0  0  0
   -1.6650    2.6770  -21.8090 C   0  0  0  0  0  0
   -0.6520    2.3330  -21.2660 C   0  0  0  0  0  0
   -0.9150    5.5760  -23.3710 F   0  0  0  0  0  0
   -3.9180    2.9090  -20.3710 F   0  0  0  0  0  0
    1.7040    5.9080  -22.8140 N   0  0  0  0  0  0
    3.9350    5.0120  -22.8080 N   0  0  0  0  0  0
    0.3210    2.4490  -24.7380 N   0  0  0  0  0  0
    4.4360    2.8320  -23.4510 N   0  0  0  0  0  0
    6.4380    1.0990  -22.2630 N   0  0  1  0  0  0
   -3.6840    3.7190  -28.0110 O   0  0  0  0  0  0
   -6.1325    3.4572  -21.4531 H   0  0  0  0  0  0
   -6.5123    3.8158  -23.8556 H   0  0  0  0  0  0
    5.4537    3.9577  -21.0620 H   0  0  0  0  0  0
    6.6857    2.9801  -20.1479 H   0  0  0  0  0  0
    6.3418    2.7404  -24.4159 H   0  0  0  0  0  0
    6.0311    4.2544  -23.5071 H   0  0  0  0  0  0
   -5.6120    3.9347  -26.1816 H   0  0  0  0  0  0
    2.2739    1.7347  -24.6438 H   0  0  0  0  0  0
    3.0683    1.2933  -22.7223 H   0  0  0  0  0  0
    4.3321    0.6892  -23.8614 H   0  0  0  0  0  0
    4.7869   -0.0174  -21.5029 H   0  0  0  0  0  0
    7.6717    2.8475  -22.2780 H   0  0  0  0  0  0
    3.9400    2.4603  -20.6489 H   0  0  0  0  0  0
    5.1985    1.4560  -19.7312 H   0  0  0  0  0  0
   -1.4302    3.5130  -26.9245 H   0  0  0  0  0  0
    0.2396    2.0308  -20.7877 H   0  0  0  0  0  0
    7.0613    0.5965  -21.5381 H   0  0  0  0  0  0
   -2.8206    3.6497  -28.4011 H   0  0  0  0  0  0
    7.2780    8.4440  -22.4850 O   0  0  0  0  0  0
    4.7590    7.1230  -21.2310 N   0  3  0  0  0  0
    3.5370    7.2960  -22.0930 C   0  0  0  0  0  0
    5.4220    8.4080  -20.8110 C   0  0  0  0  0  0
    6.1900    9.0190  -21.9680 C   0  0  0  0  0  0
    6.8770   10.2820  -23.6220 C   0  0  0  0  0  0
    5.8960   10.1430  -22.6110 C   0  0  0  0  0  0
    7.6720    9.2280  -23.4900 C   0  0  0  0  0  0
    5.4289    6.5451  -21.7140 H   0  0  0  0  0  0
    4.5161    6.5891  -20.4112 H   0  0  0  0  0  0
    3.7800    7.9480  -22.9450 H   0  0  0  0  0  0
    2.7484    7.7968  -21.5123 H   0  0  0  0  0  0
    6.1127    8.2091  -19.9783 H   0  0  0  0  0  0
    4.6577    9.1183  -20.4628 H   0  0  0  0  0  0
    6.8490   11.1387  -24.2937 H   0  0  0  0  0  0
    5.0350   10.7360  -22.3060 H   0  0  0  0  0  0
    8.5180    9.0970  -24.1630 H   0  0  0  0  0  0
  1  2  2  0  0  0
  1  3  1  0  0  0
  1 34  1  0  0  0
  2  6  1  0  0  0
  2 35  1  0  0  0
  3  5  2  0  0  0
  3 27  1  0  0  0
  4  5  1  0  0  0
  4  6  2  0  0  0
  4 18  1  0  0  0
  5 24  1  0  0  0
  6 10  1  0  0  0
  7 10  2  0  0  0
  7 23  1  0  0  0
  7 33  1  0  0  0
  8 21  1  0  0  0
  8 22  1  0  0  0
  8 36  1  0  0  0
  8 37  1  0  0  0
  9 21  1  0  0  0
  9 31  1  0  0  0
  9 38  1  0  0  0
  9 39  1  0  0  0
 10 40  1  0  0  0
 11 12  1  0  0  0
 11 14  2  0  0  0
 11 15  1  0  0  0
 12 17  1  0  0  0
 12 28  2  0  0  0
 13 28  1  0  0  0
 13 29  2  0  0  0
 13 54  1  0  0  0
 14 29  1  0  0  0
 14 31  1  0  0  0
 15 30  2  0  0  0
 15 41  1  0  0  0
 16 17  2  0  0  0
 16 18  1  0  0  0
 16 30  1  0  0  0
 17 26  1  0  0  0
 18 23  2  0  0  0
 19 20  1  0  0  0
 19 31  1  0  0  0
 19 42  1  0  0  0
 19 43  1  0  0  0
 20 22  1  0  0  0
 20 32  1  0  0  0
 20 44  1  0  0  0
 21 32  1  0  0  0
 21 45  1  0  0  0
 22 46  1  0  0  0
 22 47  1  0  0  0
 23 48  1  0  0  0
 24 25  3  0  0  0
 25 49  1  0  0  0
 32 50  1  0  0  0
 33 51  1  0  0  0
 52 56  1  0  0  0
 52 59  1  0  0  0
 53 54  1  0  0  0
 53 55  1  0  0  0
 53 60  1  0  0  0
 53 61  1  0  0  0
 54 62  1  0  0  0
 54 63  1  0  0  0
 55 56  1  0  0  0
 55 64  1  0  0  0
 55 65  1  0  0  0
 56 58  2  0  0  0
 57 58  1  0  0  0
 57 59  2  0  0  0
 57 66  1  0  0  0
 58 67  1  0  0  0
 59 68  1  0  0  0
M  CHG  1  53   1
M  END
> <s_m_entry_id>
357

> <s_m_entry_name>
000000357.1

> <s_m_Source_Path>
/Users/zaksoul/Documents/2

> <s_m_Source_File>
000000357.mol2

> <i_m_Source_File_Index>
1

$$$$
No_0_381
                    3D
 Schrodinger Suite 2022-4.
 68 74  0  0  1  0            999 V2000
   -5.2850    3.4060  -21.9850 C   0  0  0  0  0  0
   -5.5070    3.6120  -23.3260 C   0  0  0  0  0  0
   -4.0570    3.1610  -21.6040 C   0  0  0  0  0  0
   -3.0920    3.3320  -23.7350 C   0  0  0  0  0  0
   -2.9780    3.0670  -22.3130 C   0  0  0  0  0  0
   -4.4230    3.5870  -24.2990 C   0  0  0  0  0  0
   -3.5910    3.6520  -26.4680 C   0  0  0  0  0  0
    5.9540    2.9480  -20.8730 C   0  0  0  0  0  0
    5.9040    3.1290  -23.4230 C   0  0  0  0  0  0
   -4.6280    3.7330  -25.6400 C   0  0  0  0  0  0
    2.1160    3.6330  -23.5670 C   0  0  0  0  0  0
    1.2720    4.7270  -23.2800 C   0  0  0  0  0  0
    3.0300    5.9330  -22.5180 C   0  0  0  0  0  0
    3.5020    3.8350  -23.2010 C   0  0  0  0  0  0
    1.6070    2.5200  -24.2640 C   0  0  0  0  0  0
   -0.5330    3.3070  -24.2160 C   0  0  0  0  0  0
   -0.0420    4.5240  -23.5800 C   0  0  0  0  0  0
   -1.9720    3.3020  -24.6220 C   0  0  0  0  0  0
    4.1270    1.3400  -22.9260 C   0  0  0  0  0  0
    5.0240    0.9770  -21.7530 C   0  0  2  0  0  0
    6.6160    2.5440  -22.2090 C   0  0  2  0  0  0
    4.9530    1.9600  -20.5720 C   0  0  0  0  0  0
   -2.2490    3.4800  -26.0580 C   0  0  0  0  0  0
   -1.6510    2.6600  -21.6740 C   0  0  0  0  0  0
   -0.6340    2.3160  -21.1370 C   0  0  0  0  0  0
   -0.9080    5.5530  -23.2500 F   0  0  0  0  0  0
   -3.8930    2.9000  -20.2190 F   0  0  0  0  0  0
    1.7160    5.8830  -22.7140 N   0  0  0  0  0  0
    3.9450    4.9840  -22.7210 N   0  0  0  0  0  0
    0.3130    2.4200  -24.6160 N   0  0  0  0  0  0
    4.4390    2.8010  -23.3610 N   0  0  0  0  0  0
    6.4460    1.0680  -22.1840 N   0  0  1  0  0  0
   -3.7150    3.6870  -27.8630 O   0  0  0  0  0  0
   -6.1129    3.4481  -21.2865 H   0  0  0  0  0  0
   -6.5113    3.8008  -23.6876 H   0  0  0  0  0  0
    5.4755    3.9322  -20.9840 H   0  0  0  0  0  0
    6.7129    2.9551  -20.0768 H   0  0  0  0  0  0
    6.3357    2.7034  -24.3409 H   0  0  0  0  0  0
    6.0352    4.2211  -23.4341 H   0  0  0  0  0  0
   -5.6276    3.9116  -26.0194 H   0  0  0  0  0  0
    2.2654    1.7030  -24.5360 H   0  0  0  0  0  0
    3.0735    1.2663  -22.6182 H   0  0  0  0  0  0
    4.3268    0.6568  -23.7646 H   0  0  0  0  0  0
    4.7990   -0.0430  -21.4080 H   0  0  0  0  0  0
    7.6822    2.8143  -22.2140 H   0  0  0  0  0  0
    3.9627    2.4385  -20.5558 H   0  0  0  0  0  0
    5.2265    1.4353  -19.6447 H   0  0  0  0  0  0
   -1.4530    3.4810  -26.7938 H   0  0  0  0  0  0
    0.2608    2.0137  -20.6646 H   0  0  0  0  0  0
    7.0744    0.5668  -21.4627 H   0  0  0  0  0  0
   -2.8548    3.6157  -28.2599 H   0  0  0  0  0  0
    6.9990    8.7970  -23.1430 O   0  0  0  0  0  0
    4.9580    7.1500  -21.4740 N   0  3  0  0  0  0
    3.5560    7.2710  -22.0100 C   0  0  0  0  0  0
    5.6040    8.4570  -21.0960 C   0  0  0  0  0  0
    6.0250    9.2240  -22.3350 C   0  0  0  0  0  0
    6.2020   10.6690  -23.9740 C   0  0  0  0  0  0
    5.5030   10.3600  -22.7830 C   0  0  0  0  0  0
    7.0830    9.6890  -24.1310 C   0  0  0  0  0  0
    5.5349    6.6771  -22.1519 H   0  0  0  0  0  0
    4.9580    6.5352  -20.6752 H   0  0  0  0  0  0
    3.5400    8.0056  -22.8286 H   0  0  0  0  0  0
    2.8927    7.6482  -21.2177 H   0  0  0  0  0  0
    6.4860    8.2630  -20.4680 H   0  0  0  0  0  0
    4.8925    9.0626  -20.5154 H   0  0  0  0  0  0
    5.9509   11.5673  -24.5362 H   0  0  0  0  0  0
    4.6980   10.8440  -22.2320 H   0  0  0  0  0  0
    7.7521    9.6910  -24.9902 H   0  0  0  0  0  0
  1  2  2  0  0  0
  1  3  1  0  0  0
  1 34  1  0  0  0
  2  6  1  0  0  0
  2 35  1  0  0  0
  3  5  2  0  0  0
  3 27  1  0  0  0
  4  5  1  0  0  0
  4  6  2  0  0  0
  4 18  1  0  0  0
  5 24  1  0  0  0
  6 10  1  0  0  0
  7 10  2  0  0  0
  7 23  1  0  0  0
  7 33  1  0  0  0
  8 21  1  0  0  0
  8 22  1  0  0  0
  8 36  1  0  0  0
  8 37  1  0  0  0
  9 21  1  0  0  0
  9 31  1  0  0  0
  9 38  1  0  0  0
  9 39  1  0  0  0
 10 40  1  0  0  0
 11 12  1  0  0  0
 11 14  2  0  0  0
 11 15  1  0  0  0
 12 17  1  0  0  0
 12 28  2  0  0  0
 13 28  1  0  0  0
 13 29  2  0  0  0
 13 54  1  0  0  0
 14 29  1  0  0  0
 14 31  1  0  0  0
 15 30  2  0  0  0
 15 41  1  0  0  0
 16 17  2  0  0  0
 16 18  1  0  0  0
 16 30  1  0  0  0
 17 26  1  0  0  0
 18 23  2  0  0  0
 19 20  1  0  0  0
 19 31  1  0  0  0
 19 42  1  0  0  0
 19 43  1  0  0  0
 20 22  1  0  0  0
 20 32  1  0  0  0
 20 44  1  0  0  0
 21 32  1  0  0  0
 21 45  1  0  0  0
 22 46  1  0  0  0
 22 47  1  0  0  0
 23 48  1  0  0  0
 24 25  3  0  0  0
 25 49  1  0  0  0
 32 50  1  0  0  0
 33 51  1  0  0  0
 52 56  1  0  0  0
 52 59  1  0  0  0
 53 54  1  0  0  0
 53 55  1  0  0  0
 53 60  1  0  0  0
 53 61  1  0  0  0
 54 62  1  0  0  0
 54 63  1  0  0  0
 55 56  1  0  0  0
 55 64  1  0  0  0
 55 65  1  0  0  0
 56 58  2  0  0  0
 57 58  1  0  0  0
 57 59  2  0  0  0
 57 66  1  0  0  0
 58 67  1  0  0  0
 59 68  1  0  0  0
M  CHG  1  53   1
M  END
> <s_m_entry_id>
358

> <s_m_entry_name>
000000358.1

> <s_m_Source_Path>
/Users/zaksoul/Documents/2

> <s_m_Source_File>
000000358.mol2

> <i_m_Source_File_Index>
1

$$$$
No_0_382
                    3D
 Schrodinger Suite 2022-4.
 68 74  0  0  1  0            999 V2000
   -5.4540    3.4420  -21.9600 C   0  0  0  0  0  0
   -5.6910    3.6320  -23.3010 C   0  0  0  0  0  0
   -4.2180    3.2250  -21.5880 C   0  0  0  0  0  0
   -3.2750    3.3920  -23.7290 C   0  0  0  0  0  0
   -3.1440    3.1430  -22.3060 C   0  0  0  0  0  0
   -4.6150    3.6170  -24.2840 C   0  0  0  0  0  0
   -3.8040    3.6760  -26.4610 C   0  0  0  0  0  0
    5.8020    3.2020  -20.9470 C   0  0  0  0  0  0
    5.7260    3.3570  -23.4980 C   0  0  0  0  0  0
   -4.8360    3.7460  -25.6240 C   0  0  0  0  0  0
    1.9280    3.7900  -23.6120 C   0  0  0  0  0  0
    1.0660    4.8710  -23.3280 C   0  0  0  0  0  0
    2.8090    6.1160  -22.5940 C   0  0  0  0  0  0
    3.3130    4.0210  -23.2610 C   0  0  0  0  0  0
    1.4330    2.6610  -24.2930 C   0  0  0  0  0  0
   -0.7200    3.4090  -24.2340 C   0  0  0  0  0  0
   -0.2460    4.6410  -23.6140 C   0  0  0  0  0  0
   -2.1630    3.3740  -24.6260 C   0  0  0  0  0  0
    3.9870    1.5410  -22.9680 C   0  0  0  0  0  0
    4.9000    1.2060  -21.7990 C   0  0  2  0  0  0
    6.4590    2.7980  -22.2850 C   0  0  2  0  0  0
    4.8220    2.1980  -20.6270 C   0  0  0  0  0  0
   -2.4560    3.5330  -26.0610 C   0  0  0  0  0  0
   -1.8030    2.7670  -21.6750 C   0  0  0  0  0  0
   -0.7760    2.4470  -21.1440 C   0  0  0  0  0  0
   -1.1280    5.6580  -23.2860 F   0  0  0  0  0  0
   -4.0360    2.9790  -20.2030 F   0  0  0  0  0  0
    1.4940    6.0410  -22.7770 N   0  0  0  0  0  0
    3.7390    5.1830  -22.7960 N   0  0  0  0  0  0
    0.1380    2.5340  -24.6330 N   0  0  0  0  0  0
    4.2670    3.0030  -23.4200 N   0  0  0  0  0  0
    6.3170    1.3190  -22.2440 N   0  0  1  0  0  0
   -3.9410    3.6950  -27.8550 O   0  0  0  0  0  0
   -6.2761    3.4761  -21.2543 H   0  0  0  0  0  0
   -6.7021    3.7987  -23.6544 H   0  0  0  0  0  0
    5.3044    4.1761  -21.0631 H   0  0  0  0  0  0
    6.5668    3.2313  -20.1569 H   0  0  0  0  0  0
    6.1570    2.9300  -24.4156 H   0  0  0  0  0  0
    5.8360    4.4512  -23.5212 H   0  0  0  0  0  0
   -5.8419    3.9026  -25.9964 H   0  0  0  0  0  0
    2.1045    1.8540  -24.5630 H   0  0  0  0  0  0
    2.9378    1.4502  -22.6502 H   0  0  0  0  0  0
    4.1919    0.8535  -23.8019 H   0  0  0  0  0  0
    4.6972    0.1852  -21.4429 H   0  0  0  0  0  0
    7.5201    3.0875  -22.3021 H   0  0  0  0  0  0
    3.8235    2.6589  -20.6058 H   0  0  0  0  0  0
    5.1138    1.6881  -19.6970 H   0  0  0  0  0  0
   -1.6663    3.5410  -26.8035 H   0  0  0  0  0  0
    0.1284    2.1659  -20.6768 H   0  0  0  0  0  0
    6.9604    0.8359  -21.5236 H   0  0  0  0  0  0
   -3.0833    3.6356  -28.2591 H   0  0  0  0  0  0
    6.2250    9.4430  -23.8640 O   0  0  0  0  0  0
    4.8090    7.4710  -21.9220 N   0  3  0  0  0  0
    3.3150    7.4690  -22.1030 C   0  0  0  0  0  0
    5.4020    8.8150  -21.5880 C   0  0  0  0  0  0
    5.4390    9.7040  -22.8170 C   0  0  0  0  0  0
    5.0800   11.2640  -24.3140 C   0  0  0  0  0  0
    4.7210   10.8010  -23.0260 C   0  0  0  0  0  0
    5.9840   10.4010  -24.7600 C   0  0  0  0  0  0
    5.2472    7.1109  -22.7553 H   0  0  0  0  0  0
    5.0590    6.8091  -21.2041 H   0  0  0  0  0  0
    3.0329    8.2493  -22.8252 H   0  0  0  0  0  0
    2.8297    7.7162  -21.1473 H   0  0  0  0  0  0
    6.4235    8.6799  -21.2028 H   0  0  0  0  0  0
    4.7988    9.2972  -20.8047 H   0  0  0  0  0  0
    4.6178   12.1634  -24.7182 H   0  0  0  0  0  0
    4.0310   11.1540  -22.2610 H   0  0  0  0  0  0
    6.4232   10.5341  -25.7476 H   0  0  0  0  0  0
  1  2  2  0  0  0
  1  3  1  0  0  0
  1 34  1  0  0  0
  2  6  1  0  0  0
  2 35  1  0  0  0
  3  5  2  0  0  0
  3 27  1  0  0  0
  4  5  1  0  0  0
  4  6  2  0  0  0
  4 18  1  0  0  0
  5 24  1  0  0  0
  6 10  1  0  0  0
  7 10  2  0  0  0
  7 23  1  0  0  0
  7 33  1  0  0  0
  8 21  1  0  0  0
  8 22  1  0  0  0
  8 36  1  0  0  0
  8 37  1  0  0  0
  9 21  1  0  0  0
  9 31  1  0  0  0
  9 38  1  0  0  0
  9 39  1  0  0  0
 10 40  1  0  0  0
 11 12  1  0  0  0
 11 14  2  0  0  0
 11 15  1  0  0  0
 12 17  1  0  0  0
 12 28  2  0  0  0
 13 28  1  0  0  0
 13 29  2  0  0  0
 13 54  1  0  0  0
 14 29  1  0  0  0
 14 31  1  0  0  0
 15 30  2  0  0  0
 15 41  1  0  0  0
 16 17  2  0  0  0
 16 18  1  0  0  0
 16 30  1  0  0  0
 17 26  1  0  0  0
 18 23  2  0  0  0
 19 20  1  0  0  0
 19 31  1  0  0  0
 19 42  1  0  0  0
 19 43  1  0  0  0
 20 22  1  0  0  0
 20 32  1  0  0  0
 20 44  1  0  0  0
 21 32  1  0  0  0
 21 45  1  0  0  0
 22 46  1  0  0  0
 22 47  1  0  0  0
 23 48  1  0  0  0
 24 25  3  0  0  0
 25 49  1  0  0  0
 32 50  1  0  0  0
 33 51  1  0  0  0
 52 56  1  0  0  0
 52 59  1  0  0  0
 53 54  1  0  0  0
 53 55  1  0  0  0
 53 60  1  0  0  0
 53 61  1  0  0  0
 54 62  1  0  0  0
 54 63  1  0  0  0
 55 56  1  0  0  0
 55 64  1  0  0  0
 55 65  1  0  0  0
 56 58  2  0  0  0
 57 58  1  0  0  0
 57 59  2  0  0  0
 57 66  1  0  0  0
 58 67  1  0  0  0
 59 68  1  0  0  0
M  CHG  1  53   1
M  END
> <s_m_entry_id>
359

> <s_m_entry_name>
000000359.1

> <s_m_Source_Path>
/Users/zaksoul/Documents/2

> <s_m_Source_File>
000000359.mol2

> <i_m_Source_File_Index>
1

$$$$
No_0_383
                    3D
 Schrodinger Suite 2022-4.
 67 73  0  0  1  0            999 V2000
   -5.3060    3.6220  -21.9290 C   0  0  0  0  0  0
   -5.5830    3.7940  -23.2650 C   0  0  0  0  0  0
   -4.0650    3.3720  -21.5960 C   0  0  0  0  0  0
   -3.1930    3.4680  -23.7710 C   0  0  0  0  0  0
   -3.0200    3.2420  -22.3490 C   0  0  0  0  0  0
   -4.5440    3.7260  -24.2830 C   0  0  0  0  0  0
   -3.8090    3.7170  -26.4880 C   0  0  0  0  0  0
    5.9660    3.0360  -21.3000 C   0  0  0  0  0  0
    5.8050    3.1450  -23.8500 C   0  0  0  0  0  0
   -4.8070    3.8360  -25.6180 C   0  0  0  0  0  0
    2.0210    3.6990  -23.8410 C   0  0  0  0  0  0
    1.2040    4.8130  -23.5490 C   0  0  0  0  0  0
    3.0100    6.0140  -22.9010 C   0  0  0  0  0  0
    3.4240    3.8910  -23.5420 C   0  0  0  0  0  0
    1.4670    2.5740  -24.4820 C   0  0  0  0  0  0
   -0.6580    3.3920  -24.3640 C   0  0  0  0  0  0
   -0.1240    4.6200  -23.7850 C   0  0  0  0  0  0
   -2.1140    3.3960  -24.7050 C   0  0  0  0  0  0
    4.0280    1.3970  -23.2230 C   0  0  0  0  0  0
    4.9720    1.0540  -22.0800 C   0  0  2  0  0  0
    6.5620    2.5850  -22.6510 C   0  0  2  0  0  0
    4.9660    2.0710  -20.9260 C   0  0  0  0  0  0
   -2.4520    3.5370  -26.1320 C   0  0  0  0  0  0
   -1.6710    2.8340  -21.7570 C   0  0  0  0  0  0
   -0.6360    2.4910  -21.2550 C   0  0  0  0  0  0
   -0.9610    5.6710  -23.4470 F   0  0  0  0  0  0
   -3.8430    3.1470  -20.2130 F   0  0  0  0  0  0
    1.6880    5.9780  -23.0370 N   0  0  0  0  0  0
    3.9030    5.0470  -23.1160 N   0  0  0  0  0  0
    0.1580    2.4830  -24.7750 N   0  0  0  0  0  0
    4.3390    2.8400  -23.7140 N   0  0  0  0  0  0
    6.3740    1.1130  -22.5760 N   0  0  1  0  0  0
   -3.9940    3.7140  -27.8760 O   0  0  0  0  0  0
   -6.1012    3.6963  -21.1961 H   0  0  0  0  0  0
   -6.6005    3.9857  -23.5861 H   0  0  0  0  0  0
    5.4956    4.0233  -21.4181 H   0  0  0  0  0  0
    6.7587    3.0552  -20.5376 H   0  0  0  0  0  0
    6.1908    2.6875  -24.7730 H   0  0  0  0  0  0
    5.9494    4.2344  -23.8985 H   0  0  0  0  0  0
   -5.8201    4.0176  -25.9581 H   0  0  0  0  0  0
    2.1021    1.7403  -24.7589 H   0  0  0  0  0  0
    2.9882    1.3465  -22.8677 H   0  0  0  0  0  0
    4.1824    0.6876  -24.0494 H   0  0  0  0  0  0
    4.7489    0.0475  -21.6964 H   0  0  0  0  0  0
    7.6303    2.8402  -22.7105 H   0  0  0  0  0  0
    3.9838    2.5641  -20.8806 H   0  0  0  0  0  0
    5.2728    1.5693  -19.9964 H   0  0  0  0  0  0
   -1.6893    3.5059  -26.9017 H   0  0  0  0  0  0
    0.2751    2.1900  -20.8140 H   0  0  0  0  0  0
    7.0270    0.6236  -21.8685 H   0  0  0  0  0  0
   -3.1533    3.6191  -28.3082 H   0  0  0  0  0  0
    3.5850    7.4810  -20.9550 N   0  0  1  0  0  0
    5.7020   10.1630  -21.7300 N   0  0  0  0  0  0
    7.0550   10.1970  -21.8230 N   0  0  0  0  0  0
    4.0210    8.8210  -20.4230 C   0  0  0  0  0  0
    3.5760    7.3590  -22.4550 C   0  0  0  0  0  0
    5.4390    9.1890  -20.8210 C   0  0  0  0  0  0
    6.5600    8.6300  -20.3550 C   0  0  0  0  0  0
    7.5820    9.3050  -21.0250 C   0  0  0  0  0  0
    4.2507    6.7133  -20.5891 H   0  0  0  0  0  0
    5.1304   10.8066  -22.2956 H   0  0  0  0  0  0
    3.9380    8.8230  -19.3261 H   0  0  0  0  0  0
    3.3280    9.5980  -20.7780 H   0  0  0  0  0  0
    4.6012    7.4690  -22.8381 H   0  0  0  0  0  0
    2.9711    8.1709  -22.8850 H   0  0  0  0  0  0
    6.5050    7.8370  -19.6180 H   0  0  0  0  0  0
    8.6590    9.1940  -20.9730 H   0  0  0  0  0  0
  1  2  2  0  0  0
  1  3  1  0  0  0
  1 34  1  0  0  0
  2  6  1  0  0  0
  2 35  1  0  0  0
  3  5  2  0  0  0
  3 27  1  0  0  0
  4  5  1  0  0  0
  4  6  2  0  0  0
  4 18  1  0  0  0
  5 24  1  0  0  0
  6 10  1  0  0  0
  7 10  2  0  0  0
  7 23  1  0  0  0
  7 33  1  0  0  0
  8 21  1  0  0  0
  8 22  1  0  0  0
  8 36  1  0  0  0
  8 37  1  0  0  0
  9 21  1  0  0  0
  9 31  1  0  0  0
  9 38  1  0  0  0
  9 39  1  0  0  0
 10 40  1  0  0  0
 11 12  1  0  0  0
 11 14  2  0  0  0
 11 15  1  0  0  0
 12 17  1  0  0  0
 12 28  2  0  0  0
 13 28  1  0  0  0
 13 29  2  0  0  0
 13 56  1  0  0  0
 14 29  1  0  0  0
 14 31  1  0  0  0
 15 30  2  0  0  0
 15 41  1  0  0  0
 16 17  2  0  0  0
 16 18  1  0  0  0
 16 30  1  0  0  0
 17 26  1  0  0  0
 18 23  2  0  0  0
 19 20  1  0  0  0
 19 31  1  0  0  0
 19 42  1  0  0  0
 19 43  1  0  0  0
 20 22  1  0  0  0
 20 32  1  0  0  0
 20 44  1  0  0  0
 21 32  1  0  0  0
 21 45  1  0  0  0
 22 46  1  0  0  0
 22 47  1  0  0  0
 23 48  1  0  0  0
 24 25  3  0  0  0
 25 49  1  0  0  0
 32 50  1  0  0  0
 33 51  1  0  0  0
 52 55  1  0  0  0
 52 56  1  0  0  0
 52 60  1  0  0  0
 53 54  1  0  0  0
 53 57  1  0  0  0
 53 61  1  0  0  0
 54 59  2  0  0  0
 55 57  1  0  0  0
 55 62  1  0  0  0
 55 63  1  0  0  0
 56 64  1  0  0  0
 56 65  1  0  0  0
 57 58  2  0  0  0
 58 59  1  0  0  0
 58 66  1  0  0  0
 59 67  1  0  0  0
M  END
> <s_m_entry_id>
360

> <s_m_entry_name>
000000360.1

> <s_m_Source_Path>
/Users/zaksoul/Documents/2

> <s_m_Source_File>
000000360.mol2

> <i_m_Source_File_Index>
1

$$$$
No_0_384
                    3D
 Schrodinger Suite 2022-4.
 67 73  0  0  1  0            999 V2000
   -5.3480    3.4120  -21.9900 C   0  0  0  0  0  0
   -5.6100    3.5510  -23.3320 C   0  0  0  0  0  0
   -4.1070    3.2000  -21.6340 C   0  0  0  0  0  0
   -3.2050    3.2780  -23.7970 C   0  0  0  0  0  0
   -3.0470    3.0830  -22.3690 C   0  0  0  0  0  0
   -4.5550    3.4910  -24.3340 C   0  0  0  0  0  0
   -3.7860    3.4590  -26.5280 C   0  0  0  0  0  0
    5.9230    3.1300  -21.1860 C   0  0  0  0  0  0
    5.7980    3.1860  -23.7400 C   0  0  0  0  0  0
   -4.8000    3.5690  -25.6750 C   0  0  0  0  0  0
    2.0020    3.6420  -23.7960 C   0  0  0  0  0  0
    1.1520    4.7400  -23.5380 C   0  0  0  0  0  0
    2.9170    6.0000  -22.8870 C   0  0  0  0  0  0
    3.3950    3.8760  -23.4810 C   0  0  0  0  0  0
    1.4860    2.4910  -24.4240 C   0  0  0  0  0  0
   -0.6610    3.2560  -24.3520 C   0  0  0  0  0  0
   -0.1670    4.5080  -23.7900 C   0  0  0  0  0  0
   -2.1110    3.2160  -24.7140 C   0  0  0  0  0  0
    4.0580    1.4050  -23.1050 C   0  0  0  0  0  0
    4.9920    1.1090  -21.9420 C   0  0  2  0  0  0
    6.5520    2.6690  -22.5190 C   0  0  2  0  0  0
    4.9430    2.1470  -20.8080 C   0  0  0  0  0  0
   -2.4310    3.3210  -26.1490 C   0  0  0  0  0  0
   -1.6980    2.7220  -21.7490 C   0  0  0  0  0  0
   -0.6620    2.4160  -21.2270 C   0  0  0  0  0  0
   -1.0350    5.5430  -23.4840 F   0  0  0  0  0  0
   -3.8990    3.0080  -20.2430 F   0  0  0  0  0  0
    1.5980    5.9260  -23.0420 N   0  0  0  0  0  0
    3.8380    5.0520  -23.0710 N   0  0  0  0  0  0
    0.1840    2.3610  -24.7330 N   0  0  0  0  0  0
    4.3390    2.8460  -23.6190 N   0  0  0  0  0  0
    6.4000    1.1940  -22.4180 N   0  0  1  0  0  0
   -3.9500    3.4250  -27.9180 O   0  0  0  0  0  0
   -6.1559    3.4802  -21.2704 H   0  0  0  0  0  0
   -6.6268    3.7106  -23.6723 H   0  0  0  0  0  0
    5.4301    4.1027  -21.3304 H   0  0  0  0  0  0
    6.7039    3.1835  -20.4131 H   0  0  0  0  0  0
    6.2087    2.7208  -24.6482 H   0  0  0  0  0  0
    5.9151    4.2776  -23.8077 H   0  0  0  0  0  0
   -5.8126    3.7175  -26.0323 H   0  0  0  0  0  0
    2.1465    1.6689  -24.6749 H   0  0  0  0  0  0
    3.0146    1.3344  -22.7639 H   0  0  0  0  0  0
    4.2417    0.6843  -23.9155 H   0  0  0  0  0  0
    4.7902    0.1042  -21.5425 H   0  0  0  0  0  0
    7.6144    2.9498  -22.5685 H   0  0  0  0  0  0
    3.9475    2.6145  -20.7858 H   0  0  0  0  0  0
    5.2499    1.6706  -19.8652 H   0  0  0  0  0  0
   -1.6562    3.2959  -26.9067 H   0  0  0  0  0  0
    0.2493    2.1459  -20.7669 H   0  0  0  0  0  0
    7.0543    0.7343  -21.6921 H   0  0  0  0  0  0
   -3.1007    3.3428  -28.3357 H   0  0  0  0  0  0
    3.7690    7.3940  -20.9910 N   0  0  1  0  0  0
    5.4090   10.3320  -21.9670 N   0  0  0  0  0  0
    6.7000   10.5170  -22.3420 N   0  0  0  0  0  0
    4.1860    8.7380  -20.4510 C   0  0  0  0  0  0
    3.4420    7.3660  -22.4600 C   0  0  0  0  0  0
    5.4420    9.2800  -21.1090 C   0  0  0  0  0  0
    6.6850    8.8170  -20.9400 C   0  0  0  0  0  0
    7.4690    9.6390  -21.7520 C   0  0  0  0  0  0
    4.5665    6.6816  -20.8399 H   0  0  0  0  0  0
    4.6710   10.9450  -22.3420 H   0  0  0  0  0  0
    4.3461    8.6620  -19.3654 H   0  0  0  0  0  0
    3.3642    9.4568  -20.5850 H   0  0  0  0  0  0
    4.3442    7.6100  -23.0401 H   0  0  0  0  0  0
    2.6861    8.1339  -22.6810 H   0  0  0  0  0  0
    6.8650    7.9778  -20.2779 H   0  0  0  0  0  0
    8.5368    9.6410  -21.9390 H   0  0  0  0  0  0
  1  2  2  0  0  0
  1  3  1  0  0  0
  1 34  1  0  0  0
  2  6  1  0  0  0
  2 35  1  0  0  0
  3  5  2  0  0  0
  3 27  1  0  0  0
  4  5  1  0  0  0
  4  6  2  0  0  0
  4 18  1  0  0  0
  5 24  1  0  0  0
  6 10  1  0  0  0
  7 10  2  0  0  0
  7 23  1  0  0  0
  7 33  1  0  0  0
  8 21  1  0  0  0
  8 22  1  0  0  0
  8 36  1  0  0  0
  8 37  1  0  0  0
  9 21  1  0  0  0
  9 31  1  0  0  0
  9 38  1  0  0  0
  9 39  1  0  0  0
 10 40  1  0  0  0
 11 12  1  0  0  0
 11 14  2  0  0  0
 11 15  1  0  0  0
 12 17  1  0  0  0
 12 28  2  0  0  0
 13 28  1  0  0  0
 13 29  2  0  0  0
 13 56  1  0  0  0
 14 29  1  0  0  0
 14 31  1  0  0  0
 15 30  2  0  0  0
 15 41  1  0  0  0
 16 17  2  0  0  0
 16 18  1  0  0  0
 16 30  1  0  0  0
 17 26  1  0  0  0
 18 23  2  0  0  0
 19 20  1  0  0  0
 19 31  1  0  0  0
 19 42  1  0  0  0
 19 43  1  0  0  0
 20 22  1  0  0  0
 20 32  1  0  0  0
 20 44  1  0  0  0
 21 32  1  0  0  0
 21 45  1  0  0  0
 22 46  1  0  0  0
 22 47  1  0  0  0
 23 48  1  0  0  0
 24 25  3  0  0  0
 25 49  1  0  0  0
 32 50  1  0  0  0
 33 51  1  0  0  0
 52 55  1  0  0  0
 52 56  1  0  0  0
 52 60  1  0  0  0
 53 54  1  0  0  0
 53 57  1  0  0  0
 53 61  1  0  0  0
 54 59  2  0  0  0
 55 57  1  0  0  0
 55 62  1  0  0  0
 55 63  1  0  0  0
 56 64  1  0  0  0
 56 65  1  0  0  0
 57 58  2  0  0  0
 58 59  1  0  0  0
 58 66  1  0  0  0
 59 67  1  0  0  0
M  END
> <s_m_entry_id>
361

> <s_m_entry_name>
000000361.1

> <s_m_Source_Path>
/Users/zaksoul/Documents/2

> <s_m_Source_File>
000000361.mol2

> <i_m_Source_File_Index>
1

$$$$
No_0_385
                    3D
 Schrodinger Suite 2022-4.
 67 73  0  0  1  0            999 V2000
   -5.3550    3.4900  -22.0030 C   0  0  0  0  0  0
   -5.6190    3.6690  -23.3400 C   0  0  0  0  0  0
   -4.1150    3.2560  -21.6560 C   0  0  0  0  0  0
   -3.2170    3.3830  -23.8190 C   0  0  0  0  0  0
   -3.0590    3.1480  -22.3960 C   0  0  0  0  0  0
   -4.5660    3.6250  -24.3460 C   0  0  0  0  0  0
   -3.8030    3.6460  -26.5420 C   0  0  0  0  0  0
    5.9150    3.0700  -21.2360 C   0  0  0  0  0  0
    5.7840    3.1980  -23.7860 C   0  0  0  0  0  0
   -4.8140    3.7420  -25.6830 C   0  0  0  0  0  0
    1.9920    3.6940  -23.8210 C   0  0  0  0  0  0
    1.1550    4.7930  -23.5300 C   0  0  0  0  0  0
    2.9340    6.0170  -22.8500 C   0  0  0  0  0  0
    3.3890    3.9060  -23.5030 C   0  0  0  0  0  0
    1.4640    2.5670  -24.4780 C   0  0  0  0  0  0
   -0.6750    3.3520  -24.3800 C   0  0  0  0  0  0
   -0.1670    4.5820  -23.7850 C   0  0  0  0  0  0
   -2.1260    3.3360  -24.7400 C   0  0  0  0  0  0
    4.0270    1.4180  -23.1960 C   0  0  0  0  0  0
    4.9610    1.0810  -22.0440 C   0  0  2  0  0  0
    6.5350    2.6400  -22.5830 C   0  0  2  0  0  0
    4.9250    2.0870  -20.8820 C   0  0  0  0  0  0
   -2.4480    3.4840  -26.1700 C   0  0  0  0  0  0
   -1.7110    2.7560  -21.7910 C   0  0  0  0  0  0
   -0.6780    2.4250  -21.2790 C   0  0  0  0  0  0
   -1.0240    5.6170  -23.4490 F   0  0  0  0  0  0
   -3.9070    3.0230  -20.2720 F   0  0  0  0  0  0
    1.6140    5.9610  -23.0030 N   0  0  0  0  0  0
    3.8450    5.0650  -23.0620 N   0  0  0  0  0  0
    0.1600    2.4580  -24.7880 N   0  0  0  0  0  0
    4.3220    2.8700  -23.6710 N   0  0  0  0  0  0
    6.3690    1.1640  -22.5220 N   0  0  1  0  0  0
   -3.9710    3.6510  -27.9320 O   0  0  0  0  0  0
   -6.1605    3.5462  -21.2798 H   0  0  0  0  0  0
   -6.6347    3.8487  -23.6732 H   0  0  0  0  0  0
    5.4311    4.0510  -21.3519 H   0  0  0  0  0  0
    6.6976    3.0952  -20.4634 H   0  0  0  0  0  0
    6.1875    2.7541  -24.7080 H   0  0  0  0  0  0
    5.9122    4.2898  -23.8243 H   0  0  0  0  0  0
   -5.8254    3.9116  -26.0342 H   0  0  0  0  0  0
    2.1151    1.7454  -24.7539 H   0  0  0  0  0  0
    2.9838    1.3494  -22.8540 H   0  0  0  0  0  0
    4.2015    0.7179  -24.0263 H   0  0  0  0  0  0
    4.7491    0.0679  -21.6716 H   0  0  0  0  0  0
    7.6001    2.9116  -22.6264 H   0  0  0  0  0  0
    3.9351    2.5653  -20.8447 H   0  0  0  0  0  0
    5.2289    1.5822  -19.9531 H   0  0  0  0  0  0
   -1.6751    3.4710  -26.9299 H   0  0  0  0  0  0
    0.2319    2.1340  -20.8290 H   0  0  0  0  0  0
    7.0201    0.6786  -21.8100 H   0  0  0  0  0  0
   -3.1232    3.5728  -28.3534 H   0  0  0  0  0  0
    4.2620    7.2330  -21.1110 N   0  0  1  0  0  0
    5.2830   10.4520  -22.0470 N   0  0  0  0  0  0
    6.3630   10.8390  -22.7720 N   0  0  0  0  0  0
    4.7400    8.5310  -20.5130 C   0  0  0  0  0  0
    3.4740    7.3660  -22.3860 C   0  0  0  0  0  0
    5.6690    9.3040  -21.4310 C   0  0  0  0  0  0
    6.9270    8.9750  -21.7400 C   0  0  0  0  0  0
    7.3420    9.9880  -22.6080 C   0  0  0  0  0  0
    5.1118    6.6071  -21.3400 H   0  0  0  0  0  0
    4.4220   11.0170  -22.0640 H   0  0  0  0  0  0
    5.2522    8.3289  -19.5607 H   0  0  0  0  0  0
    3.8722    9.1579  -20.2601 H   0  0  0  0  0  0
    4.1160    7.7920  -23.1710 H   0  0  0  0  0  0
    2.6356    8.0603  -22.2279 H   0  0  0  0  0  0
    7.3733    8.0814  -21.3187 H   0  0  0  0  0  0
    8.2858   10.1440  -23.1179 H   0  0  0  0  0  0
  1  2  2  0  0  0
  1  3  1  0  0  0
  1 34  1  0  0  0
  2  6  1  0  0  0
  2 35  1  0  0  0
  3  5  2  0  0  0
  3 27  1  0  0  0
  4  5  1  0  0  0
  4  6  2  0  0  0
  4 18  1  0  0  0
  5 24  1  0  0  0
  6 10  1  0  0  0
  7 10  2  0  0  0
  7 23  1  0  0  0
  7 33  1  0  0  0
  8 21  1  0  0  0
  8 22  1  0  0  0
  8 36  1  0  0  0
  8 37  1  0  0  0
  9 21  1  0  0  0
  9 31  1  0  0  0
  9 38  1  0  0  0
  9 39  1  0  0  0
 10 40  1  0  0  0
 11 12  1  0  0  0
 11 14  2  0  0  0
 11 15  1  0  0  0
 12 17  1  0  0  0
 12 28  2  0  0  0
 13 28  1  0  0  0
 13 29  2  0  0  0
 13 56  1  0  0  0
 14 29  1  0  0  0
 14 31  1  0  0  0
 15 30  2  0  0  0
 15 41  1  0  0  0
 16 17  2  0  0  0
 16 18  1  0  0  0
 16 30  1  0  0  0
 17 26  1  0  0  0
 18 23  2  0  0  0
 19 20  1  0  0  0
 19 31  1  0  0  0
 19 42  1  0  0  0
 19 43  1  0  0  0
 20 22  1  0  0  0
 20 32  1  0  0  0
 20 44  1  0  0  0
 21 32  1  0  0  0
 21 45  1  0  0  0
 22 46  1  0  0  0
 22 47  1  0  0  0
 23 48  1  0  0  0
 24 25  3  0  0  0
 25 49  1  0  0  0
 32 50  1  0  0  0
 33 51  1  0  0  0
 52 55  1  0  0  0
 52 56  1  0  0  0
 52 60  1  0  0  0
 53 54  1  0  0  0
 53 57  1  0  0  0
 53 61  1  0  0  0
 54 59  2  0  0  0
 55 57  1  0  0  0
 55 62  1  0  0  0
 55 63  1  0  0  0
 56 64  1  0  0  0
 56 65  1  0  0  0
 57 58  2  0  0  0
 58 59  1  0  0  0
 58 66  1  0  0  0
 59 67  1  0  0  0
M  END
> <s_m_entry_id>
362

> <s_m_entry_name>
000000362.1

> <s_m_Source_Path>
/Users/zaksoul/Documents/2

> <s_m_Source_File>
000000362.mol2

> <i_m_Source_File_Index>
1

$$$$
No_0_386
                    3D
 Schrodinger Suite 2022-4.
 67 73  0  0  1  0            999 V2000
   -5.3210    3.4770  -22.0020 C   0  0  0  0  0  0
   -5.5870    3.6550  -23.3390 C   0  0  0  0  0  0
   -4.0790    3.2450  -21.6570 C   0  0  0  0  0  0
   -3.1850    3.3750  -23.8210 C   0  0  0  0  0  0
   -3.0240    3.1400  -22.3990 C   0  0  0  0  0  0
   -4.5350    3.6140  -24.3460 C   0  0  0  0  0  0
   -3.7760    3.6360  -26.5430 C   0  0  0  0  0  0
    5.9520    3.0810  -21.2520 C   0  0  0  0  0  0
    5.8170    3.2080  -23.8020 C   0  0  0  0  0  0
   -4.7850    3.7310  -25.6830 C   0  0  0  0  0  0
    2.0240    3.6970  -23.8310 C   0  0  0  0  0  0
    1.1850    4.7940  -23.5390 C   0  0  0  0  0  0
    2.9630    6.0210  -22.8610 C   0  0  0  0  0  0
    3.4200    3.9110  -23.5160 C   0  0  0  0  0  0
    1.4970    2.5680  -24.4880 C   0  0  0  0  0  0
   -0.6430    3.3480  -24.3860 C   0  0  0  0  0  0
   -0.1370    4.5800  -23.7920 C   0  0  0  0  0  0
   -2.0950    3.3300  -24.7440 C   0  0  0  0  0  0
    4.0640    1.4240  -23.2100 C   0  0  0  0  0  0
    5.0010    1.0890  -22.0590 C   0  0  2  0  0  0
    6.5710    2.6520  -22.6000 C   0  0  2  0  0  0
    4.9640    2.0960  -20.8970 C   0  0  0  0  0  0
   -2.4200    3.4770  -26.1730 C   0  0  0  0  0  0
   -1.6750    2.7510  -21.7950 C   0  0  0  0  0  0
   -0.6400    2.4220  -21.2850 C   0  0  0  0  0  0
   -0.9960    5.6130  -23.4550 F   0  0  0  0  0  0
   -3.8680    3.0130  -20.2730 F   0  0  0  0  0  0
    1.6430    5.9630  -23.0120 N   0  0  0  0  0  0
    3.8750    5.0710  -23.0750 N   0  0  0  0  0  0
    0.1930    2.4560  -24.7960 N   0  0  0  0  0  0
    4.3550    2.8770  -23.6850 N   0  0  0  0  0  0
    6.4070    1.1760  -22.5390 N   0  0  1  0  0  0
   -3.9450    3.6410  -27.9330 O   0  0  0  0  0  0
   -6.1252    3.5312  -21.2771 H   0  0  0  0  0  0
   -6.6038    3.8327  -23.6702 H   0  0  0  0  0  0
    5.4656    4.0608  -21.3680 H   0  0  0  0  0  0
    6.7361    3.1072  -20.4810 H   0  0  0  0  0  0
    6.2195    2.7652  -24.7250 H   0  0  0  0  0  0
    5.9432    4.3001  -23.8404 H   0  0  0  0  0  0
   -5.7976    3.8976  -26.0322 H   0  0  0  0  0  0
    2.1496    1.7477  -24.7641 H   0  0  0  0  0  0
    3.0213    1.3533  -22.8668 H   0  0  0  0  0  0
    4.2396    0.7246  -24.0406 H   0  0  0  0  0  0
    4.7912    0.0754  -21.6868 H   0  0  0  0  0  0
    7.6354    2.9257  -22.6454 H   0  0  0  0  0  0
    3.9728    2.5714  -20.8586 H   0  0  0  0  0  0
    5.2707    1.5916  -19.9688 H   0  0  0  0  0  0
   -1.6485    3.4660  -26.9344 H   0  0  0  0  0  0
    0.2712    2.1319  -20.8369 H   0  0  0  0  0  0
    7.0612    0.6917  -21.8292 H   0  0  0  0  0  0
   -3.0980    3.5648  -28.3565 H   0  0  0  0  0  0
    4.5200    7.2100  -21.3040 N   0  0  1  0  0  0
    5.1580   10.5490  -22.1520 N   0  0  0  0  0  0
    6.0580   11.0610  -23.0290 N   0  0  0  0  0  0
    5.0250    8.4960  -20.7020 C   0  0  0  0  0  0
    3.5000    7.3710  -22.3990 C   0  0  0  0  0  0
    5.7190    9.3940  -21.7110 C   0  0  0  0  0  0
    6.9140    9.1780  -22.2700 C   0  0  0  0  0  0
    7.0980   10.2740  -23.1160 C   0  0  0  0  0  0
    5.3468    6.6641  -21.7339 H   0  0  0  0  0  0
    4.2778   11.0506  -21.9662 H   0  0  0  0  0  0
    5.7191    8.2670  -19.8799 H   0  0  0  0  0  0
    4.1851    9.0399  -20.2451 H   0  0  0  0  0  0
    3.9571    7.8951  -23.2512 H   0  0  0  0  0  0
    2.6677    7.9912  -22.0349 H   0  0  0  0  0  0
    7.4824    8.2924  -22.0098 H   0  0  0  0  0  0
    7.9192   10.5311  -23.7752 H   0  0  0  0  0  0
  1  2  2  0  0  0
  1  3  1  0  0  0
  1 34  1  0  0  0
  2  6  1  0  0  0
  2 35  1  0  0  0
  3  5  2  0  0  0
  3 27  1  0  0  0
  4  5  1  0  0  0
  4  6  2  0  0  0
  4 18  1  0  0  0
  5 24  1  0  0  0
  6 10  1  0  0  0
  7 10  2  0  0  0
  7 23  1  0  0  0
  7 33  1  0  0  0
  8 21  1  0  0  0
  8 22  1  0  0  0
  8 36  1  0  0  0
  8 37  1  0  0  0
  9 21  1  0  0  0
  9 31  1  0  0  0
  9 38  1  0  0  0
  9 39  1  0  0  0
 10 40  1  0  0  0
 11 12  1  0  0  0
 11 14  2  0  0  0
 11 15  1  0  0  0
 12 17  1  0  0  0
 12 28  2  0  0  0
 13 28  1  0  0  0
 13 29  2  0  0  0
 13 56  1  0  0  0
 14 29  1  0  0  0
 14 31  1  0  0  0
 15 30  2  0  0  0
 15 41  1  0  0  0
 16 17  2  0  0  0
 16 18  1  0  0  0
 16 30  1  0  0  0
 17 26  1  0  0  0
 18 23  2  0  0  0
 19 20  1  0  0  0
 19 31  1  0  0  0
 19 42  1  0  0  0
 19 43  1  0  0  0
 20 22  1  0  0  0
 20 32  1  0  0  0
 20 44  1  0  0  0
 21 32  1  0  0  0
 21 45  1  0  0  0
 22 46  1  0  0  0
 22 47  1  0  0  0
 23 48  1  0  0  0
 24 25  3  0  0  0
 25 49  1  0  0  0
 32 50  1  0  0  0
 33 51  1  0  0  0
 52 55  1  0  0  0
 52 56  1  0  0  0
 52 60  1  0  0  0
 53 54  1  0  0  0
 53 57  1  0  0  0
 53 61  1  0  0  0
 54 59  2  0  0  0
 55 57  1  0  0  0
 55 62  1  0  0  0
 55 63  1  0  0  0
 56 64  1  0  0  0
 56 65  1  0  0  0
 57 58  2  0  0  0
 58 59  1  0  0  0
 58 66  1  0  0  0
 59 67  1  0  0  0
M  END
> <s_m_entry_id>
363

> <s_m_entry_name>
000000363.1

> <s_m_Source_Path>
/Users/zaksoul/Documents/2

> <s_m_Source_File>
000000363.mol2

> <i_m_Source_File_Index>
1

$$$$
No_0_387
                    3D
 Schrodinger Suite 2022-4.
 67 73  0  0  1  0            999 V2000
   -5.1980    3.2140  -21.9200 C   0  0  0  0  0  0
   -5.4750    3.4270  -23.2500 C   0  0  0  0  0  0
   -3.9500    3.0050  -21.5870 C   0  0  0  0  0  0
   -3.0680    3.2300  -23.7490 C   0  0  0  0  0  0
   -2.8950    2.9540  -22.3350 C   0  0  0  0  0  0
   -4.4270    3.4480  -24.2620 C   0  0  0  0  0  0
   -3.6770    3.5630  -26.4590 C   0  0  0  0  0  0
    6.0830    3.1100  -21.2200 C   0  0  0  0  0  0
    5.9340    3.3160  -23.7640 C   0  0  0  0  0  0
   -4.6860    3.6010  -25.5930 C   0  0  0  0  0  0
    2.1300    3.6980  -23.7650 C   0  0  0  0  0  0
    1.2610    4.7610  -23.4350 C   0  0  0  0  0  0
    3.0070    6.0150  -22.7230 C   0  0  0  0  0  0
    3.5210    3.9410  -23.4470 C   0  0  0  0  0  0
    1.6310    2.5770  -24.4560 C   0  0  0  0  0  0
   -0.5290    3.2940  -24.3230 C   0  0  0  0  0  0
   -0.0550    4.5190  -23.6900 C   0  0  0  0  0  0
   -1.9820    3.2460  -24.6760 C   0  0  0  0  0  0
    4.2350    1.4650  -23.2250 C   0  0  0  0  0  0
    5.1850    1.1190  -22.0890 C   0  0  2  0  0  0
    6.7090    2.7420  -22.5830 C   0  0  2  0  0  0
    5.1260    2.0860  -20.8940 C   0  0  0  0  0  0
   -2.3160    3.4300  -26.0990 C   0  0  0  0  0  0
   -1.5330    2.5830  -21.7490 C   0  0  0  0  0  0
   -0.4870    2.2670  -21.2540 C   0  0  0  0  0  0
   -0.9410    5.5160  -23.3170 F   0  0  0  0  0  0
   -3.7270    2.7340  -20.2120 F   0  0  0  0  0  0
    1.6880    5.9250  -22.8720 N   0  0  0  0  0  0
    3.9440    5.0990  -22.9700 N   0  0  0  0  0  0
    0.3300    2.4390  -24.7630 N   0  0  0  0  0  0
    4.4830    2.9400  -23.6540 N   0  0  0  0  0  0
    6.5870    1.2610  -22.5700 N   0  0  1  0  0  0
   -3.8530    3.6090  -27.8470 O   0  0  0  0  0  0
   -6.0007    3.2220  -21.1915 H   0  0  0  0  0  0
   -6.4977    3.5866  -23.5721 H   0  0  0  0  0  0
    5.5691    4.0792  -21.3018 H   0  0  0  0  0  0
    6.8697    3.1332  -20.4515 H   0  0  0  0  0  0
    6.3463    2.9148  -24.7016 H   0  0  0  0  0  0
    6.0299    4.4118  -23.7670 H   0  0  0  0  0  0
   -5.7041    3.7516  -25.9334 H   0  0  0  0  0  0
    2.3055    1.7851  -24.7611 H   0  0  0  0  0  0
    3.1965    1.3540  -22.8798 H   0  0  0  0  0  0
    4.4267    0.7981  -24.0785 H   0  0  0  0  0  0
    5.0063    0.0883  -21.7488 H   0  0  0  0  0  0
    7.7651    3.0469  -22.6234 H   0  0  0  0  0  0
    4.1221    2.5320  -20.8365 H   0  0  0  0  0  0
    5.4499    1.5602  -19.9837 H   0  0  0  0  0  0
   -1.5474    3.4651  -26.8626 H   0  0  0  0  0  0
    0.4334    1.9892  -20.8173 H   0  0  0  0  0  0
    7.2573    0.7724  -21.8783 H   0  0  0  0  0  0
   -3.0060    3.5694  -28.2754 H   0  0  0  0  0  0
    4.7710    7.2150  -21.4130 N   0  0  1  0  0  0
    4.8660   10.6780  -21.9320 N   0  0  0  0  0  0
    5.4780   11.3890  -22.9130 N   0  0  0  0  0  0
    5.2800    8.4810  -20.7760 C   0  0  0  0  0  0
    3.5080    7.3640  -22.2180 C   0  0  0  0  0  0
    5.6240    9.5610  -21.7860 C   0  0  0  0  0  0
    6.6650    9.5560  -22.6240 C   0  0  0  0  0  0
    6.5370   10.7500  -23.3360 C   0  0  0  0  0  0
    5.5194    6.8243  -22.0865 H   0  0  0  0  0  0
    4.0122   11.0439  -21.4871 H   0  0  0  0  0  0
    6.1683    8.2532  -20.1685 H   0  0  0  0  0  0
    4.5261    8.8650  -20.0731 H   0  0  0  0  0  0
    3.6960    8.0289  -23.0739 H   0  0  0  0  0  0
    2.7316    7.8342  -21.5967 H   0  0  0  0  0  0
    7.3605    8.7246  -22.6190 H   0  0  0  0  0  0
    7.1478   11.1759  -24.1238 H   0  0  0  0  0  0
  1  2  2  0  0  0
  1  3  1  0  0  0
  1 34  1  0  0  0
  2  6  1  0  0  0
  2 35  1  0  0  0
  3  5  2  0  0  0
  3 27  1  0  0  0
  4  5  1  0  0  0
  4  6  2  0  0  0
  4 18  1  0  0  0
  5 24  1  0  0  0
  6 10  1  0  0  0
  7 10  2  0  0  0
  7 23  1  0  0  0
  7 33  1  0  0  0
  8 21  1  0  0  0
  8 22  1  0  0  0
  8 36  1  0  0  0
  8 37  1  0  0  0
  9 21  1  0  0  0
  9 31  1  0  0  0
  9 38  1  0  0  0
  9 39  1  0  0  0
 10 40  1  0  0  0
 11 12  1  0  0  0
 11 14  2  0  0  0
 11 15  1  0  0  0
 12 17  1  0  0  0
 12 28  2  0  0  0
 13 28  1  0  0  0
 13 29  2  0  0  0
 13 56  1  0  0  0
 14 29  1  0  0  0
 14 31  1  0  0  0
 15 30  2  0  0  0
 15 41  1  0  0  0
 16 17  2  0  0  0
 16 18  1  0  0  0
 16 30  1  0  0  0
 17 26  1  0  0  0
 18 23  2  0  0  0
 19 20  1  0  0  0
 19 31  1  0  0  0
 19 42  1  0  0  0
 19 43  1  0  0  0
 20 22  1  0  0  0
 20 32  1  0  0  0
 20 44  1  0  0  0
 21 32  1  0  0  0
 21 45  1  0  0  0
 22 46  1  0  0  0
 22 47  1  0  0  0
 23 48  1  0  0  0
 24 25  3  0  0  0
 25 49  1  0  0  0
 32 50  1  0  0  0
 33 51  1  0  0  0
 52 55  1  0  0  0
 52 56  1  0  0  0
 52 60  1  0  0  0
 53 54  1  0  0  0
 53 57  1  0  0  0
 53 61  1  0  0  0
 54 59  2  0  0  0
 55 57  1  0  0  0
 55 62  1  0  0  0
 55 63  1  0  0  0
 56 64  1  0  0  0
 56 65  1  0  0  0
 57 58  2  0  0  0
 58 59  1  0  0  0
 58 66  1  0  0  0
 59 67  1  0  0  0
M  END
> <s_m_entry_id>
364

> <s_m_entry_name>
000000364.1

> <s_m_Source_Path>
/Users/zaksoul/Documents/2

> <s_m_Source_File>
000000364.mol2

> <i_m_Source_File_Index>
1

$$$$
No_0_388
                    3D
 Schrodinger Suite 2022-4.
 67 73  0  0  1  0            999 V2000
   -5.4780    3.3660  -22.3810 C   0  0  0  0  0  0
   -5.6730    3.5890  -23.7230 C   0  0  0  0  0  0
   -4.2550    3.1270  -21.9790 C   0  0  0  0  0  0
   -3.2480    3.3360  -24.0860 C   0  0  0  0  0  0
   -3.1610    3.0520  -22.6670 C   0  0  0  0  0  0
   -4.5700    3.5870  -24.6740 C   0  0  0  0  0  0
   -3.6950    3.6890  -26.8250 C   0  0  0  0  0  0
    5.7410    2.9900  -21.0470 C   0  0  0  0  0  0
    5.7410    3.2060  -23.5950 C   0  0  0  0  0  0
   -4.7500    3.7490  -26.0180 C   0  0  0  0  0  0
    1.9520    3.6790  -23.8080 C   0  0  0  0  0  0
    1.0920    4.7620  -23.5240 C   0  0  0  0  0  0
    2.8240    5.9720  -22.7100 C   0  0  0  0  0  0
    3.3290    3.8880  -23.4120 C   0  0  0  0  0  0
    1.4670    2.5720  -24.5310 C   0  0  0  0  0  0
   -0.6800    3.3390  -24.5160 C   0  0  0  0  0  0
   -0.2130    4.5510  -23.8540 C   0  0  0  0  0  0
   -2.1110    3.3270  -24.9510 C   0  0  0  0  0  0
    3.9700    1.3950  -23.1580 C   0  0  0  0  0  0
    4.8460    1.0240  -21.9720 C   0  0  2  0  0  0
    6.4330    2.6110  -22.3740 C   0  0  2  0  0  0
    4.7420    1.9890  -20.7790 C   0  0  0  0  0  0
   -2.3600    3.5230  -26.3900 C   0  0  0  0  0  0
   -1.8430    2.6480  -22.0060 C   0  0  0  0  0  0
   -0.8350    2.3050  -21.4540 C   0  0  0  0  0  0
   -1.0950    5.5690  -23.5270 F   0  0  0  0  0  0
   -4.1160    2.8480  -20.5940 F   0  0  0  0  0  0
    1.5140    5.9140  -22.9330 N   0  0  0  0  0  0
    3.7520    5.0340  -22.9070 N   0  0  0  0  0  0
    0.1820    2.4660  -24.9110 N   0  0  0  0  0  0
    4.2770    2.8640  -23.5670 N   0  0  0  0  0  0
    6.2760    1.1330  -22.3730 N   0  0  1  0  0  0
   -3.7910    3.7420  -28.2220 O   0  0  0  0  0  0
   -6.3199    3.3911  -21.6986 H   0  0  0  0  0  0
   -6.6715    3.7737  -24.1023 H   0  0  0  0  0  0
    5.2563    3.9716  -21.1540 H   0  0  0  0  0  0
    6.4827    2.9930  -20.2347 H   0  0  0  0  0  0
    6.1953    2.7972  -24.5096 H   0  0  0  0  0  0
    5.8621    4.2993  -23.5879 H   0  0  0  0  0  0
   -5.7434    3.9248  -26.4147 H   0  0  0  0  0  0
    2.1382    1.7644  -24.7999 H   0  0  0  0  0  0
    2.9110    1.3082  -22.8733 H   0  0  0  0  0  0
    4.1929    0.7262  -24.0024 H   0  0  0  0  0  0
    4.6241   -0.0029  -21.6462 H   0  0  0  0  0  0
    7.4967    2.8905  -22.3538 H   0  0  0  0  0  0
    3.7477    2.4594  -20.7770 H   0  0  0  0  0  0
    5.0023    1.4542  -19.8537 H   0  0  0  0  0  0
   -1.5488    3.5411  -27.1088 H   0  0  0  0  0  0
    0.0522    2.0039  -20.9669 H   0  0  0  0  0  0
    6.8940    0.6272  -21.6459 H   0  0  0  0  0  0
   -2.9223    3.6836  -28.6020 H   0  0  0  0  0  0
    4.7190    7.1840  -21.6120 N   0  0  1  0  0  0
    4.5230   10.6770  -21.8110 N   0  0  0  0  0  0
    4.9110   11.5080  -22.8100 N   0  0  0  0  0  0
    5.2590    8.4270  -20.9540 C   0  0  0  0  0  0
    3.3280    7.3070  -22.1730 C   0  0  0  0  0  0
    5.3570    9.6090  -21.9020 C   0  0  0  0  0  0
    6.2340    9.7490  -22.9010 C   0  0  0  0  0  0
    5.9140   10.9850  -23.4660 C   0  0  0  0  0  0
    5.3587    6.9061  -22.4366 H   0  0  0  0  0  0
    3.7409   10.9410  -21.1949 H   0  0  0  0  0  0
    6.2520    8.2150  -20.5310 H   0  0  0  0  0  0
    4.6193    8.6959  -20.1005 H   0  0  0  0  0  0
    3.3240    8.0521  -22.9822 H   0  0  0  0  0  0
    2.6471    7.6659  -21.3871 H   0  0  0  0  0  0
    6.9662    8.9728  -23.0920 H   0  0  0  0  0  0
    6.3518   11.5188  -24.3017 H   0  0  0  0  0  0
  1  2  2  0  0  0
  1  3  1  0  0  0
  1 34  1  0  0  0
  2  6  1  0  0  0
  2 35  1  0  0  0
  3  5  2  0  0  0
  3 27  1  0  0  0
  4  5  1  0  0  0
  4  6  2  0  0  0
  4 18  1  0  0  0
  5 24  1  0  0  0
  6 10  1  0  0  0
  7 10  2  0  0  0
  7 23  1  0  0  0
  7 33  1  0  0  0
  8 21  1  0  0  0
  8 22  1  0  0  0
  8 36  1  0  0  0
  8 37  1  0  0  0
  9 21  1  0  0  0
  9 31  1  0  0  0
  9 38  1  0  0  0
  9 39  1  0  0  0
 10 40  1  0  0  0
 11 12  1  0  0  0
 11 14  2  0  0  0
 11 15  1  0  0  0
 12 17  1  0  0  0
 12 28  2  0  0  0
 13 28  1  0  0  0
 13 29  2  0  0  0
 13 56  1  0  0  0
 14 29  1  0  0  0
 14 31  1  0  0  0
 15 30  2  0  0  0
 15 41  1  0  0  0
 16 17  2  0  0  0
 16 18  1  0  0  0
 16 30  1  0  0  0
 17 26  1  0  0  0
 18 23  2  0  0  0
 19 20  1  0  0  0
 19 31  1  0  0  0
 19 42  1  0  0  0
 19 43  1  0  0  0
 20 22  1  0  0  0
 20 32  1  0  0  0
 20 44  1  0  0  0
 21 32  1  0  0  0
 21 45  1  0  0  0
 22 46  1  0  0  0
 22 47  1  0  0  0
 23 48  1  0  0  0
 24 25  3  0  0  0
 25 49  1  0  0  0
 32 50  1  0  0  0
 33 51  1  0  0  0
 52 55  1  0  0  0
 52 56  1  0  0  0
 52 60  1  0  0  0
 53 54  1  0  0  0
 53 57  1  0  0  0
 53 61  1  0  0  0
 54 59  2  0  0  0
 55 57  1  0  0  0
 55 62  1  0  0  0
 55 63  1  0  0  0
 56 64  1  0  0  0
 56 65  1  0  0  0
 57 58  2  0  0  0
 58 59  1  0  0  0
 58 66  1  0  0  0
 59 67  1  0  0  0
M  END
> <s_m_entry_id>
365

> <s_m_entry_name>
000000365.1

> <s_m_Source_Path>
/Users/zaksoul/Documents/2

> <s_m_Source_File>
000000365.mol2

> <i_m_Source_File_Index>
1

$$$$
No_0_389
                    3D
 Schrodinger Suite 2022-4.
 67 73  0  0  1  0            999 V2000
   -5.3080    3.5540  -21.8230 C   0  0  0  0  0  0
   -5.5520    3.7470  -23.1620 C   0  0  0  0  0  0
   -4.0700    3.3310  -21.4590 C   0  0  0  0  0  0
   -3.1400    3.5010  -23.6050 C   0  0  0  0  0  0
   -3.0010    3.2480  -22.1840 C   0  0  0  0  0  0
   -4.4830    3.7310  -24.1510 C   0  0  0  0  0  0
   -3.6850    3.7930  -26.3340 C   0  0  0  0  0  0
    5.9530    3.2750  -20.8780 C   0  0  0  0  0  0
    5.8620    3.4360  -23.4290 C   0  0  0  0  0  0
   -4.7110    3.8640  -25.4910 C   0  0  0  0  0  0
    2.0650    3.8820  -23.5180 C   0  0  0  0  0  0
    1.2080    4.9650  -23.2270 C   0  0  0  0  0  0
    2.9590    6.2030  -22.5000 C   0  0  0  0  0  0
    3.4530    4.1080  -23.1750 C   0  0  0  0  0  0
    1.5620    2.7560  -24.2000 C   0  0  0  0  0  0
   -0.5880    3.5110  -24.1250 C   0  0  0  0  0  0
   -0.1070    4.7400  -23.5060 C   0  0  0  0  0  0
   -2.0330    3.4810  -24.5090 C   0  0  0  0  0  0
    4.1200    1.6250  -22.8920 C   0  0  0  0  0  0
    5.0400    1.2840  -21.7290 C   0  0  2  0  0  0
    6.6010    2.8720  -22.2210 C   0  0  2  0  0  0
    4.9710    2.2740  -20.5550 C   0  0  0  0  0  0
   -2.3340    3.6440  -25.9420 C   0  0  0  0  0  0
   -1.6580    2.8660  -21.5620 C   0  0  0  0  0  0
   -0.6290    2.5420  -21.0380 C   0  0  0  0  0  0
   -0.9840    5.7580  -23.1700 F   0  0  0  0  0  0
   -3.8810    3.0820  -20.0750 F   0  0  0  0  0  0
    1.6430    6.1320  -22.6760 N   0  0  0  0  0  0
    3.8850    5.2670  -22.7100 N   0  0  0  0  0  0
    0.2650    2.6340  -24.5320 N   0  0  0  0  0  0
    4.4020    3.0860  -23.3420 N   0  0  0  0  0  0
    6.4540    1.3930  -22.1830 N   0  0  1  0  0  0
   -3.8300    3.8150  -27.7260 O   0  0  0  0  0  0
   -6.1259    3.5891  -21.1125 H   0  0  0  0  0  0
   -6.5646    3.9176  -23.5092 H   0  0  0  0  0  0
    5.4575    4.2508  -20.9890 H   0  0  0  0  0  0
    6.7230    3.3002  -20.0929 H   0  0  0  0  0  0
    6.2872    3.0108  -24.3501 H   0  0  0  0  0  0
    5.9760    4.5299  -23.4492 H   0  0  0  0  0  0
   -5.7192    4.0247  -25.8555 H   0  0  0  0  0  0
    2.2293    1.9472  -24.4750 H   0  0  0  0  0  0
    3.0725    1.5372  -22.5680 H   0  0  0  0  0  0
    4.3178    0.9387  -23.7286 H   0  0  0  0  0  0
    4.8362    0.2630  -21.3739 H   0  0  0  0  0  0
    7.6628    3.1586  -22.2432 H   0  0  0  0  0  0
    3.9737    2.7373  -20.5267 H   0  0  0  0  0  0
    5.2665    1.7606  -19.6281 H   0  0  0  0  0  0
   -1.5492    3.6520  -26.6897 H   0  0  0  0  0  0
    0.2773    2.2562  -20.5774 H   0  0  0  0  0  0
    7.1001    0.9063  -21.4674 H   0  0  0  0  0  0
   -2.9751    3.7537  -28.1357 H   0  0  0  0  0  0
    4.6930    7.9870  -22.7760 N   0  0  1  0  0  0
    3.8970   11.0380  -21.2480 N   0  0  0  0  0  0
    3.1390   12.0650  -21.7100 N   0  0  0  0  0  0
    5.3400    9.2570  -22.2860 C   0  0  0  0  0  0
    3.4720    7.5530  -22.0100 C   0  0  0  0  0  0
    4.4210   10.4620  -22.3600 C   0  0  0  0  0  0
    4.0250   11.0860  -23.4750 C   0  0  0  0  0  0
    3.1980   12.1130  -23.0160 C   0  0  0  0  0  0
    4.3810    8.1150  -23.8020 H   0  0  0  0  0  0
    3.9600   10.8610  -20.2353 H   0  0  0  0  0  0
    6.2491    9.4540  -22.8731 H   0  0  0  0  0  0
    5.6770    9.1180  -21.2481 H   0  0  0  0  0  0
    2.6804    8.3085  -22.1221 H   0  0  0  0  0  0
    3.7170    7.4840  -20.9399 H   0  0  0  0  0  0
    4.3681   10.7369  -24.4422 H   0  0  0  0  0  0
    2.6480   12.8760  -23.5550 H   0  0  0  0  0  0
  1  2  2  0  0  0
  1  3  1  0  0  0
  1 34  1  0  0  0
  2  6  1  0  0  0
  2 35  1  0  0  0
  3  5  2  0  0  0
  3 27  1  0  0  0
  4  5  1  0  0  0
  4  6  2  0  0  0
  4 18  1  0  0  0
  5 24  1  0  0  0
  6 10  1  0  0  0
  7 10  2  0  0  0
  7 23  1  0  0  0
  7 33  1  0  0  0
  8 21  1  0  0  0
  8 22  1  0  0  0
  8 36  1  0  0  0
  8 37  1  0  0  0
  9 21  1  0  0  0
  9 31  1  0  0  0
  9 38  1  0  0  0
  9 39  1  0  0  0
 10 40  1  0  0  0
 11 12  1  0  0  0
 11 14  2  0  0  0
 11 15  1  0  0  0
 12 17  1  0  0  0
 12 28  2  0  0  0
 13 28  1  0  0  0
 13 29  2  0  0  0
 13 56  1  0  0  0
 14 29  1  0  0  0
 14 31  1  0  0  0
 15 30  2  0  0  0
 15 41  1  0  0  0
 16 17  2  0  0  0
 16 18  1  0  0  0
 16 30  1  0  0  0
 17 26  1  0  0  0
 18 23  2  0  0  0
 19 20  1  0  0  0
 19 31  1  0  0  0
 19 42  1  0  0  0
 19 43  1  0  0  0
 20 22  1  0  0  0
 20 32  1  0  0  0
 20 44  1  0  0  0
 21 32  1  0  0  0
 21 45  1  0  0  0
 22 46  1  0  0  0
 22 47  1  0  0  0
 23 48  1  0  0  0
 24 25  3  0  0  0
 25 49  1  0  0  0
 32 50  1  0  0  0
 33 51  1  0  0  0
 52 55  1  0  0  0
 52 56  1  0  0  0
 52 60  1  0  0  0
 53 54  1  0  0  0
 53 57  1  0  0  0
 53 61  1  0  0  0
 54 59  2  0  0  0
 55 57  1  0  0  0
 55 62  1  0  0  0
 55 63  1  0  0  0
 56 64  1  0  0  0
 56 65  1  0  0  0
 57 58  2  0  0  0
 58 59  1  0  0  0
 58 66  1  0  0  0
 59 67  1  0  0  0
M  END
> <s_m_entry_id>
366

> <s_m_entry_name>
000000366.1

> <s_m_Source_Path>
/Users/zaksoul/Documents/2

> <s_m_Source_File>
000000366.mol2

> <i_m_Source_File_Index>
1

$$$$
No_0_390
                    3D
 Schrodinger Suite 2022-4.
 69 75  0  0  1  0            999 V2000
   -5.0380    3.2200  -22.0640 C   0  0  0  0  0  0
   -5.3150    3.3940  -23.3990 C   0  0  0  0  0  0
   -3.7940    2.9920  -21.7280 C   0  0  0  0  0  0
   -2.9160    3.1170  -23.8990 C   0  0  0  0  0  0
   -2.7440    2.8860  -22.4780 C   0  0  0  0  0  0
   -4.2710    3.3520  -24.4150 C   0  0  0  0  0  0
   -3.5280    3.3700  -26.6170 C   0  0  0  0  0  0
    6.2400    2.8480  -21.3990 C   0  0  0  0  0  0
    6.0860    2.9690  -23.9490 C   0  0  0  0  0  0
   -4.5320    3.4640  -25.7500 C   0  0  0  0  0  0
    2.2920    3.4490  -23.9500 C   0  0  0  0  0  0
    1.4530    4.5450  -23.6540 C   0  0  0  0  0  0
    3.2330    5.7780  -22.9930 C   0  0  0  0  0  0
    3.6900    3.6670  -23.6450 C   0  0  0  0  0  0
    1.7620    2.3180  -24.5990 C   0  0  0  0  0  0
   -0.3790    3.0940  -24.4840 C   0  0  0  0  0  0
    0.1290    4.3280  -23.8970 C   0  0  0  0  0  0
   -1.8340    3.0720  -24.8300 C   0  0  0  0  0  0
    4.3410    1.1830  -23.3380 C   0  0  0  0  0  0
    5.2870    0.8520  -22.1940 C   0  0  2  0  0  0
    6.8500    2.4170  -22.7500 C   0  0  2  0  0  0
    5.2580    1.8620  -21.0340 C   0  0  0  0  0  0
   -2.1690    3.2150  -26.2570 C   0  0  0  0  0  0
   -1.3890    2.5010  -21.8830 C   0  0  0  0  0  0
   -0.3500    2.1760  -21.3800 C   0  0  0  0  0  0
   -0.7290    5.3610  -23.5550 F   0  0  0  0  0  0
   -3.5720    2.7630  -20.3450 F   0  0  0  0  0  0
    1.9120    5.7170  -23.1340 N   0  0  0  0  0  0
    4.1450    4.8300  -23.2110 N   0  0  0  0  0  0
    0.4560    2.2030  -24.8970 N   0  0  0  0  0  0
    4.6260    2.6340  -23.8200 N   0  0  0  0  0  0
    6.6900    0.9410  -22.6840 N   0  0  1  0  0  0
   -3.7080    3.3710  -28.0060 O   0  0  0  0  0  0
   -5.8369    3.2742  -21.3333 H   0  0  0  0  0  0
   -6.3344    3.5688  -23.7234 H   0  0  0  0  0  0
    5.7515    3.8270  -21.5130 H   0  0  0  0  0  0
    7.0300    2.8783  -20.6342 H   0  0  0  0  0  0
    6.4829    2.5236  -24.8732 H   0  0  0  0  0  0
    6.2092    4.0613  -23.9904 H   0  0  0  0  0  0
   -5.5472    3.6287  -26.0924 H   0  0  0  0  0  0
    2.4140    1.4985  -24.8789 H   0  0  0  0  0  0
    3.3015    1.1103  -22.9858 H   0  0  0  0  0  0
    4.5115    0.4819  -24.1683 H   0  0  0  0  0  0
    5.0830   -0.1608  -21.8163 H   0  0  0  0  0  0
    7.9136    2.6925  -22.8045 H   0  0  0  0  0  0
    4.2661    2.3353  -20.9886 H   0  0  0  0  0  0
    5.5718    1.3605  -20.1066 H   0  0  0  0  0  0
   -1.4035    3.2030  -27.0245 H   0  0  0  0  0  0
    0.5651    1.8890  -20.9380 H   0  0  0  0  0  0
    7.3498    0.4598  -21.9772 H   0  0  0  0  0  0
   -2.8642    3.2947  -28.4358 H   0  0  0  0  0  0
    3.7660    7.2290  -21.0350 N   0  0  1  0  0  0
    8.1970    9.8220  -20.8280 N   0  0  0  0  0  0
    4.0750    8.5860  -20.4570 C   0  0  0  0  0  0
    3.7710    7.1300  -22.5380 C   0  0  0  0  0  0
    5.5310    9.0060  -20.5970 C   0  0  0  0  0  0
    6.5420    8.2840  -20.0180 C   0  0  0  0  0  0
    5.8650   10.1380  -21.2930 C   0  0  0  0  0  0
    7.1830   10.5110  -21.3870 C   0  0  0  0  0  0
    7.8410    8.7130  -20.1520 C   0  0  0  0  0  0
    4.4969    6.5141  -20.6870 H   0  0  0  0  0  0
    3.7920    8.6030  -19.3942 H   0  0  0  0  0  0
    3.4307    9.3404  -20.9322 H   0  0  0  0  0  0
    4.7980    7.2600  -22.9100 H   0  0  0  0  0  0
    3.1483    7.9327  -22.9598 H   0  0  0  0  0  0
    6.3150    7.3829  -19.4599 H   0  0  0  0  0  0
    5.0909   10.7321  -21.7651 H   0  0  0  0  0  0
    7.3870   11.4159  -21.9479 H   0  0  0  0  0  0
    8.5989    8.1021  -19.6751 H   0  0  0  0  0  0
  1  2  2  0  0  0
  1  3  1  0  0  0
  1 34  1  0  0  0
  2  6  1  0  0  0
  2 35  1  0  0  0
  3  5  2  0  0  0
  3 27  1  0  0  0
  4  5  1  0  0  0
  4  6  2  0  0  0
  4 18  1  0  0  0
  5 24  1  0  0  0
  6 10  1  0  0  0
  7 10  2  0  0  0
  7 23  1  0  0  0
  7 33  1  0  0  0
  8 21  1  0  0  0
  8 22  1  0  0  0
  8 36  1  0  0  0
  8 37  1  0  0  0
  9 21  1  0  0  0
  9 31  1  0  0  0
  9 38  1  0  0  0
  9 39  1  0  0  0
 10 40  1  0  0  0
 11 12  1  0  0  0
 11 14  2  0  0  0
 11 15  1  0  0  0
 12 17  1  0  0  0
 12 28  2  0  0  0
 13 28  1  0  0  0
 13 29  2  0  0  0
 13 55  1  0  0  0
 14 29  1  0  0  0
 14 31  1  0  0  0
 15 30  2  0  0  0
 15 41  1  0  0  0
 16 17  2  0  0  0
 16 18  1  0  0  0
 16 30  1  0  0  0
 17 26  1  0  0  0
 18 23  2  0  0  0
 19 20  1  0  0  0
 19 31  1  0  0  0
 19 42  1  0  0  0
 19 43  1  0  0  0
 20 22  1  0  0  0
 20 32  1  0  0  0
 20 44  1  0  0  0
 21 32  1  0  0  0
 21 45  1  0  0  0
 22 46  1  0  0  0
 22 47  1  0  0  0
 23 48  1  0  0  0
 24 25  3  0  0  0
 25 49  1  0  0  0
 32 50  1  0  0  0
 33 51  1  0  0  0
 52 54  1  0  0  0
 52 55  1  0  0  0
 52 61  1  0  0  0
 53 59  2  0  0  0
 53 60  1  0  0  0
 54 56  1  0  0  0
 54 62  1  0  0  0
 54 63  1  0  0  0
 55 64  1  0  0  0
 55 65  1  0  0  0
 56 57  1  0  0  0
 56 58  2  0  0  0
 57 60  2  0  0  0
 57 66  1  0  0  0
 58 59  1  0  0  0
 58 67  1  0  0  0
 59 68  1  0  0  0
 60 69  1  0  0  0
M  END
> <s_m_entry_id>
367

> <s_m_entry_name>
000000367.1

> <s_m_Source_Path>
/Users/zaksoul/Documents/2

> <s_m_Source_File>
000000367.mol2

> <i_m_Source_File_Index>
1

$$$$
No_0_391
                    3D
 Schrodinger Suite 2022-4.
 69 75  0  0  1  0            999 V2000
   -5.4650    3.3650  -22.2530 C   0  0  0  0  0  0
   -5.6980    3.5530  -23.5950 C   0  0  0  0  0  0
   -4.2330    3.1270  -21.8800 C   0  0  0  0  0  0
   -3.2860    3.2690  -24.0210 C   0  0  0  0  0  0
   -3.1600    3.0240  -22.5970 C   0  0  0  0  0  0
   -4.6230    3.5160  -24.5770 C   0  0  0  0  0  0
   -3.8100    3.5520  -26.7540 C   0  0  0  0  0  0
    5.7840    2.9310  -21.2320 C   0  0  0  0  0  0
    5.7120    3.0770  -23.7840 C   0  0  0  0  0  0
   -4.8400    3.6430  -25.9180 C   0  0  0  0  0  0
    1.9220    3.5760  -23.9020 C   0  0  0  0  0  0
    1.0790    4.6740  -23.6230 C   0  0  0  0  0  0
    2.8430    5.8910  -22.8930 C   0  0  0  0  0  0
    3.3110    3.7840  -23.5510 C   0  0  0  0  0  0
    1.4080    2.4540  -24.5790 C   0  0  0  0  0  0
   -0.7320    3.2390  -24.5240 C   0  0  0  0  0  0
   -0.2370    4.4650  -23.9090 C   0  0  0  0  0  0
   -2.1750    3.2280  -24.9170 C   0  0  0  0  0  0
    3.9410    1.2940  -23.2470 C   0  0  0  0  0  0
    4.8480    0.9480  -22.0770 C   0  0  2  0  0  0
    6.4350    2.5100  -22.5680 C   0  0  2  0  0  0
    4.7860    1.9460  -20.9090 C   0  0  0  0  0  0
   -2.4640    3.3860  -26.3530 C   0  0  0  0  0  0
   -1.8270    2.6260  -21.9630 C   0  0  0  0  0  0
   -0.8060    2.2910  -21.4310 C   0  0  0  0  0  0
   -1.1010    5.4990  -23.5850 F   0  0  0  0  0  0
   -4.0570    2.8840  -20.4930 F   0  0  0  0  0  0
    1.5270    5.8370  -23.0760 N   0  0  0  0  0  0
    3.7570    4.9400  -23.0910 N   0  0  0  0  0  0
    0.1120    2.3480  -24.9190 N   0  0  0  0  0  0
    4.2470    2.7490  -23.7050 N   0  0  0  0  0  0
    6.2660    1.0340  -22.5220 N   0  0  1  0  0  0
   -3.9460    3.5670  -28.1480 O   0  0  0  0  0  0
   -6.2871    3.4162  -21.5483 H   0  0  0  0  0  0
   -6.7060    3.7357  -23.9494 H   0  0  0  0  0  0
    5.3036    3.9131  -21.3531 H   0  0  0  0  0  0
    6.5500    2.9502  -20.4428 H   0  0  0  0  0  0
    6.1365    2.6394  -24.6996 H   0  0  0  0  0  0
    5.8412    4.1690  -23.8113 H   0  0  0  0  0  0
   -5.8430    3.8155  -26.2911 H   0  0  0  0  0  0
    2.0652    1.6343  -24.8459 H   0  0  0  0  0  0
    2.8900    1.2233  -22.9300 H   0  0  0  0  0  0
    4.1337    0.5999  -24.0783 H   0  0  0  0  0  0
    4.6271   -0.0677  -21.7169 H   0  0  0  0  0  0
    7.5011    2.7806  -22.5862 H   0  0  0  0  0  0
    3.7957    2.4245  -20.8908 H   0  0  0  0  0  0
    5.0687    1.4342  -19.9772 H   0  0  0  0  0  0
   -1.6738    3.3780  -27.0950 H   0  0  0  0  0  0
    0.0927    1.9951  -20.9621 H   0  0  0  0  0  0
    6.9010    0.5433  -21.7993 H   0  0  0  0  0  0
   -3.0890    3.4908  -28.5508 H   0  0  0  0  0  0
    3.6650    7.1930  -20.9300 N   0  0  1  0  0  0
    7.8680   10.1250  -21.3080 N   0  0  0  0  0  0
    3.9950    8.5120  -20.2800 C   0  0  0  0  0  0
    3.3730    7.2360  -22.4070 C   0  0  0  0  0  0
    5.3620    9.0660  -20.6540 C   0  0  0  0  0  0
    6.5140    8.3830  -20.3630 C   0  0  0  0  0  0
    5.4740   10.2820  -21.2750 C   0  0  0  0  0  0
    6.7190   10.7740  -21.5820 C   0  0  0  0  0  0
    7.7280    8.9310  -20.7000 C   0  0  0  0  0  0
    4.4961    6.5139  -20.8100 H   0  0  0  0  0  0
    3.9310    8.4060  -19.1870 H   0  0  0  0  0  0
    3.2199    9.2490  -20.5370 H   0  0  0  0  0  0
    4.2927    7.4869  -22.9558 H   0  0  0  0  0  0
    2.6269    8.0181  -22.6110 H   0  0  0  0  0  0
    6.4630    7.4179  -19.8720 H   0  0  0  0  0  0
    4.5841   10.8500  -21.5210 H   0  0  0  0  0  0
    6.7470   11.7410  -22.0710 H   0  0  0  0  0  0
    8.6051    8.3460  -20.4480 H   0  0  0  0  0  0
  1  2  2  0  0  0
  1  3  1  0  0  0
  1 34  1  0  0  0
  2  6  1  0  0  0
  2 35  1  0  0  0
  3  5  2  0  0  0
  3 27  1  0  0  0
  4  5  1  0  0  0
  4  6  2  0  0  0
  4 18  1  0  0  0
  5 24  1  0  0  0
  6 10  1  0  0  0
  7 10  2  0  0  0
  7 23  1  0  0  0
  7 33  1  0  0  0
  8 21  1  0  0  0
  8 22  1  0  0  0
  8 36  1  0  0  0
  8 37  1  0  0  0
  9 21  1  0  0  0
  9 31  1  0  0  0
  9 38  1  0  0  0
  9 39  1  0  0  0
 10 40  1  0  0  0
 11 12  1  0  0  0
 11 14  2  0  0  0
 11 15  1  0  0  0
 12 17  1  0  0  0
 12 28  2  0  0  0
 13 28  1  0  0  0
 13 29  2  0  0  0
 13 55  1  0  0  0
 14 29  1  0  0  0
 14 31  1  0  0  0
 15 30  2  0  0  0
 15 41  1  0  0  0
 16 17  2  0  0  0
 16 18  1  0  0  0
 16 30  1  0  0  0
 17 26  1  0  0  0
 18 23  2  0  0  0
 19 20  1  0  0  0
 19 31  1  0  0  0
 19 42  1  0  0  0
 19 43  1  0  0  0
 20 22  1  0  0  0
 20 32  1  0  0  0
 20 44  1  0  0  0
 21 32  1  0  0  0
 21 45  1  0  0  0
 22 46  1  0  0  0
 22 47  1  0  0  0
 23 48  1  0  0  0
 24 25  3  0  0  0
 25 49  1  0  0  0
 32 50  1  0  0  0
 33 51  1  0  0  0
 52 54  1  0  0  0
 52 55  1  0  0  0
 52 61  1  0  0  0
 53 59  2  0  0  0
 53 60  1  0  0  0
 54 56  1  0  0  0
 54 62  1  0  0  0
 54 63  1  0  0  0
 55 64  1  0  0  0
 55 65  1  0  0  0
 56 57  1  0  0  0
 56 58  2  0  0  0
 57 60  2  0  0  0
 57 66  1  0  0  0
 58 59  1  0  0  0
 58 67  1  0  0  0
 59 68  1  0  0  0
 60 69  1  0  0  0
M  END
> <s_m_entry_id>
368

> <s_m_entry_name>
000000368.1

> <s_m_Source_Path>
/Users/zaksoul/Documents/2

> <s_m_Source_File>
000000368.mol2

> <i_m_Source_File_Index>
1

$$$$
No_0_392
                    3D
 Schrodinger Suite 2022-4.
 69 75  0  0  1  0            999 V2000
   -5.3210    3.3870  -22.0350 C   0  0  0  0  0  0
   -5.5790    3.5490  -23.3760 C   0  0  0  0  0  0
   -4.0810    3.1640  -21.6800 C   0  0  0  0  0  0
   -3.1730    3.2740  -23.8400 C   0  0  0  0  0  0
   -3.0200    3.0550  -22.4140 C   0  0  0  0  0  0
   -4.5210    3.5010  -24.3760 C   0  0  0  0  0  0
   -3.7470    3.5030  -26.5680 C   0  0  0  0  0  0
    5.9480    3.0480  -21.2090 C   0  0  0  0  0  0
    5.8290    3.1470  -23.7620 C   0  0  0  0  0  0
   -4.7630    3.6020  -25.7160 C   0  0  0  0  0  0
    2.0350    3.6180  -23.8200 C   0  0  0  0  0  0
    1.1890    4.7150  -23.5450 C   0  0  0  0  0  0
    2.9570    5.9570  -22.8700 C   0  0  0  0  0  0
    3.4280    3.8420  -23.4980 C   0  0  0  0  0  0
    1.5160    2.4800  -24.4680 C   0  0  0  0  0  0
   -0.6280    3.2520  -24.3880 C   0  0  0  0  0  0
   -0.1310    4.4920  -23.8040 C   0  0  0  0  0  0
   -2.0770    3.2240  -24.7550 C   0  0  0  0  0  0
    4.0810    1.3620  -23.1610 C   0  0  0  0  0  0
    5.0110    1.0430  -22.0010 C   0  0  2  0  0  0
    6.5780    2.6070  -22.5480 C   0  0  2  0  0  0
    4.9630    2.0620  -20.8500 C   0  0  0  0  0  0
   -2.3930    3.3540  -26.1880 C   0  0  0  0  0  0
   -1.6730    2.6780  -21.7980 C   0  0  0  0  0  0
   -0.6400    2.3600  -21.2780 C   0  0  0  0  0  0
   -0.9960    5.5260  -23.4840 F   0  0  0  0  0  0
   -3.8780    2.9480  -20.2920 F   0  0  0  0  0  0
    1.6380    5.8910  -23.0280 N   0  0  0  0  0  0
    3.8740    5.0090  -23.0670 N   0  0  0  0  0  0
    0.2150    2.3600  -24.7830 N   0  0  0  0  0  0
    4.3680    2.8100  -23.6500 N   0  0  0  0  0  0
    6.4200    1.1310  -22.4720 N   0  0  1  0  0  0
   -3.9080    3.4920  -27.9590 O   0  0  0  0  0  0
   -6.1302    3.4452  -21.3161 H   0  0  0  0  0  0
   -6.5942    3.7177  -23.7164 H   0  0  0  0  0  0
    5.4587    4.0247  -21.3381 H   0  0  0  0  0  0
    6.7274    3.0864  -20.4337 H   0  0  0  0  0  0
    6.2409    2.6957  -24.6767 H   0  0  0  0  0  0
    5.9501    4.2392  -23.8105 H   0  0  0  0  0  0
   -5.7739    3.7616  -26.0734 H   0  0  0  0  0  0
    2.1744    1.6600  -24.7310 H   0  0  0  0  0  0
    3.0367    1.2904  -22.8230 H   0  0  0  0  0  0
    4.2638    0.6542  -23.9829 H   0  0  0  0  0  0
    4.8041    0.0326  -21.6185 H   0  0  0  0  0  0
    7.6416    2.8845  -22.5904 H   0  0  0  0  0  0
    3.9699    2.5343  -20.8228 H   0  0  0  0  0  0
    5.2658    1.5694  -19.9142 H   0  0  0  0  0  0
   -1.6161    3.3379  -26.9438 H   0  0  0  0  0  0
    0.2691    2.0790  -20.8200 H   0  0  0  0  0  0
    7.0712    0.6573  -21.7523 H   0  0  0  0  0  0
   -3.0582    3.4148  -28.3765 H   0  0  0  0  0  0
    4.0750    7.2250  -21.0340 N   0  0  1  0  0  0
    7.9120   10.4830  -22.0640 N   0  0  0  0  0  0
    4.4430    8.5330  -20.3840 C   0  0  0  0  0  0
    3.4850    7.3150  -22.4180 C   0  0  0  0  0  0
    5.6660    9.2070  -20.9880 C   0  0  0  0  0  0
    6.8960    8.6000  -20.9770 C   0  0  0  0  0  0
    5.5700   10.4560  -21.5430 C   0  0  0  0  0  0
    6.6920   11.0550  -22.0620 C   0  0  0  0  0  0
    7.9780    9.2550  -21.5140 C   0  0  0  0  0  0
    4.9553    6.6058  -21.1240 H   0  0  0  0  0  0
    4.6100    8.3710  -19.3089 H   0  0  0  0  0  0
    3.5857    9.2203  -20.4350 H   0  0  0  0  0  0
    4.2558    7.6599  -23.1229 H   0  0  0  0  0  0
    2.6635    8.0465  -22.4200 H   0  0  0  0  0  0
    7.0090    7.6122  -20.5451 H   0  0  0  0  0  0
    4.6135   10.9653  -21.5710 H   0  0  0  0  0  0
    6.5560   12.0429  -22.4870 H   0  0  0  0  0  0
    8.9238    8.7265  -21.4790 H   0  0  0  0  0  0
  1  2  2  0  0  0
  1  3  1  0  0  0
  1 34  1  0  0  0
  2  6  1  0  0  0
  2 35  1  0  0  0
  3  5  2  0  0  0
  3 27  1  0  0  0
  4  5  1  0  0  0
  4  6  2  0  0  0
  4 18  1  0  0  0
  5 24  1  0  0  0
  6 10  1  0  0  0
  7 10  2  0  0  0
  7 23  1  0  0  0
  7 33  1  0  0  0
  8 21  1  0  0  0
  8 22  1  0  0  0
  8 36  1  0  0  0
  8 37  1  0  0  0
  9 21  1  0  0  0
  9 31  1  0  0  0
  9 38  1  0  0  0
  9 39  1  0  0  0
 10 40  1  0  0  0
 11 12  1  0  0  0
 11 14  2  0  0  0
 11 15  1  0  0  0
 12 17  1  0  0  0
 12 28  2  0  0  0
 13 28  1  0  0  0
 13 29  2  0  0  0
 13 55  1  0  0  0
 14 29  1  0  0  0
 14 31  1  0  0  0
 15 30  2  0  0  0
 15 41  1  0  0  0
 16 17  2  0  0  0
 16 18  1  0  0  0
 16 30  1  0  0  0
 17 26  1  0  0  0
 18 23  2  0  0  0
 19 20  1  0  0  0
 19 31  1  0  0  0
 19 42  1  0  0  0
 19 43  1  0  0  0
 20 22  1  0  0  0
 20 32  1  0  0  0
 20 44  1  0  0  0
 21 32  1  0  0  0
 21 45  1  0  0  0
 22 46  1  0  0  0
 22 47  1  0  0  0
 23 48  1  0  0  0
 24 25  3  0  0  0
 25 49  1  0  0  0
 32 50  1  0  0  0
 33 51  1  0  0  0
 52 54  1  0  0  0
 52 55  1  0  0  0
 52 61  1  0  0  0
 53 59  2  0  0  0
 53 60  1  0  0  0
 54 56  1  0  0  0
 54 62  1  0  0  0
 54 63  1  0  0  0
 55 64  1  0  0  0
 55 65  1  0  0  0
 56 57  1  0  0  0
 56 58  2  0  0  0
 57 60  2  0  0  0
 57 66  1  0  0  0
 58 59  1  0  0  0
 58 67  1  0  0  0
 59 68  1  0  0  0
 60 69  1  0  0  0
M  END
> <s_m_entry_id>
369

> <s_m_entry_name>
000000369.1

> <s_m_Source_Path>
/Users/zaksoul/Documents/2

> <s_m_Source_File>
000000369.mol2

> <i_m_Source_File_Index>
1

$$$$
No_0_393
                    3D
 Schrodinger Suite 2022-4.
 69 75  0  0  1  0            999 V2000
   -5.3980    3.5800  -21.8960 C   0  0  0  0  0  0
   -5.6630    3.7720  -23.2320 C   0  0  0  0  0  0
   -4.1630    3.3100  -21.5570 C   0  0  0  0  0  0
   -3.2720    3.4250  -23.7230 C   0  0  0  0  0  0
   -3.1130    3.1780  -22.3030 C   0  0  0  0  0  0
   -4.6160    3.7060  -24.2430 C   0  0  0  0  0  0
   -3.8630    3.7170  -26.4420 C   0  0  0  0  0  0
    5.8600    2.8540  -21.1840 C   0  0  0  0  0  0
    5.7220    2.9980  -23.7340 C   0  0  0  0  0  0
   -4.8670    3.8360  -25.5780 C   0  0  0  0  0  0
    1.9440    3.5960  -23.7480 C   0  0  0  0  0  0
    1.1390    4.7150  -23.4480 C   0  0  0  0  0  0
    2.9530    5.8870  -22.7690 C   0  0  0  0  0  0
    3.3470    3.7680  -23.4360 C   0  0  0  0  0  0
    1.3830    2.4860  -24.4090 C   0  0  0  0  0  0
   -0.7330    3.3280  -24.2960 C   0  0  0  0  0  0
   -0.1900    4.5410  -23.6980 C   0  0  0  0  0  0
   -2.1870    3.3530  -24.6490 C   0  0  0  0  0  0
    3.9200    1.2630  -23.1440 C   0  0  0  0  0  0
    4.8500    0.8940  -21.9990 C   0  0  2  0  0  0
    6.4630    2.4140  -22.5360 C   0  0  2  0  0  0
    4.8460    1.8960  -20.8310 C   0  0  0  0  0  0
   -2.5110    3.5170  -26.0770 C   0  0  0  0  0  0
   -1.7740    2.7470  -21.7050 C   0  0  0  0  0  0
   -0.7470    2.3860  -21.2000 C   0  0  0  0  0  0
   -1.0180    5.5970  -23.3520 F   0  0  0  0  0  0
   -3.9540    3.0650  -20.1750 F   0  0  0  0  0  0
    1.6310    5.8680  -22.9170 N   0  0  0  0  0  0
    3.8360    4.9130  -22.9900 N   0  0  0  0  0  0
    0.0750    2.4140  -24.7130 N   0  0  0  0  0  0
    4.2510    2.7080  -23.6140 N   0  0  0  0  0  0
    6.2570    0.9430  -22.4820 N   0  0  1  0  0  0
   -4.0360    3.7350  -27.8310 O   0  0  0  0  0  0
   -6.1985    3.6543  -21.1688 H   0  0  0  0  0  0
   -6.6751    3.9808  -23.5593 H   0  0  0  0  0  0
    5.4027    3.8485  -21.2930 H   0  0  0  0  0  0
    6.6473    2.8530  -20.4158 H   0  0  0  0  0  0
    6.1097    2.5477  -24.6597 H   0  0  0  0  0  0
    5.8795    4.0862  -23.7663 H   0  0  0  0  0  0
   -5.8751    4.0348  -25.9234 H   0  0  0  0  0  0
    2.0107    1.6485  -24.6912 H   0  0  0  0  0  0
    2.8768    1.2196  -22.7979 H   0  0  0  0  0  0
    4.0723    0.5632  -23.9789 H   0  0  0  0  0  0
    4.6127   -0.1149  -21.6304 H   0  0  0  0  0  0
    7.5347    2.6572  -22.5844 H   0  0  0  0  0  0
    3.8691    2.3996  -20.7866 H   0  0  0  0  0  0
    5.1408    1.3782  -19.9064 H   0  0  0  0  0  0
   -1.7423    3.4879  -26.8407 H   0  0  0  0  0  0
    0.1566    2.0678  -20.7557 H   0  0  0  0  0  0
    6.8985    0.4362  -21.7763 H   0  0  0  0  0  0
   -3.1930    3.6351  -28.2574 H   0  0  0  0  0  0
    4.9010    9.9970  -22.6460 F   0  0  0  0  0  0
    3.8700    7.1940  -20.8350 N   0  0  1  0  0  0
    8.3530    9.4970  -21.7310 N   0  0  0  0  0  0
    3.5310    7.2190  -22.3010 C   0  0  0  0  0  0
    5.7930    8.8420  -20.7940 C   0  0  0  0  0  0
    4.4070    8.4850  -20.2700 C   0  0  0  0  0  0
    6.9180    8.4380  -20.1240 C   0  0  0  0  0  0
    5.9620    9.5780  -21.9420 C   0  0  0  0  0  0
    7.2330    9.8810  -22.3730 C   0  0  0  0  0  0
    8.1590    8.7750  -20.6100 C   0  0  0  0  0  0
    2.9841    6.9580  -20.2641 H   0  0  0  0  0  0
    4.4356    7.4499  -22.8827 H   0  0  0  0  0  0
    2.8039    8.0211  -22.4960 H   0  0  0  0  0  0
    4.4380    8.4190  -19.1724 H   0  0  0  0  0  0
    3.7082    9.3028  -20.4999 H   0  0  0  0  0  0
    6.8270    7.8541  -19.2152 H   0  0  0  0  0  0
    7.3040   10.4648  -23.2836 H   0  0  0  0  0  0
    9.0095    8.4258  -20.0357 H   0  0  0  0  0  0
  1  2  2  0  0  0
  1  3  1  0  0  0
  1 34  1  0  0  0
  2  6  1  0  0  0
  2 35  1  0  0  0
  3  5  2  0  0  0
  3 27  1  0  0  0
  4  5  1  0  0  0
  4  6  2  0  0  0
  4 18  1  0  0  0
  5 24  1  0  0  0
  6 10  1  0  0  0
  7 10  2  0  0  0
  7 23  1  0  0  0
  7 33  1  0  0  0
  8 21  1  0  0  0
  8 22  1  0  0  0
  8 36  1  0  0  0
  8 37  1  0  0  0
  9 21  1  0  0  0
  9 31  1  0  0  0
  9 38  1  0  0  0
  9 39  1  0  0  0
 10 40  1  0  0  0
 11 12  1  0  0  0
 11 14  2  0  0  0
 11 15  1  0  0  0
 12 17  1  0  0  0
 12 28  2  0  0  0
 13 28  1  0  0  0
 13 29  2  0  0  0
 13 55  1  0  0  0
 14 29  1  0  0  0
 14 31  1  0  0  0
 15 30  2  0  0  0
 15 41  1  0  0  0
 16 17  2  0  0  0
 16 18  1  0  0  0
 16 30  1  0  0  0
 17 26  1  0  0  0
 18 23  2  0  0  0
 19 20  1  0  0  0
 19 31  1  0  0  0
 19 42  1  0  0  0
 19 43  1  0  0  0
 20 22  1  0  0  0
 20 32  1  0  0  0
 20 44  1  0  0  0
 21 32  1  0  0  0
 21 45  1  0  0  0
 22 46  1  0  0  0
 22 47  1  0  0  0
 23 48  1  0  0  0
 24 25  3  0  0  0
 25 49  1  0  0  0
 32 50  1  0  0  0
 33 51  1  0  0  0
 52 59  1  0  0  0
 53 55  1  0  0  0
 53 57  1  0  0  0
 53 62  1  0  0  0
 54 60  2  0  0  0
 54 61  1  0  0  0
 55 63  1  0  0  0
 55 64  1  0  0  0
 56 57  1  0  0  0
 56 58  1  0  0  0
 56 59  2  0  0  0
 57 65  1  0  0  0
 57 66  1  0  0  0
 58 61  2  0  0  0
 58 67  1  0  0  0
 59 60  1  0  0  0
 60 68  1  0  0  0
 61 69  1  0  0  0
M  END
> <s_m_entry_id>
370

> <s_m_entry_name>
000000370.1

> <s_m_Source_Path>
/Users/zaksoul/Documents/2

> <s_m_Source_File>
000000370.mol2

> <i_m_Source_File_Index>
1

$$$$
No_0_394
                    3D
 Schrodinger Suite 2022-4.
 69 75  0  0  1  0            999 V2000
   -5.1770    3.4580  -22.1060 C   0  0  0  0  0  0
   -5.4320    3.6120  -23.4480 C   0  0  0  0  0  0
   -3.9410    3.2230  -21.7470 C   0  0  0  0  0  0
   -3.0290    3.3040  -23.9060 C   0  0  0  0  0  0
   -2.8800    3.0950  -22.4790 C   0  0  0  0  0  0
   -4.3730    3.5430  -24.4470 C   0  0  0  0  0  0
   -3.5960    3.5180  -26.6370 C   0  0  0  0  0  0
    6.0850    2.9900  -21.2600 C   0  0  0  0  0  0
    5.9710    3.0700  -23.8130 C   0  0  0  0  0  0
   -4.6120    3.6360  -25.7870 C   0  0  0  0  0  0
    2.1830    3.5860  -23.8810 C   0  0  0  0  0  0
    1.3500    4.6950  -23.6170 C   0  0  0  0  0  0
    3.1320    5.9210  -22.9490 C   0  0  0  0  0  0
    3.5780    3.7960  -23.5590 C   0  0  0  0  0  0
    1.6520    2.4490  -24.5200 C   0  0  0  0  0  0
   -0.4830    3.2470  -24.4510 C   0  0  0  0  0  0
    0.0280    4.4860  -23.8760 C   0  0  0  0  0  0
   -1.9320    3.2330  -24.8190 C   0  0  0  0  0  0
    4.2000    1.3110  -23.2010 C   0  0  0  0  0  0
    5.1250    0.9900  -22.0360 C   0  0  2  0  0  0
    6.7110    2.5310  -22.5950 C   0  0  2  0  0  0
    5.0880    2.0190  -20.8940 C   0  0  0  0  0  0
   -2.2450    3.3550  -26.2540 C   0  0  0  0  0  0
   -1.5390    2.7080  -21.8570 C   0  0  0  0  0  0
   -0.5110    2.3810  -21.3330 C   0  0  0  0  0  0
   -0.8250    5.5320  -23.5650 F   0  0  0  0  0  0
   -3.7420    3.0160  -20.3570 F   0  0  0  0  0  0
    1.8130    5.8700  -23.1090 N   0  0  0  0  0  0
    4.0380    4.9610  -23.1370 N   0  0  0  0  0  0
    0.3490    2.3410  -24.8360 N   0  0  0  0  0  0
    4.5060    2.7510  -23.7020 N   0  0  0  0  0  0
    6.5360    1.0570  -22.5070 N   0  0  1  0  0  0
   -3.7550    3.4970  -28.0280 O   0  0  0  0  0  0
   -5.9869    3.5323  -21.3894 H   0  0  0  0  0  0
   -6.4446    3.7906  -23.7912 H   0  0  0  0  0  0
    5.6075    3.9713  -21.3983 H   0  0  0  0  0  0
    6.8634    3.0253  -20.4836 H   0  0  0  0  0  0
    6.3783    2.6062  -24.7235 H   0  0  0  0  0  0
    6.1063    4.1601  -23.8715 H   0  0  0  0  0  0
   -5.6203    3.8047  -26.1475 H   0  0  0  0  0  0
    2.3004    1.6189  -24.7760 H   0  0  0  0  0  0
    3.1544    1.2545  -22.8639 H   0  0  0  0  0  0
    4.3766    0.5943  -24.0166 H   0  0  0  0  0  0
    4.9049   -0.0148  -21.6462 H   0  0  0  0  0  0
    7.7780    2.7952  -22.6374 H   0  0  0  0  0  0
    4.1005    2.5032  -20.8718 H   0  0  0  0  0  0
    5.3829    1.5302  -19.9537 H   0  0  0  0  0  0
   -1.4674    3.3239  -27.0086 H   0  0  0  0  0  0
    0.3942    2.0933  -20.8714 H   0  0  0  0  0  0
    7.1807    0.5823  -21.7821 H   0  0  0  0  0  0
   -2.9055    3.4060  -28.4434 H   0  0  0  0  0  0
    4.6800   10.2000  -22.9080 F   0  0  0  0  0  0
    4.3320    7.1990  -21.1550 N   0  0  1  0  0  0
    8.2790   10.0140  -22.7980 N   0  0  0  0  0  0
    3.6760    7.2760  -22.5080 C   0  0  0  0  0  0
    6.0600    9.0360  -21.3920 C   0  0  0  0  0  0
    4.8620    8.5030  -20.6140 C   0  0  0  0  0  0
    7.3370    8.7130  -21.0140 C   0  0  0  0  0  0
    5.9040    9.8530  -22.4850 C   0  0  0  0  0  0
    7.0150   10.3160  -23.1510 C   0  0  0  0  0  0
    8.4040    9.2090  -21.7250 C   0  0  0  0  0  0
    3.6198    6.8359  -20.4288 H   0  0  0  0  0  0
    4.4054    7.6362  -23.2484 H   0  0  0  0  0  0
    2.8548    8.0072  -22.4750 H   0  0  0  0  0  0
    5.1411    8.3750  -19.5577 H   0  0  0  0  0  0
    4.0591    9.2549  -20.6210 H   0  0  0  0  0  0
    7.5031    8.0696  -20.1575 H   0  0  0  0  0  0
    6.8299   10.9572  -24.0052 H   0  0  0  0  0  0
    9.3884    8.9179  -21.3769 H   0  0  0  0  0  0
  1  2  2  0  0  0
  1  3  1  0  0  0
  1 34  1  0  0  0
  2  6  1  0  0  0
  2 35  1  0  0  0
  3  5  2  0  0  0
  3 27  1  0  0  0
  4  5  1  0  0  0
  4  6  2  0  0  0
  4 18  1  0  0  0
  5 24  1  0  0  0
  6 10  1  0  0  0
  7 10  2  0  0  0
  7 23  1  0  0  0
  7 33  1  0  0  0
  8 21  1  0  0  0
  8 22  1  0  0  0
  8 36  1  0  0  0
  8 37  1  0  0  0
  9 21  1  0  0  0
  9 31  1  0  0  0
  9 38  1  0  0  0
  9 39  1  0  0  0
 10 40  1  0  0  0
 11 12  1  0  0  0
 11 14  2  0  0  0
 11 15  1  0  0  0
 12 17  1  0  0  0
 12 28  2  0  0  0
 13 28  1  0  0  0
 13 29  2  0  0  0
 13 55  1  0  0  0
 14 29  1  0  0  0
 14 31  1  0  0  0
 15 30  2  0  0  0
 15 41  1  0  0  0
 16 17  2  0  0  0
 16 18  1  0  0  0
 16 30  1  0  0  0
 17 26  1  0  0  0
 18 23  2  0  0  0
 19 20  1  0  0  0
 19 31  1  0  0  0
 19 42  1  0  0  0
 19 43  1  0  0  0
 20 22  1  0  0  0
 20 32  1  0  0  0
 20 44  1  0  0  0
 21 32  1  0  0  0
 21 45  1  0  0  0
 22 46  1  0  0  0
 22 47  1  0  0  0
 23 48  1  0  0  0
 24 25  3  0  0  0
 25 49  1  0  0  0
 32 50  1  0  0  0
 33 51  1  0  0  0
 52 59  1  0  0  0
 53 55  1  0  0  0
 53 57  1  0  0  0
 53 62  1  0  0  0
 54 60  2  0  0  0
 54 61  1  0  0  0
 55 63  1  0  0  0
 55 64  1  0  0  0
 56 57  1  0  0  0
 56 58  1  0  0  0
 56 59  2  0  0  0
 57 65  1  0  0  0
 57 66  1  0  0  0
 58 61  2  0  0  0
 58 67  1  0  0  0
 59 60  1  0  0  0
 60 68  1  0  0  0
 61 69  1  0  0  0
M  END
> <s_m_entry_id>
371

> <s_m_entry_name>
000000371.1

> <s_m_Source_Path>
/Users/zaksoul/Documents/2

> <s_m_Source_File>
000000371.mol2

> <i_m_Source_File_Index>
1

$$$$
No_0_395
                    3D
 Schrodinger Suite 2022-4.
 68 74  0  0  1  0            999 V2000
   -5.4120    3.4170  -21.9210 C   0  0  0  0  0  0
   -5.6880    3.5710  -23.2590 C   0  0  0  0  0  0
   -4.1690    3.1830  -21.5830 C   0  0  0  0  0  0
   -3.2930    3.2660  -23.7570 C   0  0  0  0  0  0
   -3.1210    3.0570  -22.3320 C   0  0  0  0  0  0
   -4.6460    3.5030  -24.2750 C   0  0  0  0  0  0
   -3.9050    3.4790  -26.4780 C   0  0  0  0  0  0
    5.8640    2.9640  -21.2610 C   0  0  0  0  0  0
    5.7080    3.0430  -23.8120 C   0  0  0  0  0  0
   -4.9070    3.5960  -25.6110 C   0  0  0  0  0  0
    1.9180    3.5550  -23.8170 C   0  0  0  0  0  0
    1.0880    4.6630  -23.5400 C   0  0  0  0  0  0
    2.8790    5.8910  -22.9000 C   0  0  0  0  0  0
    3.3180    3.7660  -23.5180 C   0  0  0  0  0  0
    1.3780    2.4170  -24.4480 C   0  0  0  0  0  0
   -0.7560    3.2130  -24.3430 C   0  0  0  0  0  0
   -0.2370    4.4520  -23.7770 C   0  0  0  0  0  0
   -2.2110    3.1970  -24.6880 C   0  0  0  0  0  0
    3.9500    1.2820  -23.1700 C   0  0  0  0  0  0
    4.8940    0.9630  -22.0220 C   0  0  2  0  0  0
    6.4690    2.5050  -22.6060 C   0  0  2  0  0  0
    4.8740    1.9920  -20.8790 C   0  0  0  0  0  0
   -2.5470    3.3190  -26.1170 C   0  0  0  0  0  0
   -1.7690    2.6710  -21.7320 C   0  0  0  0  0  0
   -0.7310    2.3460  -21.2250 C   0  0  0  0  0  0
   -1.0870    5.4970  -23.4520 F   0  0  0  0  0  0
   -3.9470    2.9760  -20.1970 F   0  0  0  0  0  0
    1.5580    5.8390  -23.0390 N   0  0  0  0  0  0
    3.7830    4.9320  -23.1030 N   0  0  0  0  0  0
    0.0710    2.3080  -24.7420 N   0  0  0  0  0  0
    4.2450    2.7230  -23.6760 N   0  0  0  0  0  0
    6.2970    1.0320  -22.5150 N   0  0  1  0  0  0
   -4.0870    3.4590  -27.8660 O   0  0  0  0  0  0
   -6.2102    3.4893  -21.1911 H   0  0  0  0  0  0
   -6.7066    3.7476  -23.5851 H   0  0  0  0  0  0
    5.3824    3.9444  -21.3912 H   0  0  0  0  0  0
    6.6549    3.0003  -20.4973 H   0  0  0  0  0  0
    6.1007    2.5807  -24.7296 H   0  0  0  0  0  0
    5.8401    4.1334  -23.8715 H   0  0  0  0  0  0
   -5.9212    3.7635  -25.9551 H   0  0  0  0  0  0
    2.0235    1.5878  -24.7140 H   0  0  0  0  0  0
    2.9098    1.2245  -22.8169 H   0  0  0  0  0  0
    4.1134    0.5660  -23.9889 H   0  0  0  0  0  0
    4.6822   -0.0418  -21.6276 H   0  0  0  0  0  0
    7.5346    2.7714  -22.6655 H   0  0  0  0  0  0
    3.8861    2.4743  -20.8407 H   0  0  0  0  0  0
    5.1848    1.5036  -19.9436 H   0  0  0  0  0  0
   -1.7823    3.2879  -26.8847 H   0  0  0  0  0  0
    0.1821    2.0590  -20.7789 H   0  0  0  0  0  0
    6.9535    0.5573  -21.8008 H   0  0  0  0  0  0
   -3.2443    3.3690  -28.2953 H   0  0  0  0  0  0
    3.7740    7.2550  -21.0010 N   0  0  1  0  0  0
    6.2810    8.4730  -22.2240 N   0  0  0  0  0  0
    8.6090    8.3880  -21.5920 N   0  0  0  0  0  0
    4.4940    8.4890  -20.5250 C   0  0  0  0  0  0
    3.4290    7.2470  -22.4680 C   0  0  0  0  0  0
    5.9610    8.4610  -20.9210 C   0  0  0  0  0  0
    6.9090    8.4160  -19.9360 C   0  0  0  0  0  0
    8.2250    8.3800  -20.3070 C   0  0  0  0  0  0
    7.6000    8.4350  -22.4770 C   0  0  0  0  0  0
    4.3912    6.3868  -20.8230 H   0  0  0  0  0  0
    4.4110    8.5620  -19.4306 H   0  0  0  0  0  0
    4.0152    9.3807  -20.9558 H   0  0  0  0  0  0
    4.3279    7.4820  -23.0569 H   0  0  0  0  0  0
    2.6810    8.0270  -22.6730 H   0  0  0  0  0  0
    6.6091    8.4090  -18.8943 H   0  0  0  0  0  0
    8.9688    8.3440  -19.5192 H   0  0  0  0  0  0
    7.9563    8.4410  -23.5008 H   0  0  0  0  0  0
  1  2  2  0  0  0
  1  3  1  0  0  0
  1 34  1  0  0  0
  2  6  1  0  0  0
  2 35  1  0  0  0
  3  5  2  0  0  0
  3 27  1  0  0  0
  4  5  1  0  0  0
  4  6  2  0  0  0
  4 18  1  0  0  0
  5 24  1  0  0  0
  6 10  1  0  0  0
  7 10  2  0  0  0
  7 23  1  0  0  0
  7 33  1  0  0  0
  8 21  1  0  0  0
  8 22  1  0  0  0
  8 36  1  0  0  0
  8 37  1  0  0  0
  9 21  1  0  0  0
  9 31  1  0  0  0
  9 38  1  0  0  0
  9 39  1  0  0  0
 10 40  1  0  0  0
 11 12  1  0  0  0
 11 14  2  0  0  0
 11 15  1  0  0  0
 12 17  1  0  0  0
 12 28  2  0  0  0
 13 28  1  0  0  0
 13 29  2  0  0  0
 13 56  1  0  0  0
 14 29  1  0  0  0
 14 31  1  0  0  0
 15 30  2  0  0  0
 15 41  1  0  0  0
 16 17  2  0  0  0
 16 18  1  0  0  0
 16 30  1  0  0  0
 17 26  1  0  0  0
 18 23  2  0  0  0
 19 20  1  0  0  0
 19 31  1  0  0  0
 19 42  1  0  0  0
 19 43  1  0  0  0
 20 22  1  0  0  0
 20 32  1  0  0  0
 20 44  1  0  0  0
 21 32  1  0  0  0
 21 45  1  0  0  0
 22 46  1  0  0  0
 22 47  1  0  0  0
 23 48  1  0  0  0
 24 25  3  0  0  0
 25 49  1  0  0  0
 32 50  1  0  0  0
 33 51  1  0  0  0
 52 55  1  0  0  0
 52 56  1  0  0  0
 52 61  1  0  0  0
 53 57  2  0  0  0
 53 60  1  0  0  0
 54 59  1  0  0  0
 54 60  2  0  0  0
 55 57  1  0  0  0
 55 62  1  0  0  0
 55 63  1  0  0  0
 56 64  1  0  0  0
 56 65  1  0  0  0
 57 58  1  0  0  0
 58 59  2  0  0  0
 58 66  1  0  0  0
 59 67  1  0  0  0
 60 68  1  0  0  0
M  END
> <s_m_entry_id>
372

> <s_m_entry_name>
000000372.1

> <s_m_Source_Path>
/Users/zaksoul/Documents/2

> <s_m_Source_File>
000000372.mol2

> <i_m_Source_File_Index>
1

$$$$
No_0_396
                    3D
 Schrodinger Suite 2022-4.
 68 74  0  0  1  0            999 V2000
   -5.4520    3.3870  -22.1500 C   0  0  0  0  0  0
   -5.6760    3.5320  -23.4990 C   0  0  0  0  0  0
   -4.2220    3.1670  -21.7610 C   0  0  0  0  0  0
   -3.2600    3.2470  -23.8980 C   0  0  0  0  0  0
   -3.1430    3.0470  -22.4660 C   0  0  0  0  0  0
   -4.5930    3.4700  -24.4710 C   0  0  0  0  0  0
   -3.7640    3.4420  -26.6430 C   0  0  0  0  0  0
    5.7910    3.0420  -21.0330 C   0  0  0  0  0  0
    5.7370    3.1090  -23.5890 C   0  0  0  0  0  0
   -4.8010    3.5540  -25.8180 C   0  0  0  0  0  0
    1.9460    3.5850  -23.7500 C   0  0  0  0  0  0
    1.0960    4.6860  -23.5110 C   0  0  0  0  0  0
    2.8480    5.9340  -22.8060 C   0  0  0  0  0  0
    3.3320    3.8110  -23.3950 C   0  0  0  0  0  0
    1.4430    2.4390  -24.3960 C   0  0  0  0  0  0
   -0.7010    3.2150  -24.3810 C   0  0  0  0  0  0
   -0.2170    4.4620  -23.8010 C   0  0  0  0  0  0
   -2.1410    3.1840  -24.7840 C   0  0  0  0  0  0
    3.9710    1.3340  -23.0100 C   0  0  0  0  0  0
    4.8710    1.0290  -21.8220 C   0  0  2  0  0  0
    6.4540    2.5830  -22.3500 C   0  0  2  0  0  0
    4.7960    2.0630  -20.6860 C   0  0  0  0  0  0
   -2.4200    3.2960  -26.2260 C   0  0  0  0  0  0
   -1.8130    2.6760  -21.8110 C   0  0  0  0  0  0
   -0.7940    2.3630  -21.2600 C   0  0  0  0  0  0
   -1.0880    5.5000  -23.5150 F   0  0  0  0  0  0
   -4.0550    2.9680  -20.3660 F   0  0  0  0  0  0
    1.5340    5.8690  -22.9980 N   0  0  0  0  0  0
    3.7690    4.9830  -22.9680 N   0  0  0  0  0  0
    0.1500    2.3160  -24.7420 N   0  0  0  0  0  0
    4.2740    2.7760  -23.5100 N   0  0  0  0  0  0
    6.2920    1.1090  -22.2590 N   0  0  1  0  0  0
   -3.8890    3.4140  -28.0370 O   0  0  0  0  0  0
   -6.2795    3.4553  -21.4531 H   0  0  0  0  0  0
   -6.6821    3.6987  -23.8665 H   0  0  0  0  0  0
    5.3068    4.0175  -21.1874 H   0  0  0  0  0  0
    6.5502    3.0895  -20.2384 H   0  0  0  0  0  0
    6.1710    2.6457  -24.4873 H   0  0  0  0  0  0
    5.8622    4.2002  -23.6486 H   0  0  0  0  0  0
   -5.8021    3.7096  -26.2036 H   0  0  0  0  0  0
    2.1065    1.6149  -24.6319 H   0  0  0  0  0  0
    2.9182    1.2684  -22.6981 H   0  0  0  0  0  0
    4.1739    0.6152  -23.8176 H   0  0  0  0  0  0
    4.6530    0.0237  -21.4324 H   0  0  0  0  0  0
    7.5185    2.8595  -22.3682 H   0  0  0  0  0  0
    3.8030    2.5363  -20.6900 H   0  0  0  0  0  0
    5.0737    1.5814  -19.7368 H   0  0  0  0  0  0
   -1.6242    3.2689  -26.9616 H   0  0  0  0  0  0
    0.1030    2.0870  -20.7760 H   0  0  0  0  0  0
    6.9239    0.6439  -21.5169 H   0  0  0  0  0  0
   -3.0288    3.3289  -28.4310 H   0  0  0  0  0  0
    3.8580    7.2560  -20.9350 N   0  0  1  0  0  0
    6.1630    8.6710  -22.3320 N   0  0  0  0  0  0
    8.5440    8.6890  -21.9360 N   0  0  0  0  0  0
    4.5570    8.5050  -20.4670 C   0  0  0  0  0  0
    3.3680    7.2970  -22.3590 C   0  0  0  0  0  0
    5.9760    8.5790  -21.0060 C   0  0  0  0  0  0
    7.0200    8.5410  -20.1220 C   0  0  0  0  0  0
    8.2920    8.5980  -20.6210 C   0  0  0  0  0  0
    7.4490    8.7200  -22.7130 C   0  0  0  0  0  0
    4.5336    6.4164  -20.8640 H   0  0  0  0  0  0
    4.5820    8.5210  -19.3674 H   0  0  0  0  0  0
    3.9917    9.3875  -20.8012 H   0  0  0  0  0  0
    4.1894    7.6101  -23.0203 H   0  0  0  0  0  0
    2.5638    8.0422  -22.4480 H   0  0  0  0  0  0
    6.8270    8.4680  -19.0578 H   0  0  0  0  0  0
    9.1122    8.5670  -19.9129 H   0  0  0  0  0  0
    7.7000    8.7950  -23.7649 H   0  0  0  0  0  0
  1  2  2  0  0  0
  1  3  1  0  0  0
  1 34  1  0  0  0
  2  6  1  0  0  0
  2 35  1  0  0  0
  3  5  2  0  0  0
  3 27  1  0  0  0
  4  5  1  0  0  0
  4  6  2  0  0  0
  4 18  1  0  0  0
  5 24  1  0  0  0
  6 10  1  0  0  0
  7 10  2  0  0  0
  7 23  1  0  0  0
  7 33  1  0  0  0
  8 21  1  0  0  0
  8 22  1  0  0  0
  8 36  1  0  0  0
  8 37  1  0  0  0
  9 21  1  0  0  0
  9 31  1  0  0  0
  9 38  1  0  0  0
  9 39  1  0  0  0
 10 40  1  0  0  0
 11 12  1  0  0  0
 11 14  2  0  0  0
 11 15  1  0  0  0
 12 17  1  0  0  0
 12 28  2  0  0  0
 13 28  1  0  0  0
 13 29  2  0  0  0
 13 56  1  0  0  0
 14 29  1  0  0  0
 14 31  1  0  0  0
 15 30  2  0  0  0
 15 41  1  0  0  0
 16 17  2  0  0  0
 16 18  1  0  0  0
 16 30  1  0  0  0
 17 26  1  0  0  0
 18 23  2  0  0  0
 19 20  1  0  0  0
 19 31  1  0  0  0
 19 42  1  0  0  0
 19 43  1  0  0  0
 20 22  1  0  0  0
 20 32  1  0  0  0
 20 44  1  0  0  0
 21 32  1  0  0  0
 21 45  1  0  0  0
 22 46  1  0  0  0
 22 47  1  0  0  0
 23 48  1  0  0  0
 24 25  3  0  0  0
 25 49  1  0  0  0
 32 50  1  0  0  0
 33 51  1  0  0  0
 52 55  1  0  0  0
 52 56  1  0  0  0
 52 61  1  0  0  0
 53 57  2  0  0  0
 53 60  1  0  0  0
 54 59  1  0  0  0
 54 60  2  0  0  0
 55 57  1  0  0  0
 55 62  1  0  0  0
 55 63  1  0  0  0
 56 64  1  0  0  0
 56 65  1  0  0  0
 57 58  1  0  0  0
 58 59  2  0  0  0
 58 66  1  0  0  0
 59 67  1  0  0  0
 60 68  1  0  0  0
M  END
> <s_m_entry_id>
373

> <s_m_entry_name>
000000373.1

> <s_m_Source_Path>
/Users/zaksoul/Documents/2

> <s_m_Source_File>
000000373.mol2

> <i_m_Source_File_Index>
1

$$$$
No_0_397
                    3D
 Schrodinger Suite 2022-4.
 68 74  0  0  1  0            999 V2000
   -5.3010    3.4220  -22.0490 C   0  0  0  0  0  0
   -5.5630    3.6220  -23.3830 C   0  0  0  0  0  0
   -4.0640    3.1650  -21.7070 C   0  0  0  0  0  0
   -3.1670    3.3080  -23.8690 C   0  0  0  0  0  0
   -3.0100    3.0520  -22.4500 C   0  0  0  0  0  0
   -4.5130    3.5760  -24.3910 C   0  0  0  0  0  0
   -3.7520    3.6140  -26.5880 C   0  0  0  0  0  0
    5.9630    2.8270  -21.3040 C   0  0  0  0  0  0
    5.8310    2.9900  -23.8520 C   0  0  0  0  0  0
   -4.7610    3.7140  -25.7260 C   0  0  0  0  0  0
    2.0470    3.5420  -23.8750 C   0  0  0  0  0  0
    1.2260    4.6490  -23.5690 C   0  0  0  0  0  0
    3.0240    5.8380  -22.8750 C   0  0  0  0  0  0
    3.4470    3.7290  -23.5570 C   0  0  0  0  0  0
    1.5010    2.4310  -24.5460 C   0  0  0  0  0  0
   -0.6260    3.2460  -24.4340 C   0  0  0  0  0  0
   -0.0990    4.4610  -23.8240 C   0  0  0  0  0  0
   -2.0780    3.2570  -24.7920 C   0  0  0  0  0  0
    4.0490    1.2280  -23.2830 C   0  0  0  0  0  0
    4.9790    0.8620  -22.1370 C   0  0  2  0  0  0
    6.5750    2.4050  -22.6570 C   0  0  2  0  0  0
    4.9590    1.8540  -20.9620 C   0  0  0  0  0  0
   -2.4000    3.4280  -26.2200 C   0  0  0  0  0  0
   -1.6680    2.6320  -21.8520 C   0  0  0  0  0  0
   -0.6390    2.2790  -21.3460 C   0  0  0  0  0  0
   -0.9410    5.5040  -23.4740 F   0  0  0  0  0  0
   -3.8570    2.9110  -20.3260 F   0  0  0  0  0  0
    1.7030    5.8040  -23.0270 N   0  0  0  0  0  0
    3.9200    4.8760  -23.1010 N   0  0  0  0  0  0
    0.1950    2.3460  -24.8550 N   0  0  0  0  0  0
    4.3640    2.6820  -23.7400 N   0  0  0  0  0  0
    6.3870    0.9320  -22.6160 N   0  0  1  0  0  0
   -3.9220    3.6410  -27.9770 O   0  0  0  0  0  0
   -6.1045    3.4802  -21.3237 H   0  0  0  0  0  0
   -6.5765    3.8207  -23.7121 H   0  0  0  0  0  0
    5.4939    3.8166  -21.4069 H   0  0  0  0  0  0
    6.7473    2.8310  -20.5328 H   0  0  0  0  0  0
    6.2267    2.5529  -24.7807 H   0  0  0  0  0  0
    5.9754    4.0802  -23.8762 H   0  0  0  0  0  0
   -5.7701    3.9038  -26.0734 H   0  0  0  0  0  0
    2.1397    1.6035  -24.8332 H   0  0  0  0  0  0
    3.0051    1.1705  -22.9411 H   0  0  0  0  0  0
    4.2125    0.5366  -24.1228 H   0  0  0  0  0  0
    4.7528   -0.1527  -21.7776 H   0  0  0  0  0  0
    7.6436    2.6623  -22.6994 H   0  0  0  0  0  0
    3.9760    2.3455  -20.9166 H   0  0  0  0  0  0
    5.2569    1.3330  -20.0401 H   0  0  0  0  0  0
   -1.6281    3.4129  -26.9809 H   0  0  0  0  0  0
    0.2671    1.9690  -20.9010 H   0  0  0  0  0  0
    7.0323    0.4277  -21.9119 H   0  0  0  0  0  0
   -3.0764    3.5550  -28.4013 H   0  0  0  0  0  0
    4.3110    7.0220  -21.0830 N   0  0  1  0  0  0
    6.3140    8.6390  -22.7070 N   0  0  0  0  0  0
    8.7270    8.7080  -22.7180 N   0  0  0  0  0  0
    5.0540    8.2480  -20.6240 C   0  0  0  0  0  0
    3.5840    7.1720  -22.3950 C   0  0  0  0  0  0
    6.3580    8.4220  -21.3840 C   0  0  0  0  0  0
    7.5380    8.3430  -20.6960 C   0  0  0  0  0  0
    8.7050    8.4910  -21.3940 C   0  0  0  0  0  0
    7.5150    8.7690  -23.2940 C   0  0  0  0  0  0
    5.0057    6.2044  -21.2069 H   0  0  0  0  0  0
    5.2651    8.1670  -19.5475 H   0  0  0  0  0  0
    4.4221    9.1358  -20.7740 H   0  0  0  0  0  0
    4.2742    7.5741  -23.1512 H   0  0  0  0  0  0
    2.7615    7.8926  -22.2761 H   0  0  0  0  0  0
    7.5310    8.1680  -19.6262 H   0  0  0  0  0  0
    9.6344    8.4270  -20.8398 H   0  0  0  0  0  0
    7.5810    8.9470  -24.3612 H   0  0  0  0  0  0
  1  2  2  0  0  0
  1  3  1  0  0  0
  1 34  1  0  0  0
  2  6  1  0  0  0
  2 35  1  0  0  0
  3  5  2  0  0  0
  3 27  1  0  0  0
  4  5  1  0  0  0
  4  6  2  0  0  0
  4 18  1  0  0  0
  5 24  1  0  0  0
  6 10  1  0  0  0
  7 10  2  0  0  0
  7 23  1  0  0  0
  7 33  1  0  0  0
  8 21  1  0  0  0
  8 22  1  0  0  0
  8 36  1  0  0  0
  8 37  1  0  0  0
  9 21  1  0  0  0
  9 31  1  0  0  0
  9 38  1  0  0  0
  9 39  1  0  0  0
 10 40  1  0  0  0
 11 12  1  0  0  0
 11 14  2  0  0  0
 11 15  1  0  0  0
 12 17  1  0  0  0
 12 28  2  0  0  0
 13 28  1  0  0  0
 13 29  2  0  0  0
 13 56  1  0  0  0
 14 29  1  0  0  0
 14 31  1  0  0  0
 15 30  2  0  0  0
 15 41  1  0  0  0
 16 17  2  0  0  0
 16 18  1  0  0  0
 16 30  1  0  0  0
 17 26  1  0  0  0
 18 23  2  0  0  0
 19 20  1  0  0  0
 19 31  1  0  0  0
 19 42  1  0  0  0
 19 43  1  0  0  0
 20 22  1  0  0  0
 20 32  1  0  0  0
 20 44  1  0  0  0
 21 32  1  0  0  0
 21 45  1  0  0  0
 22 46  1  0  0  0
 22 47  1  0  0  0
 23 48  1  0  0  0
 24 25  3  0  0  0
 25 49  1  0  0  0
 32 50  1  0  0  0
 33 51  1  0  0  0
 52 55  1  0  0  0
 52 56  1  0  0  0
 52 61  1  0  0  0
 53 57  2  0  0  0
 53 60  1  0  0  0
 54 59  1  0  0  0
 54 60  2  0  0  0
 55 57  1  0  0  0
 55 62  1  0  0  0
 55 63  1  0  0  0
 56 64  1  0  0  0
 56 65  1  0  0  0
 57 58  1  0  0  0
 58 59  2  0  0  0
 58 66  1  0  0  0
 59 67  1  0  0  0
 60 68  1  0  0  0
M  END
> <s_m_entry_id>
374

> <s_m_entry_name>
000000374.1

> <s_m_Source_Path>
/Users/zaksoul/Documents/2

> <s_m_Source_File>
000000374.mol2

> <i_m_Source_File_Index>
1

$$$$
No_0_398
                    3D
 Schrodinger Suite 2022-4.
 68 74  0  0  1  0            999 V2000
   -5.3720    3.3240  -22.2190 C   0  0  0  0  0  0
   -5.5810    3.5340  -23.5610 C   0  0  0  0  0  0
   -4.1430    3.1060  -21.8240 C   0  0  0  0  0  0
   -3.1560    3.3120  -23.9420 C   0  0  0  0  0  0
   -3.0540    3.0410  -22.5210 C   0  0  0  0  0  0
   -4.4850    3.5400  -24.5210 C   0  0  0  0  0  0
   -3.6290    3.6380  -26.6800 C   0  0  0  0  0  0
    5.8610    3.1160  -20.9700 C   0  0  0  0  0  0
    5.8380    3.3120  -23.5200 C   0  0  0  0  0  0
   -4.6780    3.6900  -25.8640 C   0  0  0  0  0  0
    2.0410    3.7310  -23.7070 C   0  0  0  0  0  0
    1.1690    4.8040  -23.4240 C   0  0  0  0  0  0
    2.8890    6.0440  -22.6330 C   0  0  0  0  0  0
    3.4180    3.9620  -23.3230 C   0  0  0  0  0  0
    1.5660    2.6110  -24.4170 C   0  0  0  0  0  0
   -0.5910    3.3490  -24.3920 C   0  0  0  0  0  0
   -0.1360    4.5720  -23.7420 C   0  0  0  0  0  0
   -2.0250    3.3130  -24.8150 C   0  0  0  0  0  0
    4.0960    1.4800  -23.0550 C   0  0  0  0  0  0
    4.9870    1.1310  -21.8730 C   0  0  2  0  0  0
    6.5480    2.7370  -22.3000 C   0  0  2  0  0  0
    4.8790    2.1040  -20.6870 C   0  0  0  0  0  0
   -2.2880    3.4940  -26.2530 C   0  0  0  0  0  0
   -1.7250    2.6600  -21.8670 C   0  0  0  0  0  0
   -0.7080    2.3360  -21.3200 C   0  0  0  0  0  0
   -1.0300    5.5800  -23.4160 F   0  0  0  0  0  0
   -3.9900    2.8390  -20.4390 F   0  0  0  0  0  0
    1.5790    5.9660  -22.8460 N   0  0  0  0  0  0
    3.8290    5.1180  -22.8310 N   0  0  0  0  0  0
    0.2800    2.4840  -24.7870 N   0  0  0  0  0  0
    4.3790    2.9500  -23.4780 N   0  0  0  0  0  0
    6.4120    1.2570  -22.2860 N   0  0  1  0  0  0
   -3.7360    3.6790  -28.0750 O   0  0  0  0  0  0
   -6.2090    3.3431  -21.5305 H   0  0  0  0  0  0
   -6.5852    3.7015  -23.9332 H   0  0  0  0  0  0
    5.3615    4.0898  -21.0810 H   0  0  0  0  0  0
    6.6089    3.1362  -20.1636 H   0  0  0  0  0  0
    6.2914    2.9030  -24.4349 H   0  0  0  0  0  0
    5.9440    4.4069  -23.5230 H   0  0  0  0  0  0
   -5.6769    3.8476  -26.2545 H   0  0  0  0  0  0
    2.2464    1.8112  -24.6860 H   0  0  0  0  0  0
    3.0407    1.3800  -22.7611 H   0  0  0  0  0  0
    4.3221    0.8078  -23.8958 H   0  0  0  0  0  0
    4.7811    0.1037  -21.5380 H   0  0  0  0  0  0
    7.6077    3.0317  -22.2899 H   0  0  0  0  0  0
    3.8777    2.5592  -20.6799 H   0  0  0  0  0  0
    5.1525    1.5793  -19.7597 H   0  0  0  0  0  0
   -1.4831    3.5181  -26.9786 H   0  0  0  0  0  0
    0.1872    2.0509  -20.8379 H   0  0  0  0  0  0
    7.0420    0.7650  -21.5597 H   0  0  0  0  0  0
   -2.8697    3.6296  -28.4617 H   0  0  0  0  0  0
    4.3530    7.2160  -20.9740 N   0  0  1  0  0  0
    5.8200    9.2220  -22.7320 N   0  0  0  0  0  0
    8.1640    9.6050  -23.1610 N   0  0  0  0  0  0
    5.0290    8.4810  -20.5170 C   0  0  0  0  0  0
    3.3790    7.3910  -22.1100 C   0  0  0  0  0  0
    6.1380    8.8920  -21.4710 C   0  0  0  0  0  0
    7.4290    8.9040  -21.0160 C   0  0  0  0  0  0
    8.4180    9.2660  -21.8880 C   0  0  0  0  0  0
    6.8660    9.5600  -23.5030 C   0  0  0  0  0  0
    5.0982    6.5108  -21.3111 H   0  0  0  0  0  0
    5.4479    8.3300  -19.5112 H   0  0  0  0  0  0
    4.2863    9.2897  -20.4500 H   0  0  0  0  0  0
    3.8639    7.9458  -22.9268 H   0  0  0  0  0  0
    2.5186    7.9843  -21.7668 H   0  0  0  0  0  0
    7.6440    8.6320  -19.9889 H   0  0  0  0  0  0
    9.4369    9.2720  -21.5180 H   0  0  0  0  0  0
    6.7090    9.8420  -24.5378 H   0  0  0  0  0  0
  1  2  2  0  0  0
  1  3  1  0  0  0
  1 34  1  0  0  0
  2  6  1  0  0  0
  2 35  1  0  0  0
  3  5  2  0  0  0
  3 27  1  0  0  0
  4  5  1  0  0  0
  4  6  2  0  0  0
  4 18  1  0  0  0
  5 24  1  0  0  0
  6 10  1  0  0  0
  7 10  2  0  0  0
  7 23  1  0  0  0
  7 33  1  0  0  0
  8 21  1  0  0  0
  8 22  1  0  0  0
  8 36  1  0  0  0
  8 37  1  0  0  0
  9 21  1  0  0  0
  9 31  1  0  0  0
  9 38  1  0  0  0
  9 39  1  0  0  0
 10 40  1  0  0  0
 11 12  1  0  0  0
 11 14  2  0  0  0
 11 15  1  0  0  0
 12 17  1  0  0  0
 12 28  2  0  0  0
 13 28  1  0  0  0
 13 29  2  0  0  0
 13 56  1  0  0  0
 14 29  1  0  0  0
 14 31  1  0  0  0
 15 30  2  0  0  0
 15 41  1  0  0  0
 16 17  2  0  0  0
 16 18  1  0  0  0
 16 30  1  0  0  0
 17 26  1  0  0  0
 18 23  2  0  0  0
 19 20  1  0  0  0
 19 31  1  0  0  0
 19 42  1  0  0  0
 19 43  1  0  0  0
 20 22  1  0  0  0
 20 32  1  0  0  0
 20 44  1  0  0  0
 21 32  1  0  0  0
 21 45  1  0  0  0
 22 46  1  0  0  0
 22 47  1  0  0  0
 23 48  1  0  0  0
 24 25  3  0  0  0
 25 49  1  0  0  0
 32 50  1  0  0  0
 33 51  1  0  0  0
 52 55  1  0  0  0
 52 56  1  0  0  0
 52 61  1  0  0  0
 53 57  2  0  0  0
 53 60  1  0  0  0
 54 59  1  0  0  0
 54 60  2  0  0  0
 55 57  1  0  0  0
 55 62  1  0  0  0
 55 63  1  0  0  0
 56 64  1  0  0  0
 56 65  1  0  0  0
 57 58  1  0  0  0
 58 59  2  0  0  0
 58 66  1  0  0  0
 59 67  1  0  0  0
 60 68  1  0  0  0
M  END
> <s_m_entry_id>
375

> <s_m_entry_name>
000000375.1

> <s_m_Source_Path>
/Users/zaksoul/Documents/2

> <s_m_Source_File>
000000375.mol2

> <i_m_Source_File_Index>
1

$$$$
No_0_399
                    3D
 Schrodinger Suite 2022-4.
 68 74  0  0  1  0            999 V2000
   -5.2790    3.1390  -22.3920 C   0  0  0  0  0  0
   -5.4910    3.3750  -23.7290 C   0  0  0  0  0  0
   -4.0490    2.9220  -22.0020 C   0  0  0  0  0  0
   -3.0640    3.1810  -24.1150 C   0  0  0  0  0  0
   -2.9590    2.8810  -22.7000 C   0  0  0  0  0  0
   -4.3950    3.4110  -24.6890 C   0  0  0  0  0  0
   -3.5400    3.5610  -26.8450 C   0  0  0  0  0  0
    5.9550    2.9970  -21.1500 C   0  0  0  0  0  0
    5.9300    3.2460  -23.6950 C   0  0  0  0  0  0
   -4.5890    3.5870  -26.0290 C   0  0  0  0  0  0
    2.1300    3.6380  -23.8730 C   0  0  0  0  0  0
    1.2480    4.6970  -23.5670 C   0  0  0  0  0  0
    2.9590    5.9350  -22.7510 C   0  0  0  0  0  0
    3.5040    3.8720  -23.4840 C   0  0  0  0  0  0
    1.6640    2.5290  -24.6060 C   0  0  0  0  0  0
   -0.4990    3.2480  -24.5650 C   0  0  0  0  0  0
   -0.0550    4.4620  -23.8900 C   0  0  0  0  0  0
   -1.9330    3.2100  -24.9880 C   0  0  0  0  0  0
    4.2040    1.3910  -23.2690 C   0  0  0  0  0  0
    5.0970    1.0240  -22.0950 C   0  0  2  0  0  0
    6.6450    2.6510  -22.4880 C   0  0  2  0  0  0
    4.9820    1.9710  -20.8890 C   0  0  0  0  0  0
   -2.1980    3.4190  -26.4220 C   0  0  0  0  0  0
   -1.6270    2.4970  -22.0550 C   0  0  0  0  0  0
   -0.6070    2.1700  -21.5150 C   0  0  0  0  0  0
   -0.9560    5.4550  -23.5420 F   0  0  0  0  0  0
   -3.8920    2.6280  -20.6230 F   0  0  0  0  0  0
    1.6490    5.8500  -22.9640 N   0  0  0  0  0  0
    3.9060    5.0210  -22.9680 N   0  0  0  0  0  0
    0.3780    2.3990  -24.9780 N   0  0  0  0  0  0
    4.4750    2.8720  -23.6610 N   0  0  0  0  0  0
    6.5210    1.1700  -22.5050 N   0  0  1  0  0  0
   -3.6490    3.6300  -28.2400 O   0  0  0  0  0  0
   -6.1157    3.1360  -21.7028 H   0  0  0  0  0  0
   -6.4963    3.5426  -24.0982 H   0  0  0  0  0  0
    5.4475    3.9687  -21.2408 H   0  0  0  0  0  0
    6.7035    3.0061  -20.3440 H   0  0  0  0  0  0
    6.3863    2.8604  -24.6186 H   0  0  0  0  0  0
    6.0268    4.3415  -23.6748 H   0  0  0  0  0  0
   -5.5895    3.7445  -26.4153 H   0  0  0  0  0  0
    2.3509    1.7407  -24.8922 H   0  0  0  0  0  0
    3.1496    1.2760  -22.9774 H   0  0  0  0  0  0
    4.4351    0.7382  -24.1236 H   0  0  0  0  0  0
    4.9003   -0.0118  -21.7813 H   0  0  0  0  0  0
    7.7024    2.9537  -22.4719 H   0  0  0  0  0  0
    3.9771    2.4180  -20.8718 H   0  0  0  0  0  0
    5.2604    1.4293  -19.9730 H   0  0  0  0  0  0
   -1.3940    3.4652  -27.1477 H   0  0  0  0  0  0
    0.2913    1.8829  -21.0398 H   0  0  0  0  0  0
    7.1561    0.6686  -21.7897 H   0  0  0  0  0  0
   -2.7820    3.5964  -28.6270 H   0  0  0  0  0  0
    4.6620    7.1050  -21.3370 N   0  0  1  0  0  0
    5.4970    9.4140  -23.1360 N   0  0  0  0  0  0
    7.6350   10.0920  -24.0300 N   0  0  0  0  0  0
    5.3120    8.3910  -20.9000 C   0  0  0  0  0  0
    3.4380    7.2740  -22.2000 C   0  0  0  0  0  0
    6.1280    9.0080  -22.0240 C   0  0  0  0  0  0
    7.4840    9.1220  -21.8700 C   0  0  0  0  0  0
    8.2070    9.6690  -22.8930 C   0  0  0  0  0  0
    6.3020    9.9360  -24.0770 C   0  0  0  0  0  0
    5.3664    6.5206  -21.9103 H   0  0  0  0  0  0
    5.9659    8.1960  -20.0372 H   0  0  0  0  0  0
    4.5377    9.1023  -20.5769 H   0  0  0  0  0  0
    3.6691    7.9524  -23.0345 H   0  0  0  0  0  0
    2.6333    7.7348  -21.6082 H   0  0  0  0  0  0
    7.9548    8.7831  -20.9543 H   0  0  0  0  0  0
    9.2796    9.7550  -22.7619 H   0  0  0  0  0  0
    5.8828   10.2912  -25.0114 H   0  0  0  0  0  0
  1  2  2  0  0  0
  1  3  1  0  0  0
  1 34  1  0  0  0
  2  6  1  0  0  0
  2 35  1  0  0  0
  3  5  2  0  0  0
  3 27  1  0  0  0
  4  5  1  0  0  0
  4  6  2  0  0  0
  4 18  1  0  0  0
  5 24  1  0  0  0
  6 10  1  0  0  0
  7 10  2  0  0  0
  7 23  1  0  0  0
  7 33  1  0  0  0
  8 21  1  0  0  0
  8 22  1  0  0  0
  8 36  1  0  0  0
  8 37  1  0  0  0
  9 21  1  0  0  0
  9 31  1  0  0  0
  9 38  1  0  0  0
  9 39  1  0  0  0
 10 40  1  0  0  0
 11 12  1  0  0  0
 11 14  2  0  0  0
 11 15  1  0  0  0
 12 17  1  0  0  0
 12 28  2  0  0  0
 13 28  1  0  0  0
 13 29  2  0  0  0
 13 56  1  0  0  0
 14 29  1  0  0  0
 14 31  1  0  0  0
 15 30  2  0  0  0
 15 41  1  0  0  0
 16 17  2  0  0  0
 16 18  1  0  0  0
 16 30  1  0  0  0
 17 26  1  0  0  0
 18 23  2  0  0  0
 19 20  1  0  0  0
 19 31  1  0  0  0
 19 42  1  0  0  0
 19 43  1  0  0  0
 20 22  1  0  0  0
 20 32  1  0  0  0
 20 44  1  0  0  0
 21 32  1  0  0  0
 21 45  1  0  0  0
 22 46  1  0  0  0
 22 47  1  0  0  0
 23 48  1  0  0  0
 24 25  3  0  0  0
 25 49  1  0  0  0
 32 50  1  0  0  0
 33 51  1  0  0  0
 52 55  1  0  0  0
 52 56  1  0  0  0
 52 61  1  0  0  0
 53 57  2  0  0  0
 53 60  1  0  0  0
 54 59  1  0  0  0
 54 60  2  0  0  0
 55 57  1  0  0  0
 55 62  1  0  0  0
 55 63  1  0  0  0
 56 64  1  0  0  0
 56 65  1  0  0  0
 57 58  1  0  0  0
 58 59  2  0  0  0
 58 66  1  0  0  0
 59 67  1  0  0  0
 60 68  1  0  0  0
M  END
> <s_m_entry_id>
376

> <s_m_entry_name>
000000376.1

> <s_m_Source_Path>
/Users/zaksoul/Documents/2

> <s_m_Source_File>
000000376.mol2

> <i_m_Source_File_Index>
1

$$$$
No_0_400
                    3D
 Schrodinger Suite 2022-4.
 70 76  0  0  1  0            999 V2000
   -5.2620    3.5330  -22.0350 C   0  0  0  0  0  0
   -5.5100    3.6930  -23.3780 C   0  0  0  0  0  0
   -4.0260    3.3000  -21.6710 C   0  0  0  0  0  0
   -3.1040    3.3940  -23.8260 C   0  0  0  0  0  0
   -2.9620    3.1790  -22.3980 C   0  0  0  0  0  0
   -4.4470    3.6320  -24.3710 C   0  0  0  0  0  0
   -3.6590    3.6190  -26.5580 C   0  0  0  0  0  0
    5.9980    3.0910  -21.1380 C   0  0  0  0  0  0
    5.8950    3.1820  -23.6910 C   0  0  0  0  0  0
   -4.6790    3.7300  -25.7120 C   0  0  0  0  0  0
    2.1060    3.6890  -23.7750 C   0  0  0  0  0  0
    1.2690    4.7950  -23.5090 C   0  0  0  0  0  0
    3.0450    6.0220  -22.8270 C   0  0  0  0  0  0
    3.5000    3.9010  -23.4450 C   0  0  0  0  0  0
    1.5810    2.5540  -24.4220 C   0  0  0  0  0  0
   -0.5560    3.3460  -24.3580 C   0  0  0  0  0  0
   -0.0510    4.5840  -23.7760 C   0  0  0  0  0  0
   -2.0030    3.3300  -24.7340 C   0  0  0  0  0  0
    4.1270    1.4160  -23.0950 C   0  0  0  0  0  0
    5.0470    1.0920  -21.9280 C   0  0  2  0  0  0
    6.6310    2.6390  -22.4720 C   0  0  2  0  0  0
    5.0010    2.1160  -20.7820 C   0  0  0  0  0  0
   -2.3090    3.4580  -26.1690 C   0  0  0  0  0  0
   -1.6230    2.7910  -21.7720 C   0  0  0  0  0  0
   -0.5960    2.4650  -21.2450 C   0  0  0  0  0  0
   -0.9080    5.6260  -23.4640 F   0  0  0  0  0  0
   -3.8340    3.0870  -20.2820 F   0  0  0  0  0  0
    1.7260    5.9690  -22.9940 N   0  0  0  0  0  0
    3.9540    5.0650  -23.0150 N   0  0  0  0  0  0
    0.2800    2.4440  -24.7440 N   0  0  0  0  0  0
    4.4310    2.8600  -23.5880 N   0  0  0  0  0  0
    6.4600    1.1650  -22.3920 N   0  0  1  0  0  0
   -3.8120    3.6050  -27.9500 O   0  0  0  0  0  0
   -6.0750    3.6023  -21.3214 H   0  0  0  0  0  0
   -6.5217    3.8707  -23.7243 H   0  0  0  0  0  0
    5.5187    4.0717  -21.2742 H   0  0  0  0  0  0
    6.7724    3.1243  -20.3575 H   0  0  0  0  0  0
    6.3076    2.7240  -24.6020 H   0  0  0  0  0  0
    6.0272    4.2728  -23.7435 H   0  0  0  0  0  0
   -5.6859    3.8975  -26.0770 H   0  0  0  0  0  0
    2.2323    1.7261  -24.6779 H   0  0  0  0  0  0
    3.0797    1.3555  -22.7641 H   0  0  0  0  0  0
    4.3086    0.7037  -23.9133 H   0  0  0  0  0  0
    4.8278    0.0851  -21.5432 H   0  0  0  0  0  0
    7.6974    2.9064  -22.5083 H   0  0  0  0  0  0
    4.0121    2.5973  -20.7618 H   0  0  0  0  0  0
    5.2935    1.6237  -19.8428 H   0  0  0  0  0  0
   -1.5283    3.4319  -26.9206 H   0  0  0  0  0  0
    0.3075    2.1772  -20.7803 H   0  0  0  0  0  0
    7.1016    0.6881  -21.6659 H   0  0  0  0  0  0
   -2.9603    3.5170  -28.3615 H   0  0  0  0  0  0
    3.5570    7.5110  -20.8780 N   0  0  1  0  0  0
    5.9600   10.2010  -21.2680 N   0  0  0  0  0  0
    7.3090   10.0720  -21.3110 N   0  0  0  0  0  0
    4.0370    8.8350  -20.3390 C   0  0  0  0  0  0
    5.5100    9.0980  -20.6140 C   0  0  0  0  0  0
    3.5830    7.3760  -22.3770 C   0  0  0  0  0  0
    5.2190   11.3330  -21.8340 C   0  0  0  0  0  0
    6.5240    8.3040  -20.2510 C   0  0  0  0  0  0
    7.6650    8.9620  -20.7190 C   0  0  0  0  0  0
    4.1771    6.7169  -20.4890 H   0  0  0  0  0  0
    3.8540    8.8760  -19.2551 H   0  0  0  0  0  0
    3.4341    9.6458  -20.7739 H   0  0  0  0  0  0
    4.6152    7.4980  -22.7371 H   0  0  0  0  0  0
    2.9798    8.1782  -22.8271 H   0  0  0  0  0  0
    4.1418   11.1900  -21.6630 H   0  0  0  0  0  0
    5.5460   12.2651  -21.3500 H   0  0  0  0  0  0
    5.4130   11.3950  -22.9150 H   0  0  0  0  0  0
    6.3260    7.3829  -19.7149 H   0  0  0  0  0  0
    8.7132    8.6929  -20.6570 H   0  0  0  0  0  0
  1  2  2  0  0  0
  1  3  1  0  0  0
  1 34  1  0  0  0
  2  6  1  0  0  0
  2 35  1  0  0  0
  3  5  2  0  0  0
  3 27  1  0  0  0
  4  5  1  0  0  0
  4  6  2  0  0  0
  4 18  1  0  0  0
  5 24  1  0  0  0
  6 10  1  0  0  0
  7 10  2  0  0  0
  7 23  1  0  0  0
  7 33  1  0  0  0
  8 21  1  0  0  0
  8 22  1  0  0  0
  8 36  1  0  0  0
  8 37  1  0  0  0
  9 21  1  0  0  0
  9 31  1  0  0  0
  9 38  1  0  0  0
  9 39  1  0  0  0
 10 40  1  0  0  0
 11 12  1  0  0  0
 11 14  2  0  0  0
 11 15  1  0  0  0
 12 17  1  0  0  0
 12 28  2  0  0  0
 13 28  1  0  0  0
 13 29  2  0  0  0
 13 57  1  0  0  0
 14 29  1  0  0  0
 14 31  1  0  0  0
 15 30  2  0  0  0
 15 41  1  0  0  0
 16 17  2  0  0  0
 16 18  1  0  0  0
 16 30  1  0  0  0
 17 26  1  0  0  0
 18 23  2  0  0  0
 19 20  1  0  0  0
 19 31  1  0  0  0
 19 42  1  0  0  0
 19 43  1  0  0  0
 20 22  1  0  0  0
 20 32  1  0  0  0
 20 44  1  0  0  0
 21 32  1  0  0  0
 21 45  1  0  0  0
 22 46  1  0  0  0
 22 47  1  0  0  0
 23 48  1  0  0  0
 24 25  3  0  0  0
 25 49  1  0  0  0
 32 50  1  0  0  0
 33 51  1  0  0  0
 52 55  1  0  0  0
 52 57  1  0  0  0
 52 61  1  0  0  0
 53 54  1  0  0  0
 53 56  1  0  0  0
 53 58  1  0  0  0
 54 60  2  0  0  0
 55 56  1  0  0  0
 55 62  1  0  0  0
 55 63  1  0  0  0
 56 59  2  0  0  0
 57 64  1  0  0  0
 57 65  1  0  0  0
 58 66  1  0  0  0
 58 67  1  0  0  0
 58 68  1  0  0  0
 59 60  1  0  0  0
 59 69  1  0  0  0
 60 70  1  0  0  0
M  END
> <s_m_entry_id>
377

> <s_m_entry_name>
000000377.1

> <s_m_Source_Path>
/Users/zaksoul/Documents/2

> <s_m_Source_File>
000000377.mol2

> <i_m_Source_File_Index>
1

$$$$
No_0_401
                    3D
 Schrodinger Suite 2022-4.
 70 76  0  0  1  0            999 V2000
   -5.4630    3.4980  -22.0850 C   0  0  0  0  0  0
   -5.7090    3.6610  -23.4280 C   0  0  0  0  0  0
   -4.2290    3.2600  -21.7200 C   0  0  0  0  0  0
   -3.3030    3.3550  -23.8720 C   0  0  0  0  0  0
   -3.1640    3.1370  -22.4450 C   0  0  0  0  0  0
   -4.6440    3.5980  -24.4200 C   0  0  0  0  0  0
   -3.8520    3.5880  -26.6050 C   0  0  0  0  0  0
    5.7930    3.0180  -21.1680 C   0  0  0  0  0  0
    5.6960    3.1150  -23.7220 C   0  0  0  0  0  0
   -4.8740    3.7010  -25.7610 C   0  0  0  0  0  0
    1.9080    3.6340  -23.8110 C   0  0  0  0  0  0
    1.0740    4.7410  -23.5450 C   0  0  0  0  0  0
    2.8520    5.9620  -22.8570 C   0  0  0  0  0  0
    3.3020    3.8410  -23.4780 C   0  0  0  0  0  0
    1.3810    2.5020  -24.4620 C   0  0  0  0  0  0
   -0.7540    3.3010  -24.4000 C   0  0  0  0  0  0
   -0.2460    4.5350  -23.8140 C   0  0  0  0  0  0
   -2.2010    3.2900  -24.7790 C   0  0  0  0  0  0
    3.9200    1.3530  -23.1330 C   0  0  0  0  0  0
    4.8370    1.0240  -21.9650 C   0  0  2  0  0  0
    6.4280    2.5670  -22.5020 C   0  0  2  0  0  0
    4.7930    2.0450  -20.8160 C   0  0  0  0  0  0
   -2.5030    3.4220  -26.2140 C   0  0  0  0  0  0
   -1.8270    2.7440  -21.8170 C   0  0  0  0  0  0
   -0.8020    2.4130  -21.2890 C   0  0  0  0  0  0
   -1.1010    5.5800  -23.5020 F   0  0  0  0  0  0
   -4.0400    3.0430  -20.3300 F   0  0  0  0  0  0
    1.5340    5.9130  -23.0260 N   0  0  0  0  0  0
    3.7590    5.0030  -23.0450 N   0  0  0  0  0  0
    0.0810    2.3970  -24.7870 N   0  0  0  0  0  0
    4.2300    2.7970  -23.6220 N   0  0  0  0  0  0
    6.2510    1.0930  -22.4250 N   0  0  1  0  0  0
   -4.0020    3.5770  -27.9980 O   0  0  0  0  0  0
   -6.2779    3.5672  -21.3735 H   0  0  0  0  0  0
   -6.7192    3.8428  -23.7765 H   0  0  0  0  0  0
    5.3174    4.0006  -21.3033 H   0  0  0  0  0  0
    6.5665    3.0473  -20.3864 H   0  0  0  0  0  0
    6.1086    2.6570  -24.6330 H   0  0  0  0  0  0
    5.8313    4.2055  -23.7715 H   0  0  0  0  0  0
   -5.8798    3.8716  -26.1274 H   0  0  0  0  0  0
    2.0305    1.6728  -24.7180 H   0  0  0  0  0  0
    2.8723    1.2945  -22.8029 H   0  0  0  0  0  0
    4.1016    0.6417  -23.9522 H   0  0  0  0  0  0
    4.6140    0.0170  -21.5826 H   0  0  0  0  0  0
    7.4952    2.8315  -22.5353 H   0  0  0  0  0  0
    3.8055    2.5292  -20.7968 H   0  0  0  0  0  0
    5.0818    1.5502  -19.8770 H   0  0  0  0  0  0
   -1.7208    3.3949  -26.9640 H   0  0  0  0  0  0
    0.0996    2.1211  -20.8232 H   0  0  0  0  0  0
    6.8908    0.6126  -21.6996 H   0  0  0  0  0  0
   -3.1496    3.4879  -28.4079 H   0  0  0  0  0  0
    3.7070    7.3170  -20.9300 N   0  0  1  0  0  0
    5.7810   10.2240  -21.5720 N   0  0  0  0  0  0
    7.0890   10.2140  -21.9290 N   0  0  0  0  0  0
    4.2140    8.6260  -20.3800 C   0  0  0  0  0  0
    5.5650    9.0350  -20.9500 C   0  0  0  0  0  0
    3.3940    7.3140  -22.4030 C   0  0  0  0  0  0
    4.8600   11.3340  -21.8390 C   0  0  0  0  0  0
    6.6830    8.3020  -20.9070 C   0  0  0  0  0  0
    7.6410    9.0910  -21.5490 C   0  0  0  0  0  0
    4.4490    6.5480  -20.7740 H   0  0  0  0  0  0
    4.2850    8.5600  -19.2843 H   0  0  0  0  0  0
    3.4782    9.4178  -20.5840 H   0  0  0  0  0  0
    4.3056    7.5519  -22.9708 H   0  0  0  0  0  0
    2.6536    8.0974  -22.6221 H   0  0  0  0  0  0
    3.8630   11.0860  -21.4460 H   0  0  0  0  0  0
    5.2312   12.2455  -21.3477 H   0  0  0  0  0  0
    4.7940   11.5040  -22.9238 H   0  0  0  0  0  0
    6.6720    7.3252  -20.4371 H   0  0  0  0  0  0
    8.6898    8.9070  -21.7520 H   0  0  0  0  0  0
  1  2  2  0  0  0
  1  3  1  0  0  0
  1 34  1  0  0  0
  2  6  1  0  0  0
  2 35  1  0  0  0
  3  5  2  0  0  0
  3 27  1  0  0  0
  4  5  1  0  0  0
  4  6  2  0  0  0
  4 18  1  0  0  0
  5 24  1  0  0  0
  6 10  1  0  0  0
  7 10  2  0  0  0
  7 23  1  0  0  0
  7 33  1  0  0  0
  8 21  1  0  0  0
  8 22  1  0  0  0
  8 36  1  0  0  0
  8 37  1  0  0  0
  9 21  1  0  0  0
  9 31  1  0  0  0
  9 38  1  0  0  0
  9 39  1  0  0  0
 10 40  1  0  0  0
 11 12  1  0  0  0
 11 14  2  0  0  0
 11 15  1  0  0  0
 12 17  1  0  0  0
 12 28  2  0  0  0
 13 28  1  0  0  0
 13 29  2  0  0  0
 13 57  1  0  0  0
 14 29  1  0  0  0
 14 31  1  0  0  0
 15 30  2  0  0  0
 15 41  1  0  0  0
 16 17  2  0  0  0
 16 18  1  0  0  0
 16 30  1  0  0  0
 17 26  1  0  0  0
 18 23  2  0  0  0
 19 20  1  0  0  0
 19 31  1  0  0  0
 19 42  1  0  0  0
 19 43  1  0  0  0
 20 22  1  0  0  0
 20 32  1  0  0  0
 20 44  1  0  0  0
 21 32  1  0  0  0
 21 45  1  0  0  0
 22 46  1  0  0  0
 22 47  1  0  0  0
 23 48  1  0  0  0
 24 25  3  0  0  0
 25 49  1  0  0  0
 32 50  1  0  0  0
 33 51  1  0  0  0
 52 55  1  0  0  0
 52 57  1  0  0  0
 52 61  1  0  0  0
 53 54  1  0  0  0
 53 56  1  0  0  0
 53 58  1  0  0  0
 54 60  2  0  0  0
 55 56  1  0  0  0
 55 62  1  0  0  0
 55 63  1  0  0  0
 56 59  2  0  0  0
 57 64  1  0  0  0
 57 65  1  0  0  0
 58 66  1  0  0  0
 58 67  1  0  0  0
 58 68  1  0  0  0
 59 60  1  0  0  0
 59 69  1  0  0  0
 60 70  1  0  0  0
M  END
> <s_m_entry_id>
378

> <s_m_entry_name>
000000378.1

> <s_m_Source_Path>
/Users/zaksoul/Documents/2

> <s_m_Source_File>
000000378.mol2

> <i_m_Source_File_Index>
1

$$$$
No_0_402
                    3D
 Schrodinger Suite 2022-4.
 71 77  0  0  1  0            999 V2000
   -5.3460    3.5900  -22.1360 C   0  0  0  0  0  0
   -5.6110    3.7850  -23.4710 C   0  0  0  0  0  0
   -4.1050    3.3550  -21.7930 C   0  0  0  0  0  0
   -3.2090    3.5130  -23.9550 C   0  0  0  0  0  0
   -3.0480    3.2600  -22.5360 C   0  0  0  0  0  0
   -4.5590    3.7580  -24.4780 C   0  0  0  0  0  0
   -3.7970    3.8090  -26.6740 C   0  0  0  0  0  0
    5.9260    3.1910  -21.3820 C   0  0  0  0  0  0
    5.7930    3.3510  -23.9310 C   0  0  0  0  0  0
   -4.8080    3.8920  -25.8140 C   0  0  0  0  0  0
    2.0000    3.8380  -23.9560 C   0  0  0  0  0  0
    1.1600    4.9310  -23.6510 C   0  0  0  0  0  0
    2.9370    6.1500  -22.9560 C   0  0  0  0  0  0
    3.3960    4.0490  -23.6370 C   0  0  0  0  0  0
    1.4740    2.7170  -24.6280 C   0  0  0  0  0  0
   -0.6660    3.4950  -24.5180 C   0  0  0  0  0  0
   -0.1610    4.7190  -23.9080 C   0  0  0  0  0  0
   -2.1180    3.4800  -24.8770 C   0  0  0  0  0  0
    4.0420    1.5590  -23.3630 C   0  0  0  0  0  0
    4.9770    1.2090  -22.2160 C   0  0  2  0  0  0
    6.5470    2.7800  -22.7350 C   0  0  2  0  0  0
    4.9390    2.2010  -21.0410 C   0  0  0  0  0  0
   -2.4420    3.6460  -26.3050 C   0  0  0  0  0  0
   -1.7000    2.8630  -21.9360 C   0  0  0  0  0  0
   -0.6650    2.5290  -21.4300 C   0  0  0  0  0  0
   -1.0210    5.7480  -23.5580 F   0  0  0  0  0  0
   -3.8950    3.1050  -20.4120 F   0  0  0  0  0  0
    1.6170    6.0930  -23.1090 N   0  0  0  0  0  0
    3.8490    5.2040  -23.1810 N   0  0  0  0  0  0
    0.1710    2.6090  -24.9380 N   0  0  0  0  0  0
    4.3320    3.0180  -23.8190 N   0  0  0  0  0  0
    6.3840    1.3030  -22.6930 N   0  0  1  0  0  0
   -3.9660    3.8320  -28.0640 O   0  0  0  0  0  0
   -6.1514    3.6352  -21.4119 H   0  0  0  0  0  0
   -6.6273    3.9668  -23.8014 H   0  0  0  0  0  0
    5.4395    4.1722  -21.4850 H   0  0  0  0  0  0
    6.7093    3.2082  -20.6098 H   0  0  0  0  0  0
    6.1979    2.9209  -24.8589 H   0  0  0  0  0  0
    5.9181    4.4436  -23.9542 H   0  0  0  0  0  0
   -5.8205    4.0628  -26.1615 H   0  0  0  0  0  0
    2.1275    1.9008  -24.9141 H   0  0  0  0  0  0
    2.9992    1.4834  -23.0211 H   0  0  0  0  0  0
    4.2176    0.8706  -24.2028 H   0  0  0  0  0  0
    4.7681    0.1906  -21.8567 H   0  0  0  0  0  0
    7.6114    3.0547  -22.7764 H   0  0  0  0  0  0
    3.9476    2.6755  -20.9966 H   0  0  0  0  0  0
    5.2446    1.6846  -20.1191 H   0  0  0  0  0  0
   -1.6695    3.6450  -27.0655 H   0  0  0  0  0  0
    0.2457    2.2341  -20.9841 H   0  0  0  0  0  0
    7.0373    0.8101  -21.9883 H   0  0  0  0  0  0
   -3.1185    3.7608  -28.4873 H   0  0  0  0  0  0
    4.1360    7.3640  -21.1280 N   0  3  0  0  0  0
    6.8370    8.6800  -22.0500 N   0  0  0  0  0  0
    8.4240    8.8470  -20.5570 N   0  0  0  0  0  0
    4.7370    8.6360  -20.5820 C   0  0  0  0  0  0
    7.2230    8.8120  -19.9300 C   0  0  0  0  0  0
    3.4730    7.4940  -22.4750 C   0  0  0  0  0  0
    9.7430    8.9630  -19.9290 C   0  0  0  0  0  0
    8.1440    8.7610  -21.8770 C   0  0  0  0  0  0
    6.2350    8.7100  -20.8190 C   0  0  0  0  0  0
    3.4729    6.9960  -20.4639 H   0  0  0  0  0  0
    4.8490    6.6530  -21.1750 H   0  0  0  0  0  0
    4.5340    8.7020  -19.5029 H   0  0  0  0  0  0
    4.2486    9.5027  -21.0514 H   0  0  0  0  0  0
    7.1750    8.8650  -18.8484 H   0  0  0  0  0  0
    4.1991    7.8810  -23.2051 H   0  0  0  0  0  0
    2.6450    8.2150  -22.4070 H   0  0  0  0  0  0
   10.5213    8.9640  -20.7063 H   0  0  0  0  0  0
    9.7960    9.9003  -19.3558 H   0  0  0  0  0  0
    9.9029    8.1105  -19.2524 H   0  0  0  0  0  0
    8.8050    8.7510  -22.7361 H   0  0  0  0  0  0
  1  2  2  0  0  0
  1  3  1  0  0  0
  1 34  1  0  0  0
  2  6  1  0  0  0
  2 35  1  0  0  0
  3  5  2  0  0  0
  3 27  1  0  0  0
  4  5  1  0  0  0
  4  6  2  0  0  0
  4 18  1  0  0  0
  5 24  1  0  0  0
  6 10  1  0  0  0
  7 10  2  0  0  0
  7 23  1  0  0  0
  7 33  1  0  0  0
  8 21  1  0  0  0
  8 22  1  0  0  0
  8 36  1  0  0  0
  8 37  1  0  0  0
  9 21  1  0  0  0
  9 31  1  0  0  0
  9 38  1  0  0  0
  9 39  1  0  0  0
 10 40  1  0  0  0
 11 12  1  0  0  0
 11 14  2  0  0  0
 11 15  1  0  0  0
 12 17  1  0  0  0
 12 28  2  0  0  0
 13 28  1  0  0  0
 13 29  2  0  0  0
 13 57  1  0  0  0
 14 29  1  0  0  0
 14 31  1  0  0  0
 15 30  2  0  0  0
 15 41  1  0  0  0
 16 17  2  0  0  0
 16 18  1  0  0  0
 16 30  1  0  0  0
 17 26  1  0  0  0
 18 23  2  0  0  0
 19 20  1  0  0  0
 19 31  1  0  0  0
 19 42  1  0  0  0
 19 43  1  0  0  0
 20 22  1  0  0  0
 20 32  1  0  0  0
 20 44  1  0  0  0
 21 32  1  0  0  0
 21 45  1  0  0  0
 22 46  1  0  0  0
 22 47  1  0  0  0
 23 48  1  0  0  0
 24 25  3  0  0  0
 25 49  1  0  0  0
 32 50  1  0  0  0
 33 51  1  0  0  0
 52 55  1  0  0  0
 52 57  1  0  0  0
 52 61  1  0  0  0
 52 62  1  0  0  0
 53 59  2  0  0  0
 53 60  1  0  0  0
 54 56  1  0  0  0
 54 58  1  0  0  0
 54 59  1  0  0  0
 55 60  1  0  0  0
 55 63  1  0  0  0
 55 64  1  0  0  0
 56 60  2  0  0  0
 56 65  1  0  0  0
 57 66  1  0  0  0
 57 67  1  0  0  0
 58 68  1  0  0  0
 58 69  1  0  0  0
 58 70  1  0  0  0
 59 71  1  0  0  0
M  CHG  1  52   1
M  END
> <s_m_entry_id>
379

> <s_m_entry_name>
000000379.1

> <s_m_Source_Path>
/Users/zaksoul/Documents/2

> <s_m_Source_File>
000000379.mol2

> <i_m_Source_File_Index>
1

$$$$
No_0_403
                    3D
 Schrodinger Suite 2022-4.
 71 77  0  0  1  0            999 V2000
   -5.2550    3.4480  -22.3010 C   0  0  0  0  0  0
   -5.4970    3.6310  -23.6420 C   0  0  0  0  0  0
   -4.0180    3.2300  -21.9330 C   0  0  0  0  0  0
   -3.0820    3.3860  -24.0770 C   0  0  0  0  0  0
   -2.9470    3.1430  -22.6540 C   0  0  0  0  0  0
   -4.4250    3.6100  -24.6280 C   0  0  0  0  0  0
   -3.6220    3.6580  -26.8090 C   0  0  0  0  0  0
    6.0040    3.1940  -21.3270 C   0  0  0  0  0  0
    5.9190    3.3370  -23.8790 C   0  0  0  0  0  0
   -4.6500    3.7330  -25.9690 C   0  0  0  0  0  0
    2.1210    3.7760  -23.9810 C   0  0  0  0  0  0
    1.2620    4.8600  -23.6990 C   0  0  0  0  0  0
    3.0090    6.1060  -22.9770 C   0  0  0  0  0  0
    3.5080    4.0060  -23.6360 C   0  0  0  0  0  0
    1.6220    2.6450  -24.6550 C   0  0  0  0  0  0
   -0.5300    3.3960  -24.5920 C   0  0  0  0  0  0
   -0.0520    4.6300  -23.9790 C   0  0  0  0  0  0
   -1.9740    3.3610  -24.9780 C   0  0  0  0  0  0
    4.1790    1.5260  -23.3340 C   0  0  0  0  0  0
    5.0960    1.1950  -22.1670 C   0  0  2  0  0  0
    6.6560    2.7820  -22.6650 C   0  0  2  0  0  0
    5.0230    2.1940  -20.9990 C   0  0  0  0  0  0
   -2.2720    3.5140  -26.4130 C   0  0  0  0  0  0
   -1.6050    2.7680  -22.0260 C   0  0  0  0  0  0
   -0.5760    2.4490  -21.4980 C   0  0  0  0  0  0
   -0.9310    5.6500  -23.6520 F   0  0  0  0  0  0
   -3.8320    2.9910  -20.5460 F   0  0  0  0  0  0
    1.6930    6.0310  -23.1550 N   0  0  0  0  0  0
    3.9380    5.1690  -23.1780 N   0  0  0  0  0  0
    0.3260    2.5180  -24.9900 N   0  0  0  0  0  0
    4.4600    2.9860  -23.7940 N   0  0  0  0  0  0
    6.5110    1.3040  -22.6170 N   0  0  1  0  0  0
   -3.7640    3.6710  -28.2020 O   0  0  0  0  0  0
   -6.0747    3.4861  -21.5927 H   0  0  0  0  0  0
   -6.5092    3.7977  -23.9924 H   0  0  0  0  0  0
    5.5073    4.1682  -21.4461 H   0  0  0  0  0  0
    6.7724    3.2253  -20.5405 H   0  0  0  0  0  0
    6.3460    2.9060  -24.7966 H   0  0  0  0  0  0
    6.0310    4.4309  -23.9073 H   0  0  0  0  0  0
   -5.6573    3.8897  -26.3376 H   0  0  0  0  0  0
    2.2904    1.8351  -24.9240 H   0  0  0  0  0  0
    3.1307    1.4392  -23.0122 H   0  0  0  0  0  0
    4.3799    0.8346  -24.1657 H   0  0  0  0  0  0
    4.8931    0.1764  -21.8046 H   0  0  0  0  0  0
    7.7172    3.0708  -22.6882 H   0  0  0  0  0  0
    4.0247    2.6553  -20.9768 H   0  0  0  0  0  0
    5.3176    1.6864  -20.0686 H   0  0  0  0  0  0
   -1.4852    3.5180  -27.1586 H   0  0  0  0  0  0
    0.3293    2.1682  -21.0324 H   0  0  0  0  0  0
    7.1571    0.8237  -21.8971 H   0  0  0  0  0  0
   -2.9077    3.6077  -28.6084 H   0  0  0  0  0  0
    4.3470    7.3140  -21.2440 N   0  3  0  0  0  0
    6.8350    8.8400  -22.4080 N   0  0  0  0  0  0
    8.5770    9.0440  -21.1070 N   0  0  0  0  0  0
    4.9330    8.5960  -20.7070 C   0  0  0  0  0  0
    7.4650    8.9040  -20.3450 C   0  0  0  0  0  0
    3.5190    7.4590  -22.4950 C   0  0  0  0  0  0
    9.9530    9.2170  -20.6330 C   0  0  0  0  0  0
    8.1450    8.9980  -22.3870 C   0  0  0  0  0  0
    6.3850    8.7780  -21.1150 C   0  0  0  0  0  0
    3.7921    6.8750  -20.5261 H   0  0  0  0  0  0
    5.0888    6.6522  -21.4109 H   0  0  0  0  0  0
    4.8580    8.6010  -19.6096 H   0  0  0  0  0  0
    4.3418    9.4492  -21.0711 H   0  0  0  0  0  0
    7.5450    8.9070  -19.2640 H   0  0  0  0  0  0
    4.1281    7.9241  -23.2841 H   0  0  0  0  0  0
    2.6649    8.1221  -22.2930 H   0  0  0  0  0  0
   10.6310    9.3030  -21.4950 H   0  0  0  0  0  0
   10.0200   10.1299  -20.0230 H   0  0  0  0  0  0
   10.2439    8.3483  -20.0242 H   0  0  0  0  0  0
    8.6978    9.0690  -23.3167 H   0  0  0  0  0  0
  1  2  2  0  0  0
  1  3  1  0  0  0
  1 34  1  0  0  0
  2  6  1  0  0  0
  2 35  1  0  0  0
  3  5  2  0  0  0
  3 27  1  0  0  0
  4  5  1  0  0  0
  4  6  2  0  0  0
  4 18  1  0  0  0
  5 24  1  0  0  0
  6 10  1  0  0  0
  7 10  2  0  0  0
  7 23  1  0  0  0
  7 33  1  0  0  0
  8 21  1  0  0  0
  8 22  1  0  0  0
  8 36  1  0  0  0
  8 37  1  0  0  0
  9 21  1  0  0  0
  9 31  1  0  0  0
  9 38  1  0  0  0
  9 39  1  0  0  0
 10 40  1  0  0  0
 11 12  1  0  0  0
 11 14  2  0  0  0
 11 15  1  0  0  0
 12 17  1  0  0  0
 12 28  2  0  0  0
 13 28  1  0  0  0
 13 29  2  0  0  0
 13 57  1  0  0  0
 14 29  1  0  0  0
 14 31  1  0  0  0
 15 30  2  0  0  0
 15 41  1  0  0  0
 16 17  2  0  0  0
 16 18  1  0  0  0
 16 30  1  0  0  0
 17 26  1  0  0  0
 18 23  2  0  0  0
 19 20  1  0  0  0
 19 31  1  0  0  0
 19 42  1  0  0  0
 19 43  1  0  0  0
 20 22  1  0  0  0
 20 32  1  0  0  0
 20 44  1  0  0  0
 21 32  1  0  0  0
 21 45  1  0  0  0
 22 46  1  0  0  0
 22 47  1  0  0  0
 23 48  1  0  0  0
 24 25  3  0  0  0
 25 49  1  0  0  0
 32 50  1  0  0  0
 33 51  1  0  0  0
 52 55  1  0  0  0
 52 57  1  0  0  0
 52 61  1  0  0  0
 52 62  1  0  0  0
 53 59  2  0  0  0
 53 60  1  0  0  0
 54 56  1  0  0  0
 54 58  1  0  0  0
 54 59  1  0  0  0
 55 60  1  0  0  0
 55 63  1  0  0  0
 55 64  1  0  0  0
 56 60  2  0  0  0
 56 65  1  0  0  0
 57 66  1  0  0  0
 57 67  1  0  0  0
 58 68  1  0  0  0
 58 69  1  0  0  0
 58 70  1  0  0  0
 59 71  1  0  0  0
M  CHG  1  52   1
M  END
> <s_m_entry_id>
380

> <s_m_entry_name>
000000380.1

> <s_m_Source_Path>
/Users/zaksoul/Documents/2

> <s_m_Source_File>
000000380.mol2

> <i_m_Source_File_Index>
1

$$$$
No_0_404
                    3D
 Schrodinger Suite 2022-4.
 71 77  0  0  1  0            999 V2000
   -5.3310    3.3410  -22.3040 C   0  0  0  0  0  0
   -5.5610    3.5360  -23.6450 C   0  0  0  0  0  0
   -4.0970    3.1160  -21.9280 C   0  0  0  0  0  0
   -3.1450    3.2850  -24.0640 C   0  0  0  0  0  0
   -3.0210    3.0310  -22.6410 C   0  0  0  0  0  0
   -4.4820    3.5190  -24.6230 C   0  0  0  0  0  0
   -3.6620    3.5800  -26.7970 C   0  0  0  0  0  0
    5.9200    3.0390  -21.2460 C   0  0  0  0  0  0
    5.8540    3.2020  -23.7970 C   0  0  0  0  0  0
   -4.6960    3.6530  -25.9650 C   0  0  0  0  0  0
    2.0590    3.6560  -23.9240 C   0  0  0  0  0  0
    1.2020    4.7400  -23.6400 C   0  0  0  0  0  0
    2.9480    5.9740  -22.8960 C   0  0  0  0  0  0
    3.4440    3.8780  -23.5670 C   0  0  0  0  0  0
    1.5610    2.5310  -24.6120 C   0  0  0  0  0  0
   -0.5880    3.2900  -24.5580 C   0  0  0  0  0  0
   -0.1100    4.5180  -23.9330 C   0  0  0  0  0  0
   -2.0290    3.2640  -24.9570 C   0  0  0  0  0  0
    4.1040    1.3940  -23.2790 C   0  0  0  0  0  0
    5.0110    1.0500  -22.1080 C   0  0  2  0  0  0
    6.5800    2.6350  -22.5820 C   0  0  2  0  0  0
    4.9330    2.0400  -20.9330 C   0  0  0  0  0  0
   -2.3160    3.4290  -26.3920 C   0  0  0  0  0  0
   -1.6850    2.6460  -22.0060 C   0  0  0  0  0  0
   -0.6610    2.3190  -21.4720 C   0  0  0  0  0  0
   -0.9880    5.5380  -23.6050 F   0  0  0  0  0  0
   -3.9220    2.8660  -20.5420 F   0  0  0  0  0  0
    1.6330    5.9060  -23.0850 N   0  0  0  0  0  0
    3.8750    5.0360  -23.0970 N   0  0  0  0  0  0
    0.2680    2.4120  -24.9570 N   0  0  0  0  0  0
    4.3940    2.8550  -23.7260 N   0  0  0  0  0  0
    6.4300    1.1570  -22.5470 N   0  0  1  0  0  0
   -3.7930    3.6040  -28.1910 O   0  0  0  0  0  0
   -6.1554    3.3771  -21.6011 H   0  0  0  0  0  0
   -6.5697    3.7086  -24.0023 H   0  0  0  0  0  0
    5.4275    4.0159  -21.3610 H   0  0  0  0  0  0
    6.6819    3.0612  -20.4529 H   0  0  0  0  0  0
    6.2877    2.7763  -24.7139 H   0  0  0  0  0  0
    5.9710    4.2956  -23.8162 H   0  0  0  0  0  0
   -5.7001    3.8157  -26.3395 H   0  0  0  0  0  0
    2.2294    1.7211  -24.8810 H   0  0  0  0  0  0
    3.0532    1.3083  -22.9654 H   0  0  0  0  0  0
    4.3088    0.7081  -24.1142 H   0  0  0  0  0  0
    4.8010    0.0293  -21.7557 H   0  0  0  0  0  0
    7.6425    2.9195  -22.5941 H   0  0  0  0  0  0
    3.9363    2.5051  -20.9148 H   0  0  0  0  0  0
    5.2175    1.5245  -20.0039 H   0  0  0  0  0  0
   -1.5234    3.4350  -27.1314 H   0  0  0  0  0  0
    0.2398    2.0318  -21.0016 H   0  0  0  0  0  0
    7.0681    0.6685  -21.8255 H   0  0  0  0  0  0
   -2.9340    3.5407  -28.5918 H   0  0  0  0  0  0
    4.4510    7.1480  -21.2780 N   0  3  0  0  0  0
    6.6950    8.8620  -22.6570 N   0  0  0  0  0  0
    8.5840    9.0790  -21.5820 N   0  0  0  0  0  0
    5.0480    8.4250  -20.7420 C   0  0  0  0  0  0
    7.5900    8.8400  -20.6930 C   0  0  0  0  0  0
    3.4590    7.3220  -22.3990 C   0  0  0  0  0  0
   10.0020    9.2940  -21.2800 C   0  0  0  0  0  0
    7.9890    9.0840  -22.7960 C   0  0  0  0  0  0
    6.4240    8.7030  -21.3220 C   0  0  0  0  0  0
    4.0149    6.6409  -20.5239 H   0  0  0  0  0  0
    5.1918    6.5352  -21.5809 H   0  0  0  0  0  0
    5.1190    8.3640  -19.6460 H   0  0  0  0  0  0
    4.3782    9.2667  -20.9719 H   0  0  0  0  0  0
    7.8119    8.7850  -19.6334 H   0  0  0  0  0  0
    3.9371    7.8611  -23.2301 H   0  0  0  0  0  0
    2.6115    7.9284  -22.0468 H   0  0  0  0  0  0
   10.5549    9.4630  -22.2158 H   0  0  0  0  0  0
   10.1100   10.1727  -20.6272 H   0  0  0  0  0  0
   10.4080    8.4080  -20.7700 H   0  0  0  0  0  0
    8.4101    9.2360  -23.7832 H   0  0  0  0  0  0
  1  2  2  0  0  0
  1  3  1  0  0  0
  1 34  1  0  0  0
  2  6  1  0  0  0
  2 35  1  0  0  0
  3  5  2  0  0  0
  3 27  1  0  0  0
  4  5  1  0  0  0
  4  6  2  0  0  0
  4 18  1  0  0  0
  5 24  1  0  0  0
  6 10  1  0  0  0
  7 10  2  0  0  0
  7 23  1  0  0  0
  7 33  1  0  0  0
  8 21  1  0  0  0
  8 22  1  0  0  0
  8 36  1  0  0  0
  8 37  1  0  0  0
  9 21  1  0  0  0
  9 31  1  0  0  0
  9 38  1  0  0  0
  9 39  1  0  0  0
 10 40  1  0  0  0
 11 12  1  0  0  0
 11 14  2  0  0  0
 11 15  1  0  0  0
 12 17  1  0  0  0
 12 28  2  0  0  0
 13 28  1  0  0  0
 13 29  2  0  0  0
 13 57  1  0  0  0
 14 29  1  0  0  0
 14 31  1  0  0  0
 15 30  2  0  0  0
 15 41  1  0  0  0
 16 17  2  0  0  0
 16 18  1  0  0  0
 16 30  1  0  0  0
 17 26  1  0  0  0
 18 23  2  0  0  0
 19 20  1  0  0  0
 19 31  1  0  0  0
 19 42  1  0  0  0
 19 43  1  0  0  0
 20 22  1  0  0  0
 20 32  1  0  0  0
 20 44  1  0  0  0
 21 32  1  0  0  0
 21 45  1  0  0  0
 22 46  1  0  0  0
 22 47  1  0  0  0
 23 48  1  0  0  0
 24 25  3  0  0  0
 25 49  1  0  0  0
 32 50  1  0  0  0
 33 51  1  0  0  0
 52 55  1  0  0  0
 52 57  1  0  0  0
 52 61  1  0  0  0
 52 62  1  0  0  0
 53 59  2  0  0  0
 53 60  1  0  0  0
 54 56  1  0  0  0
 54 58  1  0  0  0
 54 59  1  0  0  0
 55 60  1  0  0  0
 55 63  1  0  0  0
 55 64  1  0  0  0
 56 60  2  0  0  0
 56 65  1  0  0  0
 57 66  1  0  0  0
 57 67  1  0  0  0
 58 68  1  0  0  0
 58 69  1  0  0  0
 58 70  1  0  0  0
 59 71  1  0  0  0
M  CHG  1  52   1
M  END
> <s_m_entry_id>
381

> <s_m_entry_name>
000000381.1

> <s_m_Source_Path>
/Users/zaksoul/Documents/2

> <s_m_Source_File>
000000381.mol2

> <i_m_Source_File_Index>
1

$$$$
No_0_405
                    3D
 Schrodinger Suite 2022-4.
 67 73  0  0  1  0            999 V2000
   -5.3210    3.2450  -22.0620 C   0  0  0  0  0  0
   -5.5650    3.4290  -23.4020 C   0  0  0  0  0  0
   -4.0820    3.0320  -21.6950 C   0  0  0  0  0  0
   -3.1510    3.1950  -23.8420 C   0  0  0  0  0  0
   -3.0120    2.9520  -22.4190 C   0  0  0  0  0  0
   -4.4950    3.4140  -24.3900 C   0  0  0  0  0  0
   -3.6950    3.4680  -26.5720 C   0  0  0  0  0  0
    5.9410    3.0420  -21.1050 C   0  0  0  0  0  0
    5.8510    3.1870  -23.6570 C   0  0  0  0  0  0
   -4.7220    3.5370  -25.7300 C   0  0  0  0  0  0
    2.0510    3.6090  -23.7520 C   0  0  0  0  0  0
    1.1880    4.6880  -23.4680 C   0  0  0  0  0  0
    2.9300    5.9410  -22.7470 C   0  0  0  0  0  0
    3.4370    3.8450  -23.4090 C   0  0  0  0  0  0
    1.5560    2.4760  -24.4270 C   0  0  0  0  0  0
   -0.5990    3.2180  -24.3590 C   0  0  0  0  0  0
   -0.1260    4.4530  -23.7470 C   0  0  0  0  0  0
   -2.0430    3.1770  -24.7440 C   0  0  0  0  0  0
    4.1200    1.3680  -23.1100 C   0  0  0  0  0  0
    5.0410    1.0400  -21.9450 C   0  0  2  0  0  0
    6.5920    2.6340  -22.4450 C   0  0  2  0  0  0
    4.9650    2.0370  -20.7760 C   0  0  0  0  0  0
   -2.3440    3.3290  -26.1780 C   0  0  0  0  0  0
   -1.6670    2.5810  -21.7930 C   0  0  0  0  0  0
   -0.6360    2.2670  -21.2660 C   0  0  0  0  0  0
   -1.0090    5.4690  -23.4170 F   0  0  0  0  0  0
   -3.8930    2.7930  -20.3100 F   0  0  0  0  0  0
    1.6140    5.8610  -22.9230 N   0  0  0  0  0  0
    3.8630    5.0100  -22.9510 N   0  0  0  0  0  0
    0.2600    2.3440  -24.7600 N   0  0  0  0  0  0
    4.3940    2.8290  -23.5690 N   0  0  0  0  0  0
    6.4540    1.1550  -22.3980 N   0  0  1  0  0  0
   -3.8390    3.4810  -27.9650 O   0  0  0  0  0  0
   -6.1389    3.2791  -21.3515 H   0  0  0  0  0  0
   -6.5784    3.5905  -23.7512 H   0  0  0  0  0  0
    5.4394    4.0139  -21.2221 H   0  0  0  0  0  0
    6.7103    3.0763  -20.3195 H   0  0  0  0  0  0
    6.2793    2.7587  -24.5752 H   0  0  0  0  0  0
    5.9579    4.2815  -23.6842 H   0  0  0  0  0  0
   -5.7304    3.6895  -26.0972 H   0  0  0  0  0  0
    2.2284    1.6701  -24.6980 H   0  0  0  0  0  0
    3.0725    1.2762  -22.7871 H   0  0  0  0  0  0
    4.3229    0.6786  -23.9428 H   0  0  0  0  0  0
    4.8423    0.0202  -21.5839 H   0  0  0  0  0  0
    7.6519    2.9275  -22.4682 H   0  0  0  0  0  0
    3.9648    2.4942  -20.7528 H   0  0  0  0  0  0
    5.2628    1.5302  -19.8462 H   0  0  0  0  0  0
   -1.5582    3.3380  -26.9247 H   0  0  0  0  0  0
    0.2716    1.9898  -20.8027 H   0  0  0  0  0  0
    7.1032    0.6770  -21.6793 H   0  0  0  0  0  0
   -2.9829    3.4226  -28.3727 H   0  0  0  0  0  0
    3.7400    7.2750  -20.7900 N   0  0  1  0  0  0
    7.9500    8.8160  -20.6290 N   0  0  0  0  0  0
    7.5140    9.7070  -21.5450 N   0  0  0  0  0  0
    4.2520    8.5740  -20.2190 C   0  0  0  0  0  0
    3.4350    7.2970  -22.2640 C   0  0  0  0  0  0
    6.8150    8.3280  -20.0700 C   0  0  0  0  0  0
    6.2080    9.7480  -21.5370 C   0  0  0  0  0  0
    5.6980    8.8590  -20.5850 C   0  0  0  0  0  0
    4.4782    6.5007  -20.6420 H   0  0  0  0  0  0
    8.9601    8.6581  -20.5041 H   0  0  0  0  0  0
    4.1480    8.5570  -19.1241 H   0  0  0  0  0  0
    3.6167    9.4014  -20.5682 H   0  0  0  0  0  0
    4.3429    7.5700  -22.8219 H   0  0  0  0  0  0
    2.6743    8.0647  -22.4689 H   0  0  0  0  0  0
    6.8740    7.5813  -19.2864 H   0  0  0  0  0  0
    5.6822   10.4128  -22.2128 H   0  0  0  0  0  0
  1  2  2  0  0  0
  1  3  1  0  0  0
  1 34  1  0  0  0
  2  6  1  0  0  0
  2 35  1  0  0  0
  3  5  2  0  0  0
  3 27  1  0  0  0
  4  5  1  0  0  0
  4  6  2  0  0  0
  4 18  1  0  0  0
  5 24  1  0  0  0
  6 10  1  0  0  0
  7 10  2  0  0  0
  7 23  1  0  0  0
  7 33  1  0  0  0
  8 21  1  0  0  0
  8 22  1  0  0  0
  8 36  1  0  0  0
  8 37  1  0  0  0
  9 21  1  0  0  0
  9 31  1  0  0  0
  9 38  1  0  0  0
  9 39  1  0  0  0
 10 40  1  0  0  0
 11 12  1  0  0  0
 11 14  2  0  0  0
 11 15  1  0  0  0
 12 17  1  0  0  0
 12 28  2  0  0  0
 13 28  1  0  0  0
 13 29  2  0  0  0
 13 56  1  0  0  0
 14 29  1  0  0  0
 14 31  1  0  0  0
 15 30  2  0  0  0
 15 41  1  0  0  0
 16 17  2  0  0  0
 16 18  1  0  0  0
 16 30  1  0  0  0
 17 26  1  0  0  0
 18 23  2  0  0  0
 19 20  1  0  0  0
 19 31  1  0  0  0
 19 42  1  0  0  0
 19 43  1  0  0  0
 20 22  1  0  0  0
 20 32  1  0  0  0
 20 44  1  0  0  0
 21 32  1  0  0  0
 21 45  1  0  0  0
 22 46  1  0  0  0
 22 47  1  0  0  0
 23 48  1  0  0  0
 24 25  3  0  0  0
 25 49  1  0  0  0
 32 50  1  0  0  0
 33 51  1  0  0  0
 52 55  1  0  0  0
 52 56  1  0  0  0
 52 60  1  0  0  0
 53 54  1  0  0  0
 53 57  1  0  0  0
 53 61  1  0  0  0
 54 58  2  0  0  0
 55 59  1  0  0  0
 55 62  1  0  0  0
 55 63  1  0  0  0
 56 64  1  0  0  0
 56 65  1  0  0  0
 57 59  2  0  0  0
 57 66  1  0  0  0
 58 59  1  0  0  0
 58 67  1  0  0  0
M  END
> <s_m_entry_id>
382

> <s_m_entry_name>
000000382.1

> <s_m_Source_Path>
/Users/zaksoul/Documents/2

> <s_m_Source_File>
000000382.mol2

> <i_m_Source_File_Index>
1

$$$$
No_0_406
                    3D
 Schrodinger Suite 2022-4.
 67 73  0  0  1  0            999 V2000
   -5.4670    3.2550  -22.1170 C   0  0  0  0  0  0
   -5.6730    3.4100  -23.4670 C   0  0  0  0  0  0
   -4.2400    3.0490  -21.7110 C   0  0  0  0  0  0
   -3.2480    3.1650  -23.8330 C   0  0  0  0  0  0
   -3.1490    2.9530  -22.4020 C   0  0  0  0  0  0
   -4.5760    3.3730  -24.4240 C   0  0  0  0  0  0
   -3.7140    3.3790  -26.5830 C   0  0  0  0  0  0
    5.7620    3.0680  -20.8370 C   0  0  0  0  0  0
    5.7450    3.1580  -23.3920 C   0  0  0  0  0  0
   -4.7650    3.4670  -25.7720 C   0  0  0  0  0  0
    1.9500    3.5790  -23.6050 C   0  0  0  0  0  0
    1.0800    4.6650  -23.3680 C   0  0  0  0  0  0
    2.8030    5.9320  -22.6260 C   0  0  0  0  0  0
    3.3260    3.8220  -23.2280 C   0  0  0  0  0  0
    1.4730    2.4320  -24.2690 C   0  0  0  0  0  0
   -0.6820    3.1760  -24.2780 C   0  0  0  0  0  0
   -0.2250    4.4240  -23.6790 C   0  0  0  0  0  0
   -2.1150    3.1270  -24.7030 C   0  0  0  0  0  0
    3.9980    1.3520  -22.8570 C   0  0  0  0  0  0
    4.8850    1.0490  -21.6590 C   0  0  2  0  0  0
    6.4510    2.6310  -22.1480 C   0  0  2  0  0  0
    4.7770    2.0700  -20.5140 C   0  0  0  0  0  0
   -2.3750    3.2490  -26.1480 C   0  0  0  0  0  0
   -1.8230    2.5960  -21.7300 C   0  0  0  0  0  0
   -0.8080    2.2920  -21.1680 C   0  0  0  0  0  0
   -1.1160    5.4470  -23.3970 F   0  0  0  0  0  0
   -4.0900    2.8400  -20.3160 F   0  0  0  0  0  0
    1.4920    5.8490  -22.8370 N   0  0  0  0  0  0
    3.7390    4.9960  -22.7830 N   0  0  0  0  0  0
    0.1870    2.2940  -24.6360 N   0  0  0  0  0  0
    4.2860    2.8020  -23.3390 N   0  0  0  0  0  0
    6.3100    1.1540  -22.0740 N   0  0  1  0  0  0
   -3.8190    3.3630  -27.9790 O   0  0  0  0  0  0
   -6.3056    3.3042  -21.4319 H   0  0  0  0  0  0
   -6.6760    3.5645  -23.8481 H   0  0  0  0  0  0
    5.2651    4.0375  -20.9895 H   0  0  0  0  0  0
    6.5087    3.1185  -20.0308 H   0  0  0  0  0  0
    6.1991    2.7099  -24.2881 H   0  0  0  0  0  0
    5.8539    4.2515  -23.4404 H   0  0  0  0  0  0
   -5.7626    3.6125  -26.1704 H   0  0  0  0  0  0
    2.1523    1.6202  -24.5028 H   0  0  0  0  0  0
    2.9418    1.2673  -22.5614 H   0  0  0  0  0  0
    4.2231    0.6444  -23.6686 H   0  0  0  0  0  0
    4.6752    0.0372  -21.2817 H   0  0  0  0  0  0
    7.5114    2.9236  -22.1480 H   0  0  0  0  0  0
    3.7770    2.5281  -20.5281 H   0  0  0  0  0  0
    5.0475    1.5835  -19.5652 H   0  0  0  0  0  0
   -1.5685    3.2410  -26.8723 H   0  0  0  0  0  0
    0.0856    2.0241  -20.6732 H   0  0  0  0  0  0
    6.9382    0.6914  -21.3272 H   0  0  0  0  0  0
   -2.9521    3.2948  -28.3615 H   0  0  0  0  0  0
    3.8320    7.2360  -20.7520 N   0  0  1  0  0  0
    7.9130    9.0510  -21.1710 N   0  0  0  0  0  0
    7.2830    9.9480  -21.9610 N   0  0  0  0  0  0
    4.3480    8.5410  -20.2020 C   0  0  0  0  0  0
    3.2950    7.2980  -22.1580 C   0  0  0  0  0  0
    6.9120    8.4640  -20.4670 C   0  0  0  0  0  0
    5.9950    9.9000  -21.7470 C   0  0  0  0  0  0
    5.6980    8.9390  -20.7740 C   0  0  0  0  0  0
    4.6294    6.5077  -20.7620 H   0  0  0  0  0  0
    8.9378    8.9569  -21.2140 H   0  0  0  0  0  0
    4.4210    8.4720  -19.1066 H   0  0  0  0  0  0
    3.6161    9.3369  -20.4040 H   0  0  0  0  0  0
    4.0841    7.6551  -22.8361 H   0  0  0  0  0  0
    2.4662    8.0199  -22.2020 H   0  0  0  0  0  0
    7.1400    7.6910  -19.7420 H   0  0  0  0  0  0
    5.3286   10.5544  -22.2973 H   0  0  0  0  0  0
  1  2  2  0  0  0
  1  3  1  0  0  0
  1 34  1  0  0  0
  2  6  1  0  0  0
  2 35  1  0  0  0
  3  5  2  0  0  0
  3 27  1  0  0  0
  4  5  1  0  0  0
  4  6  2  0  0  0
  4 18  1  0  0  0
  5 24  1  0  0  0
  6 10  1  0  0  0
  7 10  2  0  0  0
  7 23  1  0  0  0
  7 33  1  0  0  0
  8 21  1  0  0  0
  8 22  1  0  0  0
  8 36  1  0  0  0
  8 37  1  0  0  0
  9 21  1  0  0  0
  9 31  1  0  0  0
  9 38  1  0  0  0
  9 39  1  0  0  0
 10 40  1  0  0  0
 11 12  1  0  0  0
 11 14  2  0  0  0
 11 15  1  0  0  0
 12 17  1  0  0  0
 12 28  2  0  0  0
 13 28  1  0  0  0
 13 29  2  0  0  0
 13 56  1  0  0  0
 14 29  1  0  0  0
 14 31  1  0  0  0
 15 30  2  0  0  0
 15 41  1  0  0  0
 16 17  2  0  0  0
 16 18  1  0  0  0
 16 30  1  0  0  0
 17 26  1  0  0  0
 18 23  2  0  0  0
 19 20  1  0  0  0
 19 31  1  0  0  0
 19 42  1  0  0  0
 19 43  1  0  0  0
 20 22  1  0  0  0
 20 32  1  0  0  0
 20 44  1  0  0  0
 21 32  1  0  0  0
 21 45  1  0  0  0
 22 46  1  0  0  0
 22 47  1  0  0  0
 23 48  1  0  0  0
 24 25  3  0  0  0
 25 49  1  0  0  0
 32 50  1  0  0  0
 33 51  1  0  0  0
 52 55  1  0  0  0
 52 56  1  0  0  0
 52 60  1  0  0  0
 53 54  1  0  0  0
 53 57  1  0  0  0
 53 61  1  0  0  0
 54 58  2  0  0  0
 55 59  1  0  0  0
 55 62  1  0  0  0
 55 63  1  0  0  0
 56 64  1  0  0  0
 56 65  1  0  0  0
 57 59  2  0  0  0
 57 66  1  0  0  0
 58 59  1  0  0  0
 58 67  1  0  0  0
M  END
> <s_m_entry_id>
383

> <s_m_entry_name>
000000383.1

> <s_m_Source_Path>
/Users/zaksoul/Documents/2

> <s_m_Source_File>
000000383.mol2

> <i_m_Source_File_Index>
1

$$$$
No_0_407
                    3D
 Schrodinger Suite 2022-4.
 67 73  0  0  1  0            999 V2000
   -5.3210    3.2450  -22.0620 C   0  0  0  0  0  0
   -5.5650    3.4290  -23.4020 C   0  0  0  0  0  0
   -4.0820    3.0320  -21.6950 C   0  0  0  0  0  0
   -3.1510    3.1950  -23.8420 C   0  0  0  0  0  0
   -3.0120    2.9520  -22.4190 C   0  0  0  0  0  0
   -4.4950    3.4140  -24.3900 C   0  0  0  0  0  0
   -3.6950    3.4680  -26.5720 C   0  0  0  0  0  0
    5.9410    3.0420  -21.1050 C   0  0  0  0  0  0
    5.8510    3.1870  -23.6570 C   0  0  0  0  0  0
   -4.7220    3.5370  -25.7300 C   0  0  0  0  0  0
    2.0510    3.6090  -23.7520 C   0  0  0  0  0  0
    1.1880    4.6880  -23.4680 C   0  0  0  0  0  0
    2.9300    5.9410  -22.7470 C   0  0  0  0  0  0
    3.4370    3.8450  -23.4090 C   0  0  0  0  0  0
    1.5560    2.4760  -24.4270 C   0  0  0  0  0  0
   -0.5990    3.2180  -24.3590 C   0  0  0  0  0  0
   -0.1260    4.4530  -23.7470 C   0  0  0  0  0  0
   -2.0430    3.1770  -24.7440 C   0  0  0  0  0  0
    4.1200    1.3680  -23.1100 C   0  0  0  0  0  0
    5.0410    1.0400  -21.9450 C   0  0  2  0  0  0
    6.5920    2.6340  -22.4450 C   0  0  2  0  0  0
    4.9650    2.0370  -20.7760 C   0  0  0  0  0  0
   -2.3440    3.3290  -26.1780 C   0  0  0  0  0  0
   -1.6670    2.5810  -21.7930 C   0  0  0  0  0  0
   -0.6360    2.2670  -21.2660 C   0  0  0  0  0  0
   -1.0090    5.4690  -23.4170 F   0  0  0  0  0  0
   -3.8930    2.7930  -20.3100 F   0  0  0  0  0  0
    1.6140    5.8610  -22.9230 N   0  0  0  0  0  0
    3.8630    5.0100  -22.9510 N   0  0  0  0  0  0
    0.2600    2.3440  -24.7600 N   0  0  0  0  0  0
    4.3940    2.8290  -23.5690 N   0  0  0  0  0  0
    6.4540    1.1550  -22.3980 N   0  0  1  0  0  0
   -3.8390    3.4810  -27.9650 O   0  0  0  0  0  0
   -6.1389    3.2791  -21.3515 H   0  0  0  0  0  0
   -6.5784    3.5905  -23.7512 H   0  0  0  0  0  0
    5.4394    4.0139  -21.2221 H   0  0  0  0  0  0
    6.7103    3.0763  -20.3195 H   0  0  0  0  0  0
    6.2793    2.7587  -24.5752 H   0  0  0  0  0  0
    5.9579    4.2815  -23.6842 H   0  0  0  0  0  0
   -5.7304    3.6895  -26.0972 H   0  0  0  0  0  0
    2.2284    1.6701  -24.6980 H   0  0  0  0  0  0
    3.0725    1.2762  -22.7871 H   0  0  0  0  0  0
    4.3229    0.6786  -23.9428 H   0  0  0  0  0  0
    4.8423    0.0202  -21.5839 H   0  0  0  0  0  0
    7.6519    2.9275  -22.4682 H   0  0  0  0  0  0
    3.9648    2.4942  -20.7528 H   0  0  0  0  0  0
    5.2628    1.5302  -19.8462 H   0  0  0  0  0  0
   -1.5582    3.3380  -26.9247 H   0  0  0  0  0  0
    0.2716    1.9898  -20.8027 H   0  0  0  0  0  0
    7.1032    0.6770  -21.6793 H   0  0  0  0  0  0
   -2.9829    3.4226  -28.3727 H   0  0  0  0  0  0
    4.2040    7.1690  -20.9760 N   0  0  1  0  0  0
    8.0730    9.2320  -21.9250 N   0  0  0  0  0  0
    7.2800   10.1450  -22.5290 N   0  0  0  0  0  0
    4.7490    8.4600  -20.4200 C   0  0  0  0  0  0
    3.4350    7.2970  -22.2640 C   0  0  0  0  0  0
    7.2320    8.5440  -21.1120 C   0  0  0  0  0  0
    6.0500   10.0100  -22.1080 C   0  0  0  0  0  0
    5.9640    8.9700  -21.1760 C   0  0  0  0  0  0
    5.0198    6.4892  -21.1729 H   0  0  0  0  0  0
    9.0787    9.1980  -22.1449 H   0  0  0  0  0  0
    5.0101    8.3209  -19.3605 H   0  0  0  0  0  0
    3.9604    9.2267  -20.4370 H   0  0  0  0  0  0
    4.0815    7.7426  -23.0344 H   0  0  0  0  0  0
    2.5805    7.9736  -22.1151 H   0  0  0  0  0  0
    7.6131    7.7369  -20.4969 H   0  0  0  0  0  0
    5.2731   10.6629  -22.4890 H   0  0  0  0  0  0
  1  2  2  0  0  0
  1  3  1  0  0  0
  1 34  1  0  0  0
  2  6  1  0  0  0
  2 35  1  0  0  0
  3  5  2  0  0  0
  3 27  1  0  0  0
  4  5  1  0  0  0
  4  6  2  0  0  0
  4 18  1  0  0  0
  5 24  1  0  0  0
  6 10  1  0  0  0
  7 10  2  0  0  0
  7 23  1  0  0  0
  7 33  1  0  0  0
  8 21  1  0  0  0
  8 22  1  0  0  0
  8 36  1  0  0  0
  8 37  1  0  0  0
  9 21  1  0  0  0
  9 31  1  0  0  0
  9 38  1  0  0  0
  9 39  1  0  0  0
 10 40  1  0  0  0
 11 12  1  0  0  0
 11 14  2  0  0  0
 11 15  1  0  0  0
 12 17  1  0  0  0
 12 28  2  0  0  0
 13 28  1  0  0  0
 13 29  2  0  0  0
 13 56  1  0  0  0
 14 29  1  0  0  0
 14 31  1  0  0  0
 15 30  2  0  0  0
 15 41  1  0  0  0
 16 17  2  0  0  0
 16 18  1  0  0  0
 16 30  1  0  0  0
 17 26  1  0  0  0
 18 23  2  0  0  0
 19 20  1  0  0  0
 19 31  1  0  0  0
 19 42  1  0  0  0
 19 43  1  0  0  0
 20 22  1  0  0  0
 20 32  1  0  0  0
 20 44  1  0  0  0
 21 32  1  0  0  0
 21 45  1  0  0  0
 22 46  1  0  0  0
 22 47  1  0  0  0
 23 48  1  0  0  0
 24 25  3  0  0  0
 25 49  1  0  0  0
 32 50  1  0  0  0
 33 51  1  0  0  0
 52 55  1  0  0  0
 52 56  1  0  0  0
 52 60  1  0  0  0
 53 54  1  0  0  0
 53 57  1  0  0  0
 53 61  1  0  0  0
 54 58  2  0  0  0
 55 59  1  0  0  0
 55 62  1  0  0  0
 55 63  1  0  0  0
 56 64  1  0  0  0
 56 65  1  0  0  0
 57 59  2  0  0  0
 57 66  1  0  0  0
 58 59  1  0  0  0
 58 67  1  0  0  0
M  END
> <s_m_entry_id>
384

> <s_m_entry_name>
000000384.1

> <s_m_Source_Path>
/Users/zaksoul/Documents/2

> <s_m_Source_File>
000000384.mol2

> <i_m_Source_File_Index>
1

$$$$
No_0_408
                    3D
 Schrodinger Suite 2022-4.
 67 73  0  0  1  0            999 V2000
   -5.4410    3.3520  -21.8980 C   0  0  0  0  0  0
   -5.7170    3.5110  -23.2350 C   0  0  0  0  0  0
   -4.1980    3.1180  -21.5600 C   0  0  0  0  0  0
   -3.3220    3.2090  -23.7340 C   0  0  0  0  0  0
   -3.1490    2.9950  -22.3100 C   0  0  0  0  0  0
   -4.6760    3.4480  -24.2510 C   0  0  0  0  0  0
   -3.9350    3.4330  -26.4540 C   0  0  0  0  0  0
    5.8350    2.8980  -21.2420 C   0  0  0  0  0  0
    5.6780    2.9880  -23.7930 C   0  0  0  0  0  0
   -4.9370    3.5470  -25.5870 C   0  0  0  0  0  0
    1.8890    3.4990  -23.7950 C   0  0  0  0  0  0
    1.0590    4.6050  -23.5130 C   0  0  0  0  0  0
    2.8500    5.8320  -22.8690 C   0  0  0  0  0  0
    3.2890    3.7100  -23.4960 C   0  0  0  0  0  0
    1.3490    2.3640  -24.4300 C   0  0  0  0  0  0
   -0.7860    3.1590  -24.3210 C   0  0  0  0  0  0
   -0.2670    4.3960  -23.7500 C   0  0  0  0  0  0
   -2.2410    3.1440  -24.6660 C   0  0  0  0  0  0
    3.9210    1.2240  -23.1580 C   0  0  0  0  0  0
    4.8660    0.9000  -22.0110 C   0  0  2  0  0  0
    6.4400    2.4450  -22.5890 C   0  0  2  0  0  0
    4.8460    1.9240  -20.8640 C   0  0  0  0  0  0
   -2.5770    3.2710  -26.0940 C   0  0  0  0  0  0
   -1.7970    2.6060  -21.7130 C   0  0  0  0  0  0
   -0.7600    2.2790  -21.2070 C   0  0  0  0  0  0
   -1.1160    5.4390  -23.4210 F   0  0  0  0  0  0
   -3.9760    2.9050  -20.1750 F   0  0  0  0  0  0
    1.5280    5.7790  -23.0080 N   0  0  0  0  0  0
    3.7540    4.8740  -23.0760 N   0  0  0  0  0  0
    0.0410    2.2560  -24.7250 N   0  0  0  0  0  0
    4.2160    2.6670  -23.6580 N   0  0  0  0  0  0
    6.2680    0.9710  -22.5040 N   0  0  1  0  0  0
   -4.1180    3.4190  -27.8430 O   0  0  0  0  0  0
   -6.2383    3.4223  -21.1670 H   0  0  0  0  0  0
   -6.7355    3.6896  -23.5601 H   0  0  0  0  0  0
    5.3544    3.8794  -21.3682 H   0  0  0  0  0  0
    6.6265    2.9313  -20.4788 H   0  0  0  0  0  0
    6.0705    2.5289  -24.7123 H   0  0  0  0  0  0
    5.8102    4.0786  -23.8485 H   0  0  0  0  0  0
   -5.9515    3.7146  -25.9302 H   0  0  0  0  0  0
    1.9944    1.5360  -24.7000 H   0  0  0  0  0  0
    2.8809    1.1645  -22.8049 H   0  0  0  0  0  0
    4.0845    0.5113  -23.9798 H   0  0  0  0  0  0
    4.6540   -0.1066  -21.6213 H   0  0  0  0  0  0
    7.5056    2.7114  -22.6485 H   0  0  0  0  0  0
    3.8582    2.4063  -20.8236 H   0  0  0  0  0  0
    5.1569    1.4324  -19.9303 H   0  0  0  0  0  0
   -1.8127    3.2439  -26.8623 H   0  0  0  0  0  0
    0.1530    1.9900  -20.7620 H   0  0  0  0  0  0
    6.9259    0.4939  -21.7927 H   0  0  0  0  0  0
   -3.2752    3.3300  -28.2723 H   0  0  0  0  0  0
    4.4290    7.0340  -21.3430 N   0  0  1  0  0  0
    7.9350    9.3080  -22.9740 N   0  0  0  0  0  0
    7.0020   10.2100  -23.3480 N   0  0  0  0  0  0
    5.0350    8.3220  -20.8460 C   0  0  0  0  0  0
    3.3990    7.1850  -22.4320 C   0  0  0  0  0  0
    7.3100    8.5460  -22.0410 C   0  0  0  0  0  0
    5.8950   10.0020  -22.6850 C   0  0  0  0  0  0
    6.0440    8.9190  -21.8120 C   0  0  0  0  0  0
    5.2062    6.3998  -21.7431 H   0  0  0  0  0  0
    8.8717    9.3280  -23.4019 H   0  0  0  0  0  0
    5.5202    8.1459  -19.8746 H   0  0  0  0  0  0
    4.2356    9.0533  -20.6559 H   0  0  0  0  0  0
    3.8520    7.6930  -23.2961 H   0  0  0  0  0  0
    2.5742    7.8159  -22.0691 H   0  0  0  0  0  0
    7.8411    7.7309  -21.5629 H   0  0  0  0  0  0
    5.0334   10.6367  -22.8579 H   0  0  0  0  0  0
  1  2  2  0  0  0
  1  3  1  0  0  0
  1 34  1  0  0  0
  2  6  1  0  0  0
  2 35  1  0  0  0
  3  5  2  0  0  0
  3 27  1  0  0  0
  4  5  1  0  0  0
  4  6  2  0  0  0
  4 18  1  0  0  0
  5 24  1  0  0  0
  6 10  1  0  0  0
  7 10  2  0  0  0
  7 23  1  0  0  0
  7 33  1  0  0  0
  8 21  1  0  0  0
  8 22  1  0  0  0
  8 36  1  0  0  0
  8 37  1  0  0  0
  9 21  1  0  0  0
  9 31  1  0  0  0
  9 38  1  0  0  0
  9 39  1  0  0  0
 10 40  1  0  0  0
 11 12  1  0  0  0
 11 14  2  0  0  0
 11 15  1  0  0  0
 12 17  1  0  0  0
 12 28  2  0  0  0
 13 28  1  0  0  0
 13 29  2  0  0  0
 13 56  1  0  0  0
 14 29  1  0  0  0
 14 31  1  0  0  0
 15 30  2  0  0  0
 15 41  1  0  0  0
 16 17  2  0  0  0
 16 18  1  0  0  0
 16 30  1  0  0  0
 17 26  1  0  0  0
 18 23  2  0  0  0
 19 20  1  0  0  0
 19 31  1  0  0  0
 19 42  1  0  0  0
 19 43  1  0  0  0
 20 22  1  0  0  0
 20 32  1  0  0  0
 20 44  1  0  0  0
 21 32  1  0  0  0
 21 45  1  0  0  0
 22 46  1  0  0  0
 22 47  1  0  0  0
 23 48  1  0  0  0
 24 25  3  0  0  0
 25 49  1  0  0  0
 32 50  1  0  0  0
 33 51  1  0  0  0
 52 55  1  0  0  0
 52 56  1  0  0  0
 52 60  1  0  0  0
 53 54  1  0  0  0
 53 57  1  0  0  0
 53 61  1  0  0  0
 54 58  2  0  0  0
 55 59  1  0  0  0
 55 62  1  0  0  0
 55 63  1  0  0  0
 56 64  1  0  0  0
 56 65  1  0  0  0
 57 59  2  0  0  0
 57 66  1  0  0  0
 58 59  1  0  0  0
 58 67  1  0  0  0
M  END
> <s_m_entry_id>
385

> <s_m_entry_name>
000000385.1

> <s_m_Source_Path>
/Users/zaksoul/Documents/2

> <s_m_Source_File>
000000385.mol2

> <i_m_Source_File_Index>
1

$$$$
No_0_409
                    3D
 Schrodinger Suite 2022-4.
 67 73  0  0  1  0            999 V2000
   -5.2790    3.3470  -22.3180 C   0  0  0  0  0  0
   -5.5130    3.5610  -23.6560 C   0  0  0  0  0  0
   -4.0500    3.0840  -21.9520 C   0  0  0  0  0  0
   -3.1070    3.2470  -24.0930 C   0  0  0  0  0  0
   -2.9810    2.9760  -22.6740 C   0  0  0  0  0  0
   -4.4410    3.5230  -24.6420 C   0  0  0  0  0  0
   -3.6330    3.5830  -26.8200 C   0  0  0  0  0  0
    5.9650    2.7230  -21.3360 C   0  0  0  0  0  0
    5.8880    2.9120  -23.8850 C   0  0  0  0  0  0
   -4.6590    3.6760  -25.9800 C   0  0  0  0  0  0
    2.1060    3.4720  -23.9840 C   0  0  0  0  0  0
    1.2810    4.5770  -23.6840 C   0  0  0  0  0  0
    3.0650    5.7550  -22.9390 C   0  0  0  0  0  0
    3.4990    3.6530  -23.6330 C   0  0  0  0  0  0
    1.5730    2.3690  -24.6780 C   0  0  0  0  0  0
   -0.5540    3.1860  -24.6040 C   0  0  0  0  0  0
   -0.0390    4.3940  -23.9700 C   0  0  0  0  0  0
   -1.9980    3.2030  -24.9930 C   0  0  0  0  0  0
    4.0910    1.1480  -23.3730 C   0  0  0  0  0  0
    4.9960    0.7680  -22.2110 C   0  0  2  0  0  0
    6.6050    2.3140  -22.6810 C   0  0  2  0  0  0
    4.9520    1.7480  -21.0260 C   0  0  0  0  0  0
   -2.2890    3.3900  -26.4250 C   0  0  0  0  0  0
   -1.6530    2.5480  -22.0510 C   0  0  0  0  0  0
   -0.6350    2.1880  -21.5270 C   0  0  0  0  0  0
   -0.8860    5.4350  -23.6270 F   0  0  0  0  0  0
   -3.8740    2.8150  -20.5700 F   0  0  0  0  0  0
    1.7480    5.7250  -23.1200 N   0  0  0  0  0  0
    3.9640    4.7940  -23.1550 N   0  0  0  0  0  0
    0.2740    2.2890  -25.0160 N   0  0  0  0  0  0
    4.4180    2.6050  -23.8080 N   0  0  0  0  0  0
    6.4140    0.8400  -22.6580 N   0  0  1  0  0  0
   -3.7720    3.6240  -28.2130 O   0  0  0  0  0  0
   -6.0983    3.3992  -21.6101 H   0  0  0  0  0  0
   -6.5187    3.7648  -24.0053 H   0  0  0  0  0  0
    5.4988    3.7140  -21.4389 H   0  0  0  0  0  0
    6.7321    2.7169  -20.5477 H   0  0  0  0  0  0
    6.3035    2.4833  -24.8089 H   0  0  0  0  0  0
    6.0344    4.0022  -23.8951 H   0  0  0  0  0  0
   -5.6603    3.8696  -26.3472 H   0  0  0  0  0  0
    2.2162    1.5432  -24.9599 H   0  0  0  0  0  0
    3.0399    1.0885  -23.0542 H   0  0  0  0  0  0
    4.2717    0.4646  -24.2158 H   0  0  0  0  0  0
    4.7598   -0.2497  -21.8667 H   0  0  0  0  0  0
    7.6751    2.5684  -22.6972 H   0  0  0  0  0  0
    3.9693    2.2414  -20.9977 H   0  0  0  0  0  0
    5.2286    1.2170  -20.1032 H   0  0  0  0  0  0
   -1.5012    3.3820  -27.1696 H   0  0  0  0  0  0
    0.2601    1.8710  -21.0650 H   0  0  0  0  0  0
    7.0432    0.3275  -21.9454 H   0  0  0  0  0  0
   -2.9174    3.5409  -28.6195 H   0  0  0  0  0  0
    4.8520    6.8820  -21.5960 N   0  0  1  0  0  0
    7.8260    9.6180  -23.5420 N   0  0  0  0  0  0
    6.7890   10.4810  -23.6000 N   0  0  0  0  0  0
    5.4750    8.1430  -21.0520 C   0  0  0  0  0  0
    3.6170    7.0830  -22.4330 C   0  0  0  0  0  0
    7.4460    8.6980  -22.6200 C   0  0  0  0  0  0
    5.8510   10.1030  -22.7720 C   0  0  0  0  0  0
    6.2330    8.9350  -22.1030 C   0  0  0  0  0  0
    5.5662    6.3679  -22.2221 H   0  0  0  0  0  0
    8.6543    9.7679  -24.1355 H   0  0  0  0  0  0
    6.1551    7.8880  -20.2259 H   0  0  0  0  0  0
    4.6914    8.7767  -20.6112 H   0  0  0  0  0  0
    3.8569    7.7298  -23.2898 H   0  0  0  0  0  0
    2.8484    7.5948  -21.8353 H   0  0  0  0  0  0
    8.1060    7.8750  -22.3710 H   0  0  0  0  0  0
    4.9387   10.6822  -22.6860 H   0  0  0  0  0  0
  1  2  2  0  0  0
  1  3  1  0  0  0
  1 34  1  0  0  0
  2  6  1  0  0  0
  2 35  1  0  0  0
  3  5  2  0  0  0
  3 27  1  0  0  0
  4  5  1  0  0  0
  4  6  2  0  0  0
  4 18  1  0  0  0
  5 24  1  0  0  0
  6 10  1  0  0  0
  7 10  2  0  0  0
  7 23  1  0  0  0
  7 33  1  0  0  0
  8 21  1  0  0  0
  8 22  1  0  0  0
  8 36  1  0  0  0
  8 37  1  0  0  0
  9 21  1  0  0  0
  9 31  1  0  0  0
  9 38  1  0  0  0
  9 39  1  0  0  0
 10 40  1  0  0  0
 11 12  1  0  0  0
 11 14  2  0  0  0
 11 15  1  0  0  0
 12 17  1  0  0  0
 12 28  2  0  0  0
 13 28  1  0  0  0
 13 29  2  0  0  0
 13 56  1  0  0  0
 14 29  1  0  0  0
 14 31  1  0  0  0
 15 30  2  0  0  0
 15 41  1  0  0  0
 16 17  2  0  0  0
 16 18  1  0  0  0
 16 30  1  0  0  0
 17 26  1  0  0  0
 18 23  2  0  0  0
 19 20  1  0  0  0
 19 31  1  0  0  0
 19 42  1  0  0  0
 19 43  1  0  0  0
 20 22  1  0  0  0
 20 32  1  0  0  0
 20 44  1  0  0  0
 21 32  1  0  0  0
 21 45  1  0  0  0
 22 46  1  0  0  0
 22 47  1  0  0  0
 23 48  1  0  0  0
 24 25  3  0  0  0
 25 49  1  0  0  0
 32 50  1  0  0  0
 33 51  1  0  0  0
 52 55  1  0  0  0
 52 56  1  0  0  0
 52 60  1  0  0  0
 53 54  1  0  0  0
 53 57  1  0  0  0
 53 61  1  0  0  0
 54 58  2  0  0  0
 55 59  1  0  0  0
 55 62  1  0  0  0
 55 63  1  0  0  0
 56 64  1  0  0  0
 56 65  1  0  0  0
 57 59  2  0  0  0
 57 66  1  0  0  0
 58 59  1  0  0  0
 58 67  1  0  0  0
M  END
> <s_m_entry_id>
386

> <s_m_entry_name>
000000386.1

> <s_m_Source_Path>
/Users/zaksoul/Documents/2

> <s_m_Source_File>
000000386.mol2

> <i_m_Source_File_Index>
1

$$$$
No_0_410
                    3D
 Schrodinger Suite 2022-4.
 67 73  0  0  1  0            999 V2000
   -5.5610    3.2440  -22.2540 C   0  0  0  0  0  0
   -5.7880    3.4690  -23.5910 C   0  0  0  0  0  0
   -4.3290    3.0030  -21.8810 C   0  0  0  0  0  0
   -3.3720    3.2130  -24.0110 C   0  0  0  0  0  0
   -3.2520    2.9280  -22.5940 C   0  0  0  0  0  0
   -4.7070    3.4670  -24.5680 C   0  0  0  0  0  0
   -3.8830    3.5710  -26.7380 C   0  0  0  0  0  0
    5.6860    2.8520  -21.1850 C   0  0  0  0  0  0
    5.6260    3.0710  -23.7320 C   0  0  0  0  0  0
   -4.9180    3.6320  -25.9060 C   0  0  0  0  0  0
    1.8340    3.5500  -23.8550 C   0  0  0  0  0  0
    0.9820    4.6330  -23.5490 C   0  0  0  0  0  0
    2.7340    5.8400  -22.7750 C   0  0  0  0  0  0
    3.2190    3.7570  -23.4910 C   0  0  0  0  0  0
    1.3310    2.4440  -24.5680 C   0  0  0  0  0  0
   -0.8150    3.2140  -24.5020 C   0  0  0  0  0  0
   -0.3310    4.4250  -23.8490 C   0  0  0  0  0  0
   -2.2550    3.2050  -24.9020 C   0  0  0  0  0  0
    3.8640    1.2620  -23.2560 C   0  0  0  0  0  0
    4.7670    0.8880  -22.0910 C   0  0  2  0  0  0
    6.3460    2.4740  -22.5290 C   0  0  2  0  0  0
    4.6930    1.8520  -20.8960 C   0  0  0  0  0  0
   -2.5380    3.4030  -26.3350 C   0  0  0  0  0  0
   -1.9200    2.5210  -21.9660 C   0  0  0  0  0  0
   -0.8990    2.1760  -21.4370 C   0  0  0  0  0  0
   -1.2030    5.4430  -23.5000 F   0  0  0  0  0  0
   -4.1580    2.7220  -20.5000 F   0  0  0  0  0  0
    1.4200    5.7840  -22.9670 N   0  0  0  0  0  0
    3.6560    4.9010  -22.9950 N   0  0  0  0  0  0
    0.0360    2.3400  -24.9180 N   0  0  0  0  0  0
    4.1630    2.7320  -23.6700 N   0  0  0  0  0  0
    6.1870    0.9960  -22.5260 N   0  0  1  0  0  0
   -4.0120    3.6260  -28.1320 O   0  0  0  0  0  0
   -6.3861    3.2701  -21.5514 H   0  0  0  0  0  0
   -6.7952    3.6558  -23.9455 H   0  0  0  0  0  0
    5.1995    3.8340  -21.2799 H   0  0  0  0  0  0
    6.4470    2.8530  -20.3907 H   0  0  0  0  0  0
    6.0581    2.6632  -24.6577 H   0  0  0  0  0  0
    5.7490    4.1641  -23.7270 H   0  0  0  0  0  0
   -5.9206    3.8086  -26.2783 H   0  0  0  0  0  0
    1.9945    1.6359  -24.8541 H   0  0  0  0  0  0
    2.8117    1.1762  -22.9473 H   0  0  0  0  0  0
    4.0658    0.5941  -24.1065 H   0  0  0  0  0  0
    4.5509   -0.1391  -21.7618 H   0  0  0  0  0  0
    7.4104    2.7515  -22.5330 H   0  0  0  0  0  0
    3.6994    2.3231  -20.8688 H   0  0  0  0  0  0
    4.9735    1.3152  -19.9778 H   0  0  0  0  0  0
   -1.7440    3.4211  -27.0728 H   0  0  0  0  0  0
   -0.0003    1.8728  -20.9727 H   0  0  0  0  0  0
    6.8209    0.4883  -21.8141 H   0  0  0  0  0  0
   -3.1525    3.5676  -28.5326 H   0  0  0  0  0  0
    4.6570    7.0480  -21.7210 N   0  0  1  0  0  0
    6.8400   10.2870  -23.9260 N   0  0  0  0  0  0
    5.7360   11.0210  -23.6630 N   0  0  0  0  0  0
    5.2600    8.3200  -21.1800 C   0  0  0  0  0  0
    3.2530    7.1740  -22.2480 C   0  0  0  0  0  0
    6.7670    9.2490  -23.0560 C   0  0  0  0  0  0
    5.0490   10.4590  -22.7040 C   0  0  0  0  0  0
    5.6830    9.2900  -22.2700 C   0  0  0  0  0  0
    5.2599    6.6820  -22.5389 H   0  0  0  0  0  0
    7.4957   10.5889  -24.6607 H   0  0  0  0  0  0
    6.1290    8.0740  -20.5520 H   0  0  0  0  0  0
    4.5359    8.8120  -20.5139 H   0  0  0  0  0  0
    3.2310    7.9200  -23.0560 H   0  0  0  0  0  0
    2.5911    7.5330  -21.4461 H   0  0  0  0  0  0
    7.5424    8.4916  -23.0490 H   0  0  0  0  0  0
    4.1272   10.9139  -22.3601 H   0  0  0  0  0  0
  1  2  2  0  0  0
  1  3  1  0  0  0
  1 34  1  0  0  0
  2  6  1  0  0  0
  2 35  1  0  0  0
  3  5  2  0  0  0
  3 27  1  0  0  0
  4  5  1  0  0  0
  4  6  2  0  0  0
  4 18  1  0  0  0
  5 24  1  0  0  0
  6 10  1  0  0  0
  7 10  2  0  0  0
  7 23  1  0  0  0
  7 33  1  0  0  0
  8 21  1  0  0  0
  8 22  1  0  0  0
  8 36  1  0  0  0
  8 37  1  0  0  0
  9 21  1  0  0  0
  9 31  1  0  0  0
  9 38  1  0  0  0
  9 39  1  0  0  0
 10 40  1  0  0  0
 11 12  1  0  0  0
 11 14  2  0  0  0
 11 15  1  0  0  0
 12 17  1  0  0  0
 12 28  2  0  0  0
 13 28  1  0  0  0
 13 29  2  0  0  0
 13 56  1  0  0  0
 14 29  1  0  0  0
 14 31  1  0  0  0
 15 30  2  0  0  0
 15 41  1  0  0  0
 16 17  2  0  0  0
 16 18  1  0  0  0
 16 30  1  0  0  0
 17 26  1  0  0  0
 18 23  2  0  0  0
 19 20  1  0  0  0
 19 31  1  0  0  0
 19 42  1  0  0  0
 19 43  1  0  0  0
 20 22  1  0  0  0
 20 32  1  0  0  0
 20 44  1  0  0  0
 21 32  1  0  0  0
 21 45  1  0  0  0
 22 46  1  0  0  0
 22 47  1  0  0  0
 23 48  1  0  0  0
 24 25  3  0  0  0
 25 49  1  0  0  0
 32 50  1  0  0  0
 33 51  1  0  0  0
 52 55  1  0  0  0
 52 56  1  0  0  0
 52 60  1  0  0  0
 53 54  1  0  0  0
 53 57  1  0  0  0
 53 61  1  0  0  0
 54 58  2  0  0  0
 55 59  1  0  0  0
 55 62  1  0  0  0
 55 63  1  0  0  0
 56 64  1  0  0  0
 56 65  1  0  0  0
 57 59  2  0  0  0
 57 66  1  0  0  0
 58 59  1  0  0  0
 58 67  1  0  0  0
M  END
> <s_m_entry_id>
387

> <s_m_entry_name>
000000387.1

> <s_m_Source_Path>
/Users/zaksoul/Documents/2

> <s_m_Source_File>
000000387.mol2

> <i_m_Source_File_Index>
1

$$$$
No_0_411
                    3D
 Schrodinger Suite 2022-4.
 67 73  0  0  1  0            999 V2000
   -5.2270    3.5020  -21.7810 C   0  0  0  0  0  0
   -5.4950    3.7070  -23.1140 C   0  0  0  0  0  0
   -3.9860    3.2580  -21.4440 C   0  0  0  0  0  0
   -3.0960    3.4250  -23.6070 C   0  0  0  0  0  0
   -2.9320    3.1620  -22.1900 C   0  0  0  0  0  0
   -4.4460    3.6800  -24.1250 C   0  0  0  0  0  0
   -3.6920    3.7410  -26.3220 C   0  0  0  0  0  0
    6.0450    3.0420  -21.0660 C   0  0  0  0  0  0
    5.9050    3.2190  -23.6140 C   0  0  0  0  0  0
   -4.6990    3.8230  -25.4580 C   0  0  0  0  0  0
    2.1140    3.7240  -23.6240 C   0  0  0  0  0  0
    1.2810    4.8190  -23.3090 C   0  0  0  0  0  0
    3.0660    6.0250  -22.6120 C   0  0  0  0  0  0
    3.5130    3.9260  -23.3080 C   0  0  0  0  0  0
    1.5810    2.6110  -24.3010 C   0  0  0  0  0  0
   -0.5560    3.3980  -24.1790 C   0  0  0  0  0  0
   -0.0430    4.6160  -23.5630 C   0  0  0  0  0  0
   -2.0090    3.3930  -24.5330 C   0  0  0  0  0  0
    4.1460    1.4320  -23.0510 C   0  0  0  0  0  0
    5.0840    1.0700  -21.9090 C   0  0  2  0  0  0
    6.6590    2.6360  -22.4240 C   0  0  2  0  0  0
    5.0550    2.0540  -20.7280 C   0  0  0  0  0  0
   -2.3360    3.5690  -25.9590 C   0  0  0  0  0  0
   -1.5840    2.7560  -21.5970 C   0  0  0  0  0  0
   -0.5490    2.4120  -21.0960 C   0  0  0  0  0  0
   -0.8960    5.6460  -23.2030 F   0  0  0  0  0  0
   -3.7720    2.9980  -20.0650 F   0  0  0  0  0  0
    1.7450    5.9760  -22.7610 N   0  0  0  0  0  0
    3.9730    5.0760  -22.8460 N   0  0  0  0  0  0
    0.2750    2.5110  -24.6070 N   0  0  0  0  0  0
    4.4420    2.8910  -23.4990 N   0  0  0  0  0  0
    6.4900    1.1600  -22.3910 N   0  0  1  0  0  0
   -3.8650    3.7740  -27.7120 O   0  0  0  0  0  0
   -6.0291    3.5462  -21.0532 H   0  0  0  0  0  0
   -6.5119    3.8947  -23.4392 H   0  0  0  0  0  0
    5.5634    4.0263  -21.1619 H   0  0  0  0  0  0
    6.8313    3.0501  -20.2968 H   0  0  0  0  0  0
    6.3047    2.7920  -24.5456 H   0  0  0  0  0  0
    6.0362    4.3110  -23.6312 H   0  0  0  0  0  0
   -5.7113    4.0016  -25.8021 H   0  0  0  0  0  0
    2.2293    1.7931  -24.5940 H   0  0  0  0  0  0
    3.1042    1.3583  -22.7057 H   0  0  0  0  0  0
    4.3165    0.7480  -23.8954 H   0  0  0  0  0  0
    4.8710    0.0503  -21.5556 H   0  0  0  0  0  0
    7.7246    2.9054  -22.4664 H   0  0  0  0  0  0
    4.0662    2.5333  -20.6775 H   0  0  0  0  0  0
    5.3610    1.5309  -19.8100 H   0  0  0  0  0  0
   -1.5660    3.5690  -26.7220 H   0  0  0  0  0  0
    0.3618    2.1101  -20.6551 H   0  0  0  0  0  0
    7.1434    0.6596  -21.6917 H   0  0  0  0  0  0
   -3.0192    3.7008  -28.1384 H   0  0  0  0  0  0
    5.0870    7.4870  -22.3940 N   0  0  1  0  0  0
    5.3700   11.3810  -24.6030 N   0  0  0  0  0  0
    4.4840   11.8120  -23.6790 N   0  0  0  0  0  0
    5.7170    8.7820  -21.9500 C   0  0  0  0  0  0
    3.6100    7.3640  -22.1250 C   0  0  0  0  0  0
    5.8930   10.2510  -24.0630 C   0  0  0  0  0  0
    4.4750   10.9960  -22.6580 C   0  0  0  0  0  0
    5.3840    9.9510  -22.8610 C   0  0  0  0  0  0
    5.2140    7.3700  -23.4601 H   0  0  0  0  0  0
    5.5031   11.9103  -25.4765 H   0  0  0  0  0  0
    6.8089    8.6590  -21.8990 H   0  0  0  0  0  0
    5.3920    9.0140  -20.9250 H   0  0  0  0  0  0
    3.0766    8.1826  -22.6304 H   0  0  0  0  0  0
    3.4250    7.4630  -21.0452 H   0  0  0  0  0  0
    6.6467    9.6902  -24.6038 H   0  0  0  0  0  0
    3.8188   11.1880  -21.8168 H   0  0  0  0  0  0
  1  2  2  0  0  0
  1  3  1  0  0  0
  1 34  1  0  0  0
  2  6  1  0  0  0
  2 35  1  0  0  0
  3  5  2  0  0  0
  3 27  1  0  0  0
  4  5  1  0  0  0
  4  6  2  0  0  0
  4 18  1  0  0  0
  5 24  1  0  0  0
  6 10  1  0  0  0
  7 10  2  0  0  0
  7 23  1  0  0  0
  7 33  1  0  0  0
  8 21  1  0  0  0
  8 22  1  0  0  0
  8 36  1  0  0  0
  8 37  1  0  0  0
  9 21  1  0  0  0
  9 31  1  0  0  0
  9 38  1  0  0  0
  9 39  1  0  0  0
 10 40  1  0  0  0
 11 12  1  0  0  0
 11 14  2  0  0  0
 11 15  1  0  0  0
 12 17  1  0  0  0
 12 28  2  0  0  0
 13 28  1  0  0  0
 13 29  2  0  0  0
 13 56  1  0  0  0
 14 29  1  0  0  0
 14 31  1  0  0  0
 15 30  2  0  0  0
 15 41  1  0  0  0
 16 17  2  0  0  0
 16 18  1  0  0  0
 16 30  1  0  0  0
 17 26  1  0  0  0
 18 23  2  0  0  0
 19 20  1  0  0  0
 19 31  1  0  0  0
 19 42  1  0  0  0
 19 43  1  0  0  0
 20 22  1  0  0  0
 20 32  1  0  0  0
 20 44  1  0  0  0
 21 32  1  0  0  0
 21 45  1  0  0  0
 22 46  1  0  0  0
 22 47  1  0  0  0
 23 48  1  0  0  0
 24 25  3  0  0  0
 25 49  1  0  0  0
 32 50  1  0  0  0
 33 51  1  0  0  0
 52 55  1  0  0  0
 52 56  1  0  0  0
 52 60  1  0  0  0
 53 54  1  0  0  0
 53 57  1  0  0  0
 53 61  1  0  0  0
 54 58  2  0  0  0
 55 59  1  0  0  0
 55 62  1  0  0  0
 55 63  1  0  0  0
 56 64  1  0  0  0
 56 65  1  0  0  0
 57 59  2  0  0  0
 57 66  1  0  0  0
 58 59  1  0  0  0
 58 67  1  0  0  0
M  END
> <s_m_entry_id>
388

> <s_m_entry_name>
000000388.1

> <s_m_Source_Path>
/Users/zaksoul/Documents/2

> <s_m_Source_File>
000000388.mol2

> <i_m_Source_File_Index>
1

$$$$
No_0_412
                    3D
 Schrodinger Suite 2022-4.
 67 73  0  0  1  0            999 V2000
   -5.2820    3.3910  -22.0990 C   0  0  0  0  0  0
   -5.5150    3.5810  -23.4400 C   0  0  0  0  0  0
   -4.0470    3.1710  -21.7240 C   0  0  0  0  0  0
   -3.0980    3.3380  -23.8620 C   0  0  0  0  0  0
   -2.9710    3.0890  -22.4390 C   0  0  0  0  0  0
   -4.4370    3.5660  -24.4200 C   0  0  0  0  0  0
   -3.6200    3.6240  -26.5950 C   0  0  0  0  0  0
    5.9710    3.1340  -21.0550 C   0  0  0  0  0  0
    5.9010    3.2900  -23.6060 C   0  0  0  0  0  0
   -4.6530    3.6950  -25.7610 C   0  0  0  0  0  0
    2.1050    3.7290  -23.7300 C   0  0  0  0  0  0
    1.2440    4.8110  -23.4480 C   0  0  0  0  0  0
    2.9860    6.0530  -22.7090 C   0  0  0  0  0  0
    3.4890    3.9570  -23.3750 C   0  0  0  0  0  0
    1.6100    2.6010  -24.4130 C   0  0  0  0  0  0
   -0.5420    3.3520  -24.3590 C   0  0  0  0  0  0
   -0.0680    4.5830  -23.7380 C   0  0  0  0  0  0
   -1.9840    3.3190  -24.7560 C   0  0  0  0  0  0
    4.1580    1.4760  -23.0810 C   0  0  0  0  0  0
    5.0680    1.1390  -21.9100 C   0  0  2  0  0  0
    6.6310    2.7290  -22.3910 C   0  0  2  0  0  0
    4.9880    2.1320  -20.7380 C   0  0  0  0  0  0
   -2.2730    3.4790  -26.1920 C   0  0  0  0  0  0
   -1.6330    2.7100  -21.8040 C   0  0  0  0  0  0
   -0.6080    2.3890  -21.2710 C   0  0  0  0  0  0
   -0.9500    5.6010  -23.4120 F   0  0  0  0  0  0
   -3.8700    2.9260  -20.3370 F   0  0  0  0  0  0
    1.6710    5.9800  -22.8960 N   0  0  0  0  0  0
    3.9160    5.1180  -22.9090 N   0  0  0  0  0  0
    0.3160    2.4760  -24.7570 N   0  0  0  0  0  0
    4.4420    2.9380  -23.5320 N   0  0  0  0  0  0
    6.4860    1.2500  -22.3510 N   0  0  1  0  0  0
   -3.7530    3.6440  -27.9890 O   0  0  0  0  0  0
   -6.1059    3.4261  -21.3955 H   0  0  0  0  0  0
   -6.5248    3.7496  -23.7963 H   0  0  0  0  0  0
    5.4746    4.1086  -21.1720 H   0  0  0  0  0  0
    6.7338    3.1612  -20.2629 H   0  0  0  0  0  0
    6.3349    2.8632  -24.5223 H   0  0  0  0  0  0
    6.0140    4.3840  -23.6282 H   0  0  0  0  0  0
   -5.6580    3.8535  -26.1351 H   0  0  0  0  0  0
    2.2806    1.7929  -24.6820 H   0  0  0  0  0  0
    3.1078    1.3871  -22.7659 H   0  0  0  0  0  0
    4.3649    0.7887  -23.9146 H   0  0  0  0  0  0
    4.8631    0.1184  -21.5546 H   0  0  0  0  0  0
    7.6926    3.0166  -22.4051 H   0  0  0  0  0  0
    3.9896    2.5933  -20.7198 H   0  0  0  0  0  0
    5.2765    1.6205  -19.8079 H   0  0  0  0  0  0
   -1.4809    3.4860  -26.9319 H   0  0  0  0  0  0
    0.2945    2.1062  -20.8013 H   0  0  0  0  0  0
    7.1276    0.7666  -21.6292 H   0  0  0  0  0  0
   -2.8943    3.5827  -28.3907 H   0  0  0  0  0  0
    4.8660    7.7060  -22.7570 N   0  0  1  0  0  0
    4.3320   11.7560  -24.6100 N   0  0  0  0  0  0
    3.6180   12.0220  -23.4950 N   0  0  0  0  0  0
    5.4510    9.0280  -22.3280 C   0  0  0  0  0  0
    3.4930    7.4050  -22.2160 C   0  0  0  0  0  0
    5.0560   10.6540  -24.2900 C   0  0  0  0  0  0
    3.8920   11.1390  -22.5720 C   0  0  0  0  0  0
    4.8330   10.2160  -23.0440 C   0  0  0  0  0  0
    4.7830    7.6810  -23.8335 H   0  0  0  0  0  0
    4.2341   12.3587  -25.4395 H   0  0  0  0  0  0
    6.5370    9.0200  -22.5030 H   0  0  0  0  0  0
    5.3230    9.1490  -21.2422 H   0  0  0  0  0  0
    2.7939    8.1941  -22.5300 H   0  0  0  0  0  0
    3.5240    7.4060  -21.1164 H   0  0  0  0  0  0
    5.7317   10.2192  -25.0177 H   0  0  0  0  0  0
    3.4067   11.1970  -21.6044 H   0  0  0  0  0  0
  1  2  2  0  0  0
  1  3  1  0  0  0
  1 34  1  0  0  0
  2  6  1  0  0  0
  2 35  1  0  0  0
  3  5  2  0  0  0
  3 27  1  0  0  0
  4  5  1  0  0  0
  4  6  2  0  0  0
  4 18  1  0  0  0
  5 24  1  0  0  0
  6 10  1  0  0  0
  7 10  2  0  0  0
  7 23  1  0  0  0
  7 33  1  0  0  0
  8 21  1  0  0  0
  8 22  1  0  0  0
  8 36  1  0  0  0
  8 37  1  0  0  0
  9 21  1  0  0  0
  9 31  1  0  0  0
  9 38  1  0  0  0
  9 39  1  0  0  0
 10 40  1  0  0  0
 11 12  1  0  0  0
 11 14  2  0  0  0
 11 15  1  0  0  0
 12 17  1  0  0  0
 12 28  2  0  0  0
 13 28  1  0  0  0
 13 29  2  0  0  0
 13 56  1  0  0  0
 14 29  1  0  0  0
 14 31  1  0  0  0
 15 30  2  0  0  0
 15 41  1  0  0  0
 16 17  2  0  0  0
 16 18  1  0  0  0
 16 30  1  0  0  0
 17 26  1  0  0  0
 18 23  2  0  0  0
 19 20  1  0  0  0
 19 31  1  0  0  0
 19 42  1  0  0  0
 19 43  1  0  0  0
 20 22  1  0  0  0
 20 32  1  0  0  0
 20 44  1  0  0  0
 21 32  1  0  0  0
 21 45  1  0  0  0
 22 46  1  0  0  0
 22 47  1  0  0  0
 23 48  1  0  0  0
 24 25  3  0  0  0
 25 49  1  0  0  0
 32 50  1  0  0  0
 33 51  1  0  0  0
 52 55  1  0  0  0
 52 56  1  0  0  0
 52 60  1  0  0  0
 53 54  1  0  0  0
 53 57  1  0  0  0
 53 61  1  0  0  0
 54 58  2  0  0  0
 55 59  1  0  0  0
 55 62  1  0  0  0
 55 63  1  0  0  0
 56 64  1  0  0  0
 56 65  1  0  0  0
 57 59  2  0  0  0
 57 66  1  0  0  0
 58 59  1  0  0  0
 58 67  1  0  0  0
M  END
> <s_m_entry_id>
389

> <s_m_entry_name>
000000389.1

> <s_m_Source_Path>
/Users/zaksoul/Documents/2

> <s_m_Source_File>
000000389.mol2

> <i_m_Source_File_Index>
1

$$$$
No_0_413
                    3D
 Schrodinger Suite 2022-4.
 67 73  0  0  1  0            999 V2000
   -5.3300    3.5550  -21.8800 C   0  0  0  0  0  0
   -5.5540    3.7910  -23.2150 C   0  0  0  0  0  0
   -4.0980    3.3230  -21.5040 C   0  0  0  0  0  0
   -3.1340    3.5660  -23.6280 C   0  0  0  0  0  0
   -3.0170    3.2670  -22.2140 C   0  0  0  0  0  0
   -4.4700    3.8110  -24.1880 C   0  0  0  0  0  0
   -3.6380    3.9470  -26.3540 C   0  0  0  0  0  0
    5.9150    3.2740  -20.7670 C   0  0  0  0  0  0
    5.8630    3.5190  -23.3120 C   0  0  0  0  0  0
   -4.6770    3.9870  -25.5250 C   0  0  0  0  0  0
    2.0670    3.9580  -23.4460 C   0  0  0  0  0  0
    1.2020    5.0290  -23.1330 C   0  0  0  0  0  0
    2.9380    6.2460  -22.3390 C   0  0  0  0  0  0
    3.4490    4.1760  -23.0740 C   0  0  0  0  0  0
    1.5790    2.8540  -24.1730 C   0  0  0  0  0  0
   -0.5750    3.6000  -24.1070 C   0  0  0  0  0  0
   -0.1070    4.8090  -23.4400 C   0  0  0  0  0  0
   -2.0140    3.5790  -24.5150 C   0  0  0  0  0  0
    4.1190    1.6860  -22.8630 C   0  0  0  0  0  0
    5.0220    1.3100  -21.6980 C   0  0  2  0  0  0
    6.5850    2.9170  -22.1120 C   0  0  2  0  0  0
    4.9320    2.2600  -20.4920 C   0  0  0  0  0  0
   -2.2930    3.7890  -25.9460 C   0  0  0  0  0  0
   -1.6830    2.8680  -21.5840 C   0  0  0  0  0  0
   -0.6610    2.5290  -21.0550 C   0  0  0  0  0  0
   -0.9920    5.8140  -23.0840 F   0  0  0  0  0  0
   -3.9300    3.0290  -20.1260 F   0  0  0  0  0  0
    1.6250    6.1780  -22.5370 N   0  0  0  0  0  0
    3.8710    5.3200  -22.5650 N   0  0  0  0  0  0
    0.2870    2.7400  -24.5290 N   0  0  0  0  0  0
    4.4040    3.1630  -23.2600 N   0  0  0  0  0  0
    6.4420    1.4380  -22.1250 N   0  0  1  0  0  0
   -3.7610    4.0150  -27.7470 O   0  0  0  0  0  0
   -6.1589    3.5640  -21.1815 H   0  0  0  0  0  0
   -6.5615    3.9706  -23.5723 H   0  0  0  0  0  0
    5.4186    4.2518  -20.8538 H   0  0  0  0  0  0
    6.6729    3.2750  -19.9698 H   0  0  0  0  0  0
    6.3041    3.1253  -24.2396 H   0  0  0  0  0  0
    5.9740    4.6132  -23.2948 H   0  0  0  0  0  0
   -5.6795    4.1576  -25.9003 H   0  0  0  0  0  0
    2.2525    2.0560  -24.4641 H   0  0  0  0  0  0
    3.0669    1.5850  -22.5581 H   0  0  0  0  0  0
    4.3320    1.0288  -23.7190 H   0  0  0  0  0  0
    4.8151    0.2775  -21.3801 H   0  0  0  0  0  0
    7.6462    3.2065  -22.1080 H   0  0  0  0  0  0
    3.9332    2.7201  -20.4648 H   0  0  0  0  0  0
    5.2147    1.7168  -19.5782 H   0  0  0  0  0  0
   -1.4964    3.8231  -26.6804 H   0  0  0  0  0  0
    0.2387    2.2311  -20.5892 H   0  0  0  0  0  0
    7.0789    0.9293  -21.4165 H   0  0  0  0  0  0
   -2.8994    3.9695  -28.1446 H   0  0  0  0  0  0
    4.4270    8.2190  -22.7360 N   0  0  1  0  0  0
    2.7130   12.3220  -23.3320 N   0  0  0  0  0  0
    2.4900   12.2730  -22.0000 N   0  0  0  0  0  0
    4.9770    9.5490  -22.2860 C   0  0  0  0  0  0
    3.4390    7.5800  -21.7960 C   0  0  0  0  0  0
    3.6280   11.3450  -23.5540 C   0  0  0  0  0  0
    3.2190   11.3310  -21.4630 C   0  0  0  0  0  0
    3.9860   10.6890  -22.4420 C   0  0  0  0  0  0
    3.9162    8.3410  -23.6797 H   0  0  0  0  0  0
    2.2149   13.0121  -23.9121 H   0  0  0  0  0  0
    5.8897    9.7779  -22.8558 H   0  0  0  0  0  0
    5.2900    9.4780  -21.2339 H   0  0  0  0  0  0
    2.5861    8.2579  -21.6440 H   0  0  0  0  0  0
    3.9158    7.4211  -20.8175 H   0  0  0  0  0  0
    3.9941   11.1640  -24.5581 H   0  0  0  0  0  0
    3.1670   11.1480  -20.3958 H   0  0  0  0  0  0
  1  2  2  0  0  0
  1  3  1  0  0  0
  1 34  1  0  0  0
  2  6  1  0  0  0
  2 35  1  0  0  0
  3  5  2  0  0  0
  3 27  1  0  0  0
  4  5  1  0  0  0
  4  6  2  0  0  0
  4 18  1  0  0  0
  5 24  1  0  0  0
  6 10  1  0  0  0
  7 10  2  0  0  0
  7 23  1  0  0  0
  7 33  1  0  0  0
  8 21  1  0  0  0
  8 22  1  0  0  0
  8 36  1  0  0  0
  8 37  1  0  0  0
  9 21  1  0  0  0
  9 31  1  0  0  0
  9 38  1  0  0  0
  9 39  1  0  0  0
 10 40  1  0  0  0
 11 12  1  0  0  0
 11 14  2  0  0  0
 11 15  1  0  0  0
 12 17  1  0  0  0
 12 28  2  0  0  0
 13 28  1  0  0  0
 13 29  2  0  0  0
 13 56  1  0  0  0
 14 29  1  0  0  0
 14 31  1  0  0  0
 15 30  2  0  0  0
 15 41  1  0  0  0
 16 17  2  0  0  0
 16 18  1  0  0  0
 16 30  1  0  0  0
 17 26  1  0  0  0
 18 23  2  0  0  0
 19 20  1  0  0  0
 19 31  1  0  0  0
 19 42  1  0  0  0
 19 43  1  0  0  0
 20 22  1  0  0  0
 20 32  1  0  0  0
 20 44  1  0  0  0
 21 32  1  0  0  0
 21 45  1  0  0  0
 22 46  1  0  0  0
 22 47  1  0  0  0
 23 48  1  0  0  0
 24 25  3  0  0  0
 25 49  1  0  0  0
 32 50  1  0  0  0
 33 51  1  0  0  0
 52 55  1  0  0  0
 52 56  1  0  0  0
 52 60  1  0  0  0
 53 54  1  0  0  0
 53 57  1  0  0  0
 53 61  1  0  0  0
 54 58  2  0  0  0
 55 59  1  0  0  0
 55 62  1  0  0  0
 55 63  1  0  0  0
 56 64  1  0  0  0
 56 65  1  0  0  0
 57 59  2  0  0  0
 57 66  1  0  0  0
 58 59  1  0  0  0
 58 67  1  0  0  0
M  END
> <s_m_entry_id>
390

> <s_m_entry_name>
000000390.1

> <s_m_Source_Path>
/Users/zaksoul/Documents/2

> <s_m_Source_File>
000000390.mol2

> <i_m_Source_File_Index>
1

$$$$
No_0_414
                    3D
 Schrodinger Suite 2022-4.
 72 79  0  0  1  0            999 V2000
   -5.3270    3.2660  -21.9090 C   0  0  0  0  0  0
   -5.6040    3.4350  -23.2450 C   0  0  0  0  0  0
   -4.0820    3.0450  -21.5720 C   0  0  0  0  0  0
   -3.2040    3.1700  -23.7430 C   0  0  0  0  0  0
   -3.0310    2.9440  -22.3210 C   0  0  0  0  0  0
   -4.5600    3.3960  -24.2600 C   0  0  0  0  0  0
   -3.8160    3.4130  -26.4620 C   0  0  0  0  0  0
    5.9530    2.9590  -21.2400 C   0  0  0  0  0  0
    5.7990    3.0720  -23.7900 C   0  0  0  0  0  0
   -4.8210    3.5040  -25.5960 C   0  0  0  0  0  0
    2.0020    3.5320  -23.7930 C   0  0  0  0  0  0
    1.1570    4.6240  -23.5010 C   0  0  0  0  0  0
    2.9300    5.8680  -22.8420 C   0  0  0  0  0  0
    3.3990    3.7580  -23.4890 C   0  0  0  0  0  0
    1.4790    2.3950  -24.4400 C   0  0  0  0  0  0
   -0.6660    3.1600  -24.3270 C   0  0  0  0  0  0
   -0.1650    4.3980  -23.7430 C   0  0  0  0  0  0
   -2.1210    3.1290  -24.6740 C   0  0  0  0  0  0
    4.0640    1.2780  -23.1750 C   0  0  0  0  0  0
    5.0110    0.9560  -22.0300 C   0  0  2  0  0  0
    6.5650    2.5280  -22.5900 C   0  0  2  0  0  0
    4.9760    1.9680  -20.8730 C   0  0  0  0  0  0
   -2.4570    3.2660  -26.1020 C   0  0  0  0  0  0
   -1.6740    2.5680  -21.7260 C   0  0  0  0  0  0
   -0.6330    2.2500  -21.2220 C   0  0  0  0  0  0
   -1.0300    5.4270  -23.4050 F   0  0  0  0  0  0
   -3.8590    2.8220  -20.1890 F   0  0  0  0  0  0
    1.6090    5.7990  -22.9840 N   0  0  0  0  0  0
    3.8480    4.9240  -23.0570 N   0  0  0  0  0  0
    0.1730    2.2720  -24.7380 N   0  0  0  0  0  0
    4.3410    2.7300  -23.6600 N   0  0  0  0  0  0
    6.4140    1.0510  -22.5200 N   0  0  1  0  0  0
   -3.9960    3.4090  -27.8510 O   0  0  0  0  0  0
   -6.1269    3.3182  -21.1793 H   0  0  0  0  0  0
   -6.6244    3.6026  -23.5701 H   0  0  0  0  0  0
    5.4586    3.9346  -21.3570 H   0  0  0  0  0  0
    6.7419    2.9953  -20.4743 H   0  0  0  0  0  0
    6.1989    2.6267  -24.7129 H   0  0  0  0  0  0
    5.9161    4.1649  -23.8344 H   0  0  0  0  0  0
   -5.8373    3.6617  -25.9385 H   0  0  0  0  0  0
    2.1359    1.5784  -24.7172 H   0  0  0  0  0  0
    3.0244    1.2013  -22.8238 H   0  0  0  0  0  0
    4.2386    0.5757  -24.0034 H   0  0  0  0  0  0
    4.8132   -0.0570  -21.6496 H   0  0  0  0  0  0
    7.6270    2.8094  -22.6445 H   0  0  0  0  0  0
    3.9817    2.4364  -20.8286 H   0  0  0  0  0  0
    5.2928    1.4717  -19.9439 H   0  0  0  0  0  0
   -1.6905    3.2560  -26.8685 H   0  0  0  0  0  0
    0.2832    1.9699  -20.7779 H   0  0  0  0  0  0
    7.0761    0.5750  -21.8119 H   0  0  0  0  0  0
   -3.1517    3.3367  -28.2806 H   0  0  0  0  0  0
    3.8050    7.2210  -20.9230 N   0  0  1  0  0  0
    6.8450    7.9500  -20.3720 N   0  0  0  0  0  0
    7.6280    9.5040  -21.7290 N   0  0  0  0  0  0
    9.3290    6.8330  -19.8770 N   0  0  0  0  0  0
    5.8170    8.7210  -20.8110 C   0  0  0  0  0  0
    3.4600    7.2240  -22.3910 C   0  0  0  0  0  0
    4.3700    8.5130  -20.3950 C   0  0  0  0  0  0
    7.9550    8.4620  -20.9550 C   0  0  0  0  0  0
    6.9400    6.8690  -19.5380 C   0  0  0  0  0  0
    6.2810    9.6680  -21.6390 C   0  0  0  0  0  0
    9.2050    7.8800  -20.6860 C   0  0  0  0  0  0
    8.1630    6.3470  -19.3170 C   0  0  0  0  0  0
    2.9162    7.0150  -20.3451 H   0  0  0  0  0  0
    4.3556    7.4809  -22.9757 H   0  0  0  0  0  0
    2.7032    7.9978  -22.5870 H   0  0  0  0  0  0
    4.2990    8.5220  -19.2973 H   0  0  0  0  0  0
    3.7603    9.3536  -20.7578 H   0  0  0  0  0  0
    6.0478    6.4589  -19.0789 H   0  0  0  0  0  0
    5.7943   10.4635  -22.1916 H   0  0  0  0  0  0
   10.0823    8.3061  -21.1591 H   0  0  0  0  0  0
    8.1970    5.4922  -18.6512 H   0  0  0  0  0  0
  1  2  2  0  0  0
  1  3  1  0  0  0
  1 34  1  0  0  0
  2  6  1  0  0  0
  2 35  1  0  0  0
  3  5  2  0  0  0
  3 27  1  0  0  0
  4  5  1  0  0  0
  4  6  2  0  0  0
  4 18  1  0  0  0
  5 24  1  0  0  0
  6 10  1  0  0  0
  7 10  2  0  0  0
  7 23  1  0  0  0
  7 33  1  0  0  0
  8 21  1  0  0  0
  8 22  1  0  0  0
  8 36  1  0  0  0
  8 37  1  0  0  0
  9 21  1  0  0  0
  9 31  1  0  0  0
  9 38  1  0  0  0
  9 39  1  0  0  0
 10 40  1  0  0  0
 11 12  1  0  0  0
 11 14  2  0  0  0
 11 15  1  0  0  0
 12 17  1  0  0  0
 12 28  2  0  0  0
 13 28  1  0  0  0
 13 29  2  0  0  0
 13 57  1  0  0  0
 14 29  1  0  0  0
 14 31  1  0  0  0
 15 30  2  0  0  0
 15 41  1  0  0  0
 16 17  2  0  0  0
 16 18  1  0  0  0
 16 30  1  0  0  0
 17 26  1  0  0  0
 18 23  2  0  0  0
 19 20  1  0  0  0
 19 31  1  0  0  0
 19 42  1  0  0  0
 19 43  1  0  0  0
 20 22  1  0  0  0
 20 32  1  0  0  0
 20 44  1  0  0  0
 21 32  1  0  0  0
 21 45  1  0  0  0
 22 46  1  0  0  0
 22 47  1  0  0  0
 23 48  1  0  0  0
 24 25  3  0  0  0
 25 49  1  0  0  0
 32 50  1  0  0  0
 33 51  1  0  0  0
 52 57  1  0  0  0
 52 58  1  0  0  0
 52 64  1  0  0  0
 53 56  1  0  0  0
 53 59  1  0  0  0
 53 60  1  0  0  0
 54 59  2  0  0  0
 54 61  1  0  0  0
 55 62  2  0  0  0
 55 63  1  0  0  0
 56 58  1  0  0  0
 56 61  2  0  0  0
 57 65  1  0  0  0
 57 66  1  0  0  0
 58 67  1  0  0  0
 58 68  1  0  0  0
 59 62  1  0  0  0
 60 63  2  0  0  0
 60 69  1  0  0  0
 61 70  1  0  0  0
 62 71  1  0  0  0
 63 72  1  0  0  0
M  END
> <s_m_entry_id>
391

> <s_m_entry_name>
000000391.1

> <s_m_Source_Path>
/Users/zaksoul/Documents/2

> <s_m_Source_File>
000000391.mol2

> <i_m_Source_File_Index>
1

$$$$
No_0_415
                    3D
 Schrodinger Suite 2022-4.
 72 79  0  0  1  0            999 V2000
   -5.6310    3.4780  -22.0090 C   0  0  0  0  0  0
   -5.8480    3.6440  -23.3570 C   0  0  0  0  0  0
   -4.4030    3.2480  -21.6170 C   0  0  0  0  0  0
   -3.4300    3.3580  -23.7480 C   0  0  0  0  0  0
   -3.3210    3.1360  -22.3190 C   0  0  0  0  0  0
   -4.7600    3.5930  -24.3250 C   0  0  0  0  0  0
   -3.9210    3.5950  -26.4920 C   0  0  0  0  0  0
    5.6060    3.0830  -20.8440 C   0  0  0  0  0  0
    5.5650    3.1880  -23.3980 C   0  0  0  0  0  0
   -4.9610    3.6970  -25.6710 C   0  0  0  0  0  0
    1.7760    3.6780  -23.5700 C   0  0  0  0  0  0
    0.9280    4.7780  -23.3190 C   0  0  0  0  0  0
    2.6800    6.0100  -22.5880 C   0  0  0  0  0  0
    3.1600    3.8940  -23.2060 C   0  0  0  0  0  0
    1.2720    2.5430  -24.2360 C   0  0  0  0  0  0
   -0.8700    3.3250  -24.2200 C   0  0  0  0  0  0
   -0.3850    4.5620  -23.6180 C   0  0  0  0  0  0
   -2.3080    3.3040  -24.6300 C   0  0  0  0  0  0
    3.7900    1.4100  -22.8540 C   0  0  0  0  0  0
    4.6840    1.0850  -21.6670 C   0  0  2  0  0  0
    6.2740    2.6420  -22.1640 C   0  0  2  0  0  0
    4.6060    2.1020  -20.5170 C   0  0  0  0  0  0
   -2.5800    3.4390  -26.0720 C   0  0  0  0  0  0
   -1.9960    2.7520  -21.6630 C   0  0  0  0  0  0
   -0.9800    2.4270  -21.1130 C   0  0  0  0  0  0
   -1.2550    5.5990  -23.3220 F   0  0  0  0  0  0
   -4.2430    3.0280  -20.2240 F   0  0  0  0  0  0
    1.3660    5.9510  -22.7870 N   0  0  0  0  0  0
    3.5980    5.0580  -22.7590 N   0  0  0  0  0  0
   -0.0200    2.4290  -24.5900 N   0  0  0  0  0  0
    4.1000    2.8580  -23.3320 N   0  0  0  0  0  0
    6.1070    1.1670  -22.0960 N   0  0  1  0  0  0
   -4.0390    3.5880  -27.8870 O   0  0  0  0  0  0
   -6.4616    3.5383  -21.3150 H   0  0  0  0  0  0
   -6.8520    3.8187  -23.7265 H   0  0  0  0  0  0
    5.1255    4.0622  -20.9863 H   0  0  0  0  0  0
    6.3609    3.1163  -20.0447 H   0  0  0  0  0  0
    6.0011    2.7368  -24.3015 H   0  0  0  0  0  0
    5.6931    4.2797  -23.4414 H   0  0  0  0  0  0
   -5.9598    3.8626  -26.0585 H   0  0  0  0  0  0
    1.9335    1.7199  -24.4809 H   0  0  0  0  0  0
    2.7353    1.3423  -22.5489 H   0  0  0  0  0  0
    3.9949    0.7033  -23.6717 H   0  0  0  0  0  0
    4.4609    0.0747  -21.2936 H   0  0  0  0  0  0
    7.3397    2.9145  -22.1731 H   0  0  0  0  0  0
    3.6144    2.5781  -20.5180 H   0  0  0  0  0  0
    4.8774    1.6056  -19.5736 H   0  0  0  0  0  0
   -1.7807    3.4199  -26.8040 H   0  0  0  0  0  0
   -0.0867    2.1409  -20.6279 H   0  0  0  0  0  0
    6.7339    0.6888  -21.3579 H   0  0  0  0  0  0
   -3.1773    3.5069  -28.2788 H   0  0  0  0  0  0
    3.7520    7.2870  -20.7170 N   0  0  1  0  0  0
    6.8000    8.1590  -20.5450 N   0  0  0  0  0  0
    7.3010    9.8420  -21.8820 N   0  0  0  0  0  0
    9.3820    7.1630  -20.4840 N   0  0  0  0  0  0
    5.6820    8.8940  -20.7790 C   0  0  0  0  0  0
    3.2010    7.3640  -22.1180 C   0  0  0  0  0  0
    4.3220    8.5730  -20.1810 C   0  0  0  0  0  0
    7.7880    8.7740  -21.2380 C   0  0  0  0  0  0
    7.0670    7.0340  -19.8120 C   0  0  0  0  0  0
    5.9740    9.9190  -21.5930 C   0  0  0  0  0  0
    9.0900    8.2510  -21.1900 C   0  0  0  0  0  0
    8.3340    6.5730  -19.8030 C   0  0  0  0  0  0
    2.9674    6.9912  -20.0364 H   0  0  0  0  0  0
    3.9888    7.7109  -22.8028 H   0  0  0  0  0  0
    2.3855    8.1015  -22.1500 H   0  0  0  0  0  0
    4.4090    8.5070  -19.0864 H   0  0  0  0  0  0
    3.6255    9.3974  -20.3938 H   0  0  0  0  0  0
    6.2714    6.5427  -19.2636 H   0  0  0  0  0  0
    5.3739   10.7181  -22.0130 H   0  0  0  0  0  0
    9.8677    8.7588  -21.7488 H   0  0  0  0  0  0
    8.5060    5.6808  -19.2119 H   0  0  0  0  0  0
  1  2  2  0  0  0
  1  3  1  0  0  0
  1 34  1  0  0  0
  2  6  1  0  0  0
  2 35  1  0  0  0
  3  5  2  0  0  0
  3 27  1  0  0  0
  4  5  1  0  0  0
  4  6  2  0  0  0
  4 18  1  0  0  0
  5 24  1  0  0  0
  6 10  1  0  0  0
  7 10  2  0  0  0
  7 23  1  0  0  0
  7 33  1  0  0  0
  8 21  1  0  0  0
  8 22  1  0  0  0
  8 36  1  0  0  0
  8 37  1  0  0  0
  9 21  1  0  0  0
  9 31  1  0  0  0
  9 38  1  0  0  0
  9 39  1  0  0  0
 10 40  1  0  0  0
 11 12  1  0  0  0
 11 14  2  0  0  0
 11 15  1  0  0  0
 12 17  1  0  0  0
 12 28  2  0  0  0
 13 28  1  0  0  0
 13 29  2  0  0  0
 13 57  1  0  0  0
 14 29  1  0  0  0
 14 31  1  0  0  0
 15 30  2  0  0  0
 15 41  1  0  0  0
 16 17  2  0  0  0
 16 18  1  0  0  0
 16 30  1  0  0  0
 17 26  1  0  0  0
 18 23  2  0  0  0
 19 20  1  0  0  0
 19 31  1  0  0  0
 19 42  1  0  0  0
 19 43  1  0  0  0
 20 22  1  0  0  0
 20 32  1  0  0  0
 20 44  1  0  0  0
 21 32  1  0  0  0
 21 45  1  0  0  0
 22 46  1  0  0  0
 22 47  1  0  0  0
 23 48  1  0  0  0
 24 25  3  0  0  0
 25 49  1  0  0  0
 32 50  1  0  0  0
 33 51  1  0  0  0
 52 57  1  0  0  0
 52 58  1  0  0  0
 52 64  1  0  0  0
 53 56  1  0  0  0
 53 59  1  0  0  0
 53 60  1  0  0  0
 54 59  2  0  0  0
 54 61  1  0  0  0
 55 62  2  0  0  0
 55 63  1  0  0  0
 56 58  1  0  0  0
 56 61  2  0  0  0
 57 65  1  0  0  0
 57 66  1  0  0  0
 58 67  1  0  0  0
 58 68  1  0  0  0
 59 62  1  0  0  0
 60 63  2  0  0  0
 60 69  1  0  0  0
 61 70  1  0  0  0
 62 71  1  0  0  0
 63 72  1  0  0  0
M  END
> <s_m_entry_id>
392

> <s_m_entry_name>
000000392.1

> <s_m_Source_Path>
/Users/zaksoul/Documents/2

> <s_m_Source_File>
000000392.mol2

> <i_m_Source_File_Index>
1

$$$$
No_0_416
                    3D
 Schrodinger Suite 2022-4.
 72 79  0  0  1  0            999 V2000
   -5.3140    3.2660  -22.0740 C   0  0  0  0  0  0
   -5.5740    3.4600  -23.4100 C   0  0  0  0  0  0
   -4.0710    3.0500  -21.7240 C   0  0  0  0  0  0
   -3.1650    3.2290  -23.8790 C   0  0  0  0  0  0
   -3.0090    2.9740  -22.4600 C   0  0  0  0  0  0
   -4.5160    3.4530  -24.4100 C   0  0  0  0  0  0
   -3.7410    3.5240  -26.6010 C   0  0  0  0  0  0
    5.9580    3.0510  -21.2510 C   0  0  0  0  0  0
    5.8380    3.2170  -23.8000 C   0  0  0  0  0  0
   -4.7590    3.5870  -25.7470 C   0  0  0  0  0  0
    2.0380    3.6400  -23.8480 C   0  0  0  0  0  0
    1.1780    4.7180  -23.5440 C   0  0  0  0  0  0
    2.9290    5.9650  -22.8350 C   0  0  0  0  0  0
    3.4280    3.8740  -23.5190 C   0  0  0  0  0  0
    1.5350    2.5130  -24.5260 C   0  0  0  0  0  0
   -0.6190    3.2550  -24.4270 C   0  0  0  0  0  0
   -0.1390    4.4850  -23.8100 C   0  0  0  0  0  0
   -2.0680    3.2170  -24.7950 C   0  0  0  0  0  0
    4.1130    1.3940  -23.2480 C   0  0  0  0  0  0
    5.0470    1.0560  -22.0960 C   0  0  2  0  0  0
    6.5930    2.6540  -22.6010 C   0  0  2  0  0  0
    4.9860    2.0440  -20.9190 C   0  0  0  0  0  0
   -2.3860    3.3820  -26.2240 C   0  0  0  0  0  0
   -1.6580    2.5990  -21.8530 C   0  0  0  0  0  0
   -0.6210    2.2790  -21.3410 C   0  0  0  0  0  0
   -1.0170    5.4980  -23.4620 F   0  0  0  0  0  0
   -3.8660    2.7990  -20.3420 F   0  0  0  0  0  0
    1.6120    5.8860  -22.9960 N   0  0  0  0  0  0
    3.8590    5.0340  -23.0570 N   0  0  0  0  0  0
    0.2350    2.3840  -24.8440 N   0  0  0  0  0  0
    4.3820    2.8580  -23.6990 N   0  0  0  0  0  0
    6.4550    1.1750  -22.5650 N   0  0  1  0  0  0
   -3.9020    3.5480  -27.9920 O   0  0  0  0  0  0
   -6.1241    3.2941  -21.3543 H   0  0  0  0  0  0
   -6.5915    3.6256  -23.7452 H   0  0  0  0  0  0
    5.4554    4.0239  -21.3550 H   0  0  0  0  0  0
    6.7361    3.0793  -20.4739 H   0  0  0  0  0  0
    6.2558    2.7962  -24.7265 H   0  0  0  0  0  0
    5.9450    4.3116  -23.8202 H   0  0  0  0  0  0
   -5.7719    3.7426  -26.1004 H   0  0  0  0  0  0
    2.2036    1.7088  -24.8111 H   0  0  0  0  0  0
    3.0696    1.2991  -22.9130 H   0  0  0  0  0  0
    4.3057    0.7110  -24.0884 H   0  0  0  0  0  0
    4.8531    0.0332  -21.7406 H   0  0  0  0  0  0
    7.6529    2.9464  -22.6353 H   0  0  0  0  0  0
    3.9862    2.5010  -20.8797 H   0  0  0  0  0  0
    5.2939    1.5302  -19.9964 H   0  0  0  0  0  0
   -1.6091    3.3961  -26.9798 H   0  0  0  0  0  0
    0.2920    1.9980  -20.8910 H   0  0  0  0  0  0
    7.1121    0.6910  -21.8577 H   0  0  0  0  0  0
   -3.0510    3.4926  -28.4106 H   0  0  0  0  0  0
    4.1640    7.1900  -21.0300 N   0  0  1  0  0  0
    7.1640    8.2160  -21.1730 N   0  0  0  0  0  0
    7.4160    9.9970  -22.4530 N   0  0  0  0  0  0
    9.7780    7.3610  -21.4870 N   0  0  0  0  0  0
    5.9930    8.9010  -21.2230 C   0  0  0  0  0  0
    3.4400    7.3160  -22.3470 C   0  0  0  0  0  0
    4.7330    8.4730  -20.4880 C   0  0  0  0  0  0
    8.0290    8.9220  -21.9410 C   0  0  0  0  0  0
    7.5730    7.0680  -20.5500 C   0  0  0  0  0  0
    6.1330    9.9850  -22.0010 C   0  0  0  0  0  0
    9.3500    8.4690  -22.0830 C   0  0  0  0  0  0
    8.8520    6.6770  -20.7220 C   0  0  0  0  0  0
    3.4840    6.8140  -20.2800 H   0  0  0  0  0  0
    4.1201    7.7441  -23.0981 H   0  0  0  0  0  0
    2.5931    8.0089  -22.2340 H   0  0  0  0  0  0
    4.9589    8.3501  -19.4185 H   0  0  0  0  0  0
    3.9777    9.2693  -20.5620 H   0  0  0  0  0  0
    6.8759    6.5029  -19.9419 H   0  0  0  0  0  0
    5.4480   10.7720  -22.2950 H   0  0  0  0  0  0
   10.0282    9.0492  -22.6982 H   0  0  0  0  0  0
    9.1370    5.7629  -20.2139 H   0  0  0  0  0  0
  1  2  2  0  0  0
  1  3  1  0  0  0
  1 34  1  0  0  0
  2  6  1  0  0  0
  2 35  1  0  0  0
  3  5  2  0  0  0
  3 27  1  0  0  0
  4  5  1  0  0  0
  4  6  2  0  0  0
  4 18  1  0  0  0
  5 24  1  0  0  0
  6 10  1  0  0  0
  7 10  2  0  0  0
  7 23  1  0  0  0
  7 33  1  0  0  0
  8 21  1  0  0  0
  8 22  1  0  0  0
  8 36  1  0  0  0
  8 37  1  0  0  0
  9 21  1  0  0  0
  9 31  1  0  0  0
  9 38  1  0  0  0
  9 39  1  0  0  0
 10 40  1  0  0  0
 11 12  1  0  0  0
 11 14  2  0  0  0
 11 15  1  0  0  0
 12 17  1  0  0  0
 12 28  2  0  0  0
 13 28  1  0  0  0
 13 29  2  0  0  0
 13 57  1  0  0  0
 14 29  1  0  0  0
 14 31  1  0  0  0
 15 30  2  0  0  0
 15 41  1  0  0  0
 16 17  2  0  0  0
 16 18  1  0  0  0
 16 30  1  0  0  0
 17 26  1  0  0  0
 18 23  2  0  0  0
 19 20  1  0  0  0
 19 31  1  0  0  0
 19 42  1  0  0  0
 19 43  1  0  0  0
 20 22  1  0  0  0
 20 32  1  0  0  0
 20 44  1  0  0  0
 21 32  1  0  0  0
 21 45  1  0  0  0
 22 46  1  0  0  0
 22 47  1  0  0  0
 23 48  1  0  0  0
 24 25  3  0  0  0
 25 49  1  0  0  0
 32 50  1  0  0  0
 33 51  1  0  0  0
 52 57  1  0  0  0
 52 58  1  0  0  0
 52 64  1  0  0  0
 53 56  1  0  0  0
 53 59  1  0  0  0
 53 60  1  0  0  0
 54 59  2  0  0  0
 54 61  1  0  0  0
 55 62  2  0  0  0
 55 63  1  0  0  0
 56 58  1  0  0  0
 56 61  2  0  0  0
 57 65  1  0  0  0
 57 66  1  0  0  0
 58 67  1  0  0  0
 58 68  1  0  0  0
 59 62  1  0  0  0
 60 63  2  0  0  0
 60 69  1  0  0  0
 61 70  1  0  0  0
 62 71  1  0  0  0
 63 72  1  0  0  0
M  END
> <s_m_entry_id>
393

> <s_m_entry_name>
000000393.1

> <s_m_Source_Path>
/Users/zaksoul/Documents/2

> <s_m_Source_File>
000000393.mol2

> <i_m_Source_File_Index>
1

$$$$
No_0_417
                    3D
 Schrodinger Suite 2022-4.
 70 76  0  0  1  0            999 V2000
   -5.0380    3.3980  -22.3050 C   0  0  0  0  0  0
   -5.3020    3.5500  -23.6450 C   0  0  0  0  0  0
   -3.7970    3.1720  -21.9540 C   0  0  0  0  0  0
   -2.9000    3.2570  -24.1190 C   0  0  0  0  0  0
   -2.7410    3.0500  -22.6930 C   0  0  0  0  0  0
   -4.2500    3.4870  -24.6510 C   0  0  0  0  0  0
   -3.4870    3.4660  -26.8470 C   0  0  0  0  0  0
    6.2330    3.0030  -21.5350 C   0  0  0  0  0  0
    6.1010    3.0810  -24.0870 C   0  0  0  0  0  0
   -4.4980    3.5780  -25.9900 C   0  0  0  0  0  0
    2.3090    3.5730  -24.1300 C   0  0  0  0  0  0
    1.4710    4.6760  -23.8610 C   0  0  0  0  0  0
    3.2500    5.9150  -23.2050 C   0  0  0  0  0  0
    3.7050    3.7920  -23.8170 C   0  0  0  0  0  0
    1.7810    2.4320  -24.7650 C   0  0  0  0  0  0
   -0.3580    3.2170  -24.6810 C   0  0  0  0  0  0
    0.1490    4.4590  -24.1110 C   0  0  0  0  0  0
   -1.8100    3.1930  -25.0400 C   0  0  0  0  0  0
    4.3460    1.3110  -23.4620 C   0  0  0  0  0  0
    5.2810    0.9970  -22.3040 C   0  0  2  0  0  0
    6.8530    2.5470  -22.8730 C   0  0  2  0  0  0
    5.2440    2.0270  -21.1620 C   0  0  0  0  0  0
   -2.1320    3.3120  -26.4720 C   0  0  0  0  0  0
   -1.3930    2.6720  -22.0800 C   0  0  0  0  0  0
   -0.3590    2.3510  -21.5630 C   0  0  0  0  0  0
   -0.7090    5.5000  -23.7950 F   0  0  0  0  0  0
   -3.5880    2.9660  -20.5660 F   0  0  0  0  0  0
    1.9300    5.8550  -23.3560 N   0  0  0  0  0  0
    4.1600    4.9600  -23.3990 N   0  0  0  0  0  0
    0.4770    2.3160  -25.0720 N   0  0  0  0  0  0
    4.6390    2.7530  -23.9650 N   0  0  0  0  0  0
    6.6880    1.0730  -22.7830 N   0  0  1  0  0  0
   -3.6560    3.4440  -28.2370 O   0  0  0  0  0  0
   -5.8430    3.4673  -21.5823 H   0  0  0  0  0  0
   -6.3181    3.7217  -23.9814 H   0  0  0  0  0  0
    5.7484    3.9812  -21.6703 H   0  0  0  0  0  0
    7.0163    3.0444  -20.7638 H   0  0  0  0  0  0
    6.5046    2.6189  -25.0000 H   0  0  0  0  0  0
    6.2282    4.1720  -24.1465 H   0  0  0  0  0  0
   -5.5100    3.7396  -26.3434 H   0  0  0  0  0  0
    2.4334    1.6059  -25.0240 H   0  0  0  0  0  0
    3.3032    1.2474  -23.1178 H   0  0  0  0  0  0
    4.5215    0.5947  -24.2782 H   0  0  0  0  0  0
    5.0702   -0.0088  -21.9116 H   0  0  0  0  0  0
    7.9178    2.8185  -22.9235 H   0  0  0  0  0  0
    4.2535    2.5046  -21.1337 H   0  0  0  0  0  0
    5.5487    1.5406  -20.2236 H   0  0  0  0  0  0
   -1.3602    3.2849  -27.2327 H   0  0  0  0  0  0
    0.5511    2.0700  -21.1070 H   0  0  0  0  0  0
    7.3405    0.6013  -22.0631 H   0  0  0  0  0  0
   -2.8084    3.3580  -28.6573 H   0  0  0  0  0  0
   10.6080    8.6590  -21.4920 O   0  0  0  0  0  0
    4.4510    7.1850  -21.4180 N   0  0  1  0  0  0
    8.5290    8.4870  -22.4730 N   0  0  0  0  0  0
    6.5790    8.5090  -21.0640 C   0  0  0  0  0  0
    3.7880    7.2730  -22.7680 C   0  0  0  0  0  0
    5.0630    8.4720  -20.9210 C   0  0  0  0  0  0
    8.7210    8.6640  -20.0780 C   0  0  0  0  0  0
    7.3650    8.6160  -19.9400 C   0  0  0  0  0  0
    7.1910    8.4490  -22.2920 C   0  0  0  0  0  0
    9.2630    8.6010  -21.3470 C   0  0  0  0  0  0
    3.7233    6.8831  -20.6793 H   0  0  0  0  0  0
    8.9218    8.4310  -23.4235 H   0  0  0  0  0  0
    4.5152    7.6341  -23.5102 H   0  0  0  0  0  0
    2.9610    7.9970  -22.7240 H   0  0  0  0  0  0
    4.7931    8.6220  -19.8652 H   0  0  0  0  0  0
    4.6238    9.3204  -21.4663 H   0  0  0  0  0  0
    9.3521    8.7490  -19.2008 H   0  0  0  0  0  0
    6.9052    8.6620  -18.9594 H   0  0  0  0  0  0
    6.5300    8.3650  -23.1470 H   0  0  0  0  0  0
  1  2  2  0  0  0
  1  3  1  0  0  0
  1 34  1  0  0  0
  2  6  1  0  0  0
  2 35  1  0  0  0
  3  5  2  0  0  0
  3 27  1  0  0  0
  4  5  1  0  0  0
  4  6  2  0  0  0
  4 18  1  0  0  0
  5 24  1  0  0  0
  6 10  1  0  0  0
  7 10  2  0  0  0
  7 23  1  0  0  0
  7 33  1  0  0  0
  8 21  1  0  0  0
  8 22  1  0  0  0
  8 36  1  0  0  0
  8 37  1  0  0  0
  9 21  1  0  0  0
  9 31  1  0  0  0
  9 38  1  0  0  0
  9 39  1  0  0  0
 10 40  1  0  0  0
 11 12  1  0  0  0
 11 14  2  0  0  0
 11 15  1  0  0  0
 12 17  1  0  0  0
 12 28  2  0  0  0
 13 28  1  0  0  0
 13 29  2  0  0  0
 13 56  1  0  0  0
 14 29  1  0  0  0
 14 31  1  0  0  0
 15 30  2  0  0  0
 15 41  1  0  0  0
 16 17  2  0  0  0
 16 18  1  0  0  0
 16 30  1  0  0  0
 17 26  1  0  0  0
 18 23  2  0  0  0
 19 20  1  0  0  0
 19 31  1  0  0  0
 19 42  1  0  0  0
 19 43  1  0  0  0
 20 22  1  0  0  0
 20 32  1  0  0  0
 20 44  1  0  0  0
 21 32  1  0  0  0
 21 45  1  0  0  0
 22 46  1  0  0  0
 22 47  1  0  0  0
 23 48  1  0  0  0
 24 25  3  0  0  0
 25 49  1  0  0  0
 32 50  1  0  0  0
 33 51  1  0  0  0
 52 61  2  0  0  0
 53 56  1  0  0  0
 53 57  1  0  0  0
 53 62  1  0  0  0
 54 60  1  0  0  0
 54 61  1  0  0  0
 54 63  1  0  0  0
 55 57  1  0  0  0
 55 59  1  0  0  0
 55 60  2  0  0  0
 56 64  1  0  0  0
 56 65  1  0  0  0
 57 66  1  0  0  0
 57 67  1  0  0  0
 58 59  2  0  0  0
 58 61  1  0  0  0
 58 68  1  0  0  0
 59 69  1  0  0  0
 60 70  1  0  0  0
M  END
> <s_m_entry_id>
394

> <s_m_entry_name>
000000394.1

> <s_m_Source_Path>
/Users/zaksoul/Documents/2

> <s_m_Source_File>
000000394.mol2

> <i_m_Source_File_Index>
1

$$$$
No_0_418
                    3D
 Schrodinger Suite 2022-4.
 70 76  0  0  1  0            999 V2000
   -5.4200    3.3080  -21.9810 C   0  0  0  0  0  0
   -5.6800    3.4520  -23.3240 C   0  0  0  0  0  0
   -4.1800    3.0930  -21.6240 C   0  0  0  0  0  0
   -3.2740    3.1750  -23.7860 C   0  0  0  0  0  0
   -3.1190    2.9760  -22.3580 C   0  0  0  0  0  0
   -4.6230    3.3930  -24.3240 C   0  0  0  0  0  0
   -3.8510    3.3670  -26.5170 C   0  0  0  0  0  0
    5.8500    3.0030  -21.1600 C   0  0  0  0  0  0
    5.7280    3.0670  -23.7140 C   0  0  0  0  0  0
   -4.8660    3.4750  -25.6650 C   0  0  0  0  0  0
    1.9330    3.5300  -23.7750 C   0  0  0  0  0  0
    1.0850    4.6290  -23.5150 C   0  0  0  0  0  0
    2.8510    5.8830  -22.8570 C   0  0  0  0  0  0
    3.3260    3.7610  -23.4570 C   0  0  0  0  0  0
    1.4170    2.3820  -24.4070 C   0  0  0  0  0  0
   -0.7290    3.1510  -24.3360 C   0  0  0  0  0  0
   -0.2340    4.4000  -23.7690 C   0  0  0  0  0  0
   -2.1790    3.1150  -24.7010 C   0  0  0  0  0  0
    3.9840    1.2870  -23.0870 C   0  0  0  0  0  0
    4.9160    0.9860  -21.9240 C   0  0  2  0  0  0
    6.4790    2.5450  -22.4940 C   0  0  2  0  0  0
    4.8670    2.0200  -20.7870 C   0  0  0  0  0  0
   -2.4960    3.2250  -26.1360 C   0  0  0  0  0  0
   -1.7710    2.6100  -21.7370 C   0  0  0  0  0  0
   -0.7370    2.3010  -21.2140 C   0  0  0  0  0  0
   -1.1010    5.4360  -23.4620 F   0  0  0  0  0  0
   -3.9750    2.8960  -20.2340 F   0  0  0  0  0  0
    1.5330    5.8130  -23.0140 N   0  0  0  0  0  0
    3.7700    4.9350  -23.0420 N   0  0  0  0  0  0
    0.1150    2.2550  -24.7190 N   0  0  0  0  0  0
    4.2680    2.7290  -23.5970 N   0  0  0  0  0  0
    6.3250    1.0700  -22.3980 N   0  0  1  0  0  0
   -4.0130    3.3370  -27.9070 O   0  0  0  0  0  0
   -6.2289    3.3752  -21.2625 H   0  0  0  0  0  0
   -6.6959    3.6146  -23.6653 H   0  0  0  0  0  0
    5.3582    3.9766  -21.3024 H   0  0  0  0  0  0
    6.6296    3.0525  -20.3855 H   0  0  0  0  0  0
    6.1398    2.6048  -24.6233 H   0  0  0  0  0  0
    5.8481    4.1586  -23.7776 H   0  0  0  0  0  0
   -5.8776    3.6275  -26.0233 H   0  0  0  0  0  0
    2.0759    1.5593  -24.6601 H   0  0  0  0  0  0
    2.9398    1.2174  -22.7480 H   0  0  0  0  0  0
    4.1677    0.5685  -23.8994 H   0  0  0  0  0  0
    4.7113   -0.0195  -21.5277 H   0  0  0  0  0  0
    7.5419    2.8246  -22.5404 H   0  0  0  0  0  0
    3.8729    2.4903  -20.7648 H   0  0  0  0  0  0
    5.1709    1.5404  -19.8449 H   0  0  0  0  0  0
   -1.7197    3.1999  -26.8922 H   0  0  0  0  0  0
    0.1730    2.0280  -20.7530 H   0  0  0  0  0  0
    6.9771    0.6071  -21.6721 H   0  0  0  0  0  0
   -3.1631    3.2549  -28.3235 H   0  0  0  0  0  0
   10.2200    9.0470  -22.2910 O   0  0  0  0  0  0
    4.2810    7.1250  -21.2250 N   0  0  1  0  0  0
    8.0100    8.7850  -22.8930 N   0  0  0  0  0  0
    6.3540    8.5770  -21.1600 C   0  0  0  0  0  0
    3.3780    7.2480  -22.4240 C   0  0  0  0  0  0
    4.8960    8.4200  -20.7510 C   0  0  0  0  0  0
    8.6270    8.8260  -20.5650 C   0  0  0  0  0  0
    7.3250    8.6710  -20.1900 C   0  0  0  0  0  0
    6.7330    8.6370  -22.4790 C   0  0  0  0  0  0
    8.9300    8.8810  -21.9120 C   0  0  0  0  0  0
    3.7218    6.7259  -20.3917 H   0  0  0  0  0  0
    8.2238    8.8160  -23.9001 H   0  0  0  0  0  0
    3.9328    7.7068  -23.2557 H   0  0  0  0  0  0
    2.5311    7.9059  -22.1790 H   0  0  0  0  0  0
    4.8150    8.4840  -19.6559 H   0  0  0  0  0  0
    4.3132    9.2657  -21.1449 H   0  0  0  0  0  0
    9.4020    8.9020  -19.8110 H   0  0  0  0  0  0
    7.0508    8.6220  -19.1424 H   0  0  0  0  0  0
    5.9329    8.5580  -23.2061 H   0  0  0  0  0  0
  1  2  2  0  0  0
  1  3  1  0  0  0
  1 34  1  0  0  0
  2  6  1  0  0  0
  2 35  1  0  0  0
  3  5  2  0  0  0
  3 27  1  0  0  0
  4  5  1  0  0  0
  4  6  2  0  0  0
  4 18  1  0  0  0
  5 24  1  0  0  0
  6 10  1  0  0  0
  7 10  2  0  0  0
  7 23  1  0  0  0
  7 33  1  0  0  0
  8 21  1  0  0  0
  8 22  1  0  0  0
  8 36  1  0  0  0
  8 37  1  0  0  0
  9 21  1  0  0  0
  9 31  1  0  0  0
  9 38  1  0  0  0
  9 39  1  0  0  0
 10 40  1  0  0  0
 11 12  1  0  0  0
 11 14  2  0  0  0
 11 15  1  0  0  0
 12 17  1  0  0  0
 12 28  2  0  0  0
 13 28  1  0  0  0
 13 29  2  0  0  0
 13 56  1  0  0  0
 14 29  1  0  0  0
 14 31  1  0  0  0
 15 30  2  0  0  0
 15 41  1  0  0  0
 16 17  2  0  0  0
 16 18  1  0  0  0
 16 30  1  0  0  0
 17 26  1  0  0  0
 18 23  2  0  0  0
 19 20  1  0  0  0
 19 31  1  0  0  0
 19 42  1  0  0  0
 19 43  1  0  0  0
 20 22  1  0  0  0
 20 32  1  0  0  0
 20 44  1  0  0  0
 21 32  1  0  0  0
 21 45  1  0  0  0
 22 46  1  0  0  0
 22 47  1  0  0  0
 23 48  1  0  0  0
 24 25  3  0  0  0
 25 49  1  0  0  0
 32 50  1  0  0  0
 33 51  1  0  0  0
 52 61  2  0  0  0
 53 56  1  0  0  0
 53 57  1  0  0  0
 53 62  1  0  0  0
 54 60  1  0  0  0
 54 61  1  0  0  0
 54 63  1  0  0  0
 55 57  1  0  0  0
 55 59  1  0  0  0
 55 60  2  0  0  0
 56 64  1  0  0  0
 56 65  1  0  0  0
 57 66  1  0  0  0
 57 67  1  0  0  0
 58 59  2  0  0  0
 58 61  1  0  0  0
 58 68  1  0  0  0
 59 69  1  0  0  0
 60 70  1  0  0  0
M  END
> <s_m_entry_id>
395

> <s_m_entry_name>
000000395.1

> <s_m_Source_Path>
/Users/zaksoul/Documents/2

> <s_m_Source_File>
000000395.mol2

> <i_m_Source_File_Index>
1

$$$$
No_0_419
                    3D
 Schrodinger Suite 2022-4.
 75 81  0  0  1  0            999 V2000
   -5.1660    3.2670  -22.1490 C   0  0  0  0  0  0
   -5.4290    3.4250  -23.4890 C   0  0  0  0  0  0
   -3.9260    3.0410  -21.7970 C   0  0  0  0  0  0
   -3.0250    3.1400  -23.9600 C   0  0  0  0  0  0
   -2.8680    2.9260  -22.5350 C   0  0  0  0  0  0
   -4.3740    3.3700  -24.4930 C   0  0  0  0  0  0
   -3.6090    3.3600  -26.6880 C   0  0  0  0  0  0
    6.1040    2.8920  -21.3620 C   0  0  0  0  0  0
    5.9760    2.9820  -23.9150 C   0  0  0  0  0  0
   -4.6210    3.4660  -25.8320 C   0  0  0  0  0  0
    2.1830    3.4660  -23.9610 C   0  0  0  0  0  0
    1.3430    4.5670  -23.6880 C   0  0  0  0  0  0
    3.1170    5.8050  -23.0230 C   0  0  0  0  0  0
    3.5790    3.6860  -23.6450 C   0  0  0  0  0  0
    1.6590    2.3270  -24.6020 C   0  0  0  0  0  0
   -0.4820    3.1070  -24.5180 C   0  0  0  0  0  0
    0.0210    4.3480  -23.9410 C   0  0  0  0  0  0
   -1.9330    3.0820  -24.8790 C   0  0  0  0  0  0
    4.2240    1.2050  -23.3010 C   0  0  0  0  0  0
    5.1570    0.8880  -22.1430 C   0  0  2  0  0  0
    6.7280    2.4440  -22.7020 C   0  0  2  0  0  0
    5.1170    1.9110  -20.9960 C   0  0  0  0  0  0
   -2.2540    3.2080  -26.3120 C   0  0  0  0  0  0
   -1.5200    2.5470  -21.9220 C   0  0  0  0  0  0
   -0.4860    2.2270  -21.4040 C   0  0  0  0  0  0
   -0.8390    5.3850  -23.6210 F   0  0  0  0  0  0
   -3.7180    2.8300  -20.4090 F   0  0  0  0  0  0
    1.7980    5.7440  -23.1770 N   0  0  0  0  0  0
    4.0310    4.8530  -23.2200 N   0  0  0  0  0  0
    0.3560    2.2100  -24.9120 N   0  0  0  0  0  0
    4.5150    2.6510  -23.7970 N   0  0  0  0  0  0
    6.5650    0.9690  -22.6200 N   0  0  1  0  0  0
   -3.7750    3.3450  -28.0780 O   0  0  0  0  0  0
   -5.9726    3.3312  -21.4277 H   0  0  0  0  0  0
   -6.4448    3.5966  -23.8263 H   0  0  0  0  0  0
    5.6176    3.8699  -21.4932 H   0  0  0  0  0  0
    6.8864    2.9304  -20.5897 H   0  0  0  0  0  0
    6.3828    2.5257  -24.8295 H   0  0  0  0  0  0
    6.1012    4.0735  -23.9685 H   0  0  0  0  0  0
   -5.6326    3.6276  -26.1863 H   0  0  0  0  0  0
    2.3135    1.5039  -24.8650 H   0  0  0  0  0  0
    3.1807    1.1384  -22.9589 H   0  0  0  0  0  0
    4.4017    0.4933  -24.1207 H   0  0  0  0  0  0
    4.9481   -0.1201  -21.7555 H   0  0  0  0  0  0
    7.7924    2.7177  -22.7485 H   0  0  0  0  0  0
    4.1253    2.3861  -20.9667 H   0  0  0  0  0  0
    5.4209    1.4213  -20.0591 H   0  0  0  0  0  0
   -1.4802    3.1859  -27.0708 H   0  0  0  0  0  0
    0.4236    1.9441  -20.9482 H   0  0  0  0  0  0
    7.2169    0.4956  -21.9008 H   0  0  0  0  0  0
   -2.9265    3.2629  -28.4973 H   0  0  0  0  0  0
    3.6390    7.2950  -21.0790 N   0  0  1  0  0  0
    6.9970   10.4160  -22.1300 N   0  0  0  0  0  0
    4.0890    8.6330  -20.5490 C   0  0  0  0  0  0
    3.6520    7.1630  -22.5790 C   0  0  0  0  0  0
    6.6220    8.2580  -20.3890 C   0  0  0  0  0  0
    5.5430    8.9540  -20.8850 C   0  0  0  0  0  0
    8.0290    9.7170  -21.6250 C   0  0  0  0  0  0
    5.7750   10.0070  -21.7390 C   0  0  0  0  0  0
    7.8780    8.6520  -20.7710 C   0  0  0  0  0  0
    6.5100    7.0660  -19.4530 C   0  0  0  0  0  0
    9.4340   10.1270  -22.0200 C   0  0  0  0  0  0
    4.2863    6.5196  -20.6968 H   0  0  0  0  0  0
    3.9520    8.6580  -19.4579 H   0  0  0  0  0  0
    3.4379    9.4232  -20.9511 H   0  0  0  0  0  0
    4.6804    7.2900  -22.9481 H   0  0  0  0  0  0
    3.0387    7.9614  -23.0222 H   0  0  0  0  0  0
    4.8905   10.5187  -22.1008 H   0  0  0  0  0  0
    8.7488    8.1251  -20.3981 H   0  0  0  0  0  0
    7.5161    6.6950  -19.2080 H   0  0  0  0  0  0
    5.9971    7.3719  -18.5292 H   0  0  0  0  0  0
    5.9350    6.2670  -19.9440 H   0  0  0  0  0  0
   10.1612    9.4638  -21.5288 H   0  0  0  0  0  0
    9.5461   10.0490  -23.1115 H   0  0  0  0  0  0
    9.6149   11.1656  -21.7061 H   0  0  0  0  0  0
  1  2  2  0  0  0
  1  3  1  0  0  0
  1 34  1  0  0  0
  2  6  1  0  0  0
  2 35  1  0  0  0
  3  5  2  0  0  0
  3 27  1  0  0  0
  4  5  1  0  0  0
  4  6  2  0  0  0
  4 18  1  0  0  0
  5 24  1  0  0  0
  6 10  1  0  0  0
  7 10  2  0  0  0
  7 23  1  0  0  0
  7 33  1  0  0  0
  8 21  1  0  0  0
  8 22  1  0  0  0
  8 36  1  0  0  0
  8 37  1  0  0  0
  9 21  1  0  0  0
  9 31  1  0  0  0
  9 38  1  0  0  0
  9 39  1  0  0  0
 10 40  1  0  0  0
 11 12  1  0  0  0
 11 14  2  0  0  0
 11 15  1  0  0  0
 12 17  1  0  0  0
 12 28  2  0  0  0
 13 28  1  0  0  0
 13 29  2  0  0  0
 13 55  1  0  0  0
 14 29  1  0  0  0
 14 31  1  0  0  0
 15 30  2  0  0  0
 15 41  1  0  0  0
 16 17  2  0  0  0
 16 18  1  0  0  0
 16 30  1  0  0  0
 17 26  1  0  0  0
 18 23  2  0  0  0
 19 20  1  0  0  0
 19 31  1  0  0  0
 19 42  1  0  0  0
 19 43  1  0  0  0
 20 22  1  0  0  0
 20 32  1  0  0  0
 20 44  1  0  0  0
 21 32  1  0  0  0
 21 45  1  0  0  0
 22 46  1  0  0  0
 22 47  1  0  0  0
 23 48  1  0  0  0
 24 25  3  0  0  0
 25 49  1  0  0  0
 32 50  1  0  0  0
 33 51  1  0  0  0
 52 54  1  0  0  0
 52 55  1  0  0  0
 52 63  1  0  0  0
 53 58  2  0  0  0
 53 59  1  0  0  0
 54 57  1  0  0  0
 54 64  1  0  0  0
 54 65  1  0  0  0
 55 66  1  0  0  0
 55 67  1  0  0  0
 56 57  1  0  0  0
 56 60  2  0  0  0
 56 61  1  0  0  0
 57 59  2  0  0  0
 58 60  1  0  0  0
 58 62  1  0  0  0
 59 68  1  0  0  0
 60 69  1  0  0  0
 61 70  1  0  0  0
 61 71  1  0  0  0
 61 72  1  0  0  0
 62 73  1  0  0  0
 62 74  1  0  0  0
 62 75  1  0  0  0
M  END
> <s_m_entry_id>
396

> <s_m_entry_name>
000000396.1

> <s_m_Source_Path>
/Users/zaksoul/Documents/2

> <s_m_Source_File>
000000396.mol2

> <i_m_Source_File_Index>
1

$$$$
No_0_420
                    3D
 Schrodinger Suite 2022-4.
 74 80  0  0  1  0            999 V2000
   -5.1470    3.2270  -22.0460 C   0  0  0  0  0  0
   -5.4200    3.4020  -23.3820 C   0  0  0  0  0  0
   -3.9000    3.0220  -21.7050 C   0  0  0  0  0  0
   -3.0140    3.1780  -23.8710 C   0  0  0  0  0  0
   -2.8440    2.9430  -22.4510 C   0  0  0  0  0  0
   -4.3710    3.3880  -24.3930 C   0  0  0  0  0  0
   -3.6180    3.4350  -26.5910 C   0  0  0  0  0  0
    6.1330    3.0850  -21.3280 C   0  0  0  0  0  0
    5.9890    3.2170  -23.8770 C   0  0  0  0  0  0
   -4.6280    3.5030  -25.7280 C   0  0  0  0  0  0
    2.1860    3.6190  -23.8940 C   0  0  0  0  0  0
    1.3230    4.6960  -23.5970 C   0  0  0  0  0  0
    3.0740    5.9610  -22.9200 C   0  0  0  0  0  0
    3.5780    3.8640  -23.5820 C   0  0  0  0  0  0
    1.6830    2.4800  -24.5530 C   0  0  0  0  0  0
   -0.4740    3.2120  -24.4430 C   0  0  0  0  0  0
    0.0050    4.4520  -23.8470 C   0  0  0  0  0  0
   -1.9270    3.1610  -24.7970 C   0  0  0  0  0  0
    4.2790    1.3920  -23.2860 C   0  0  0  0  0  0
    5.2260    1.0740  -22.1390 C   0  0  2  0  0  0
    6.7590    2.6740  -22.6790 C   0  0  2  0  0  0
    5.1700    2.0760  -20.9730 C   0  0  0  0  0  0
   -2.2580    3.3050  -26.2250 C   0  0  0  0  0  0
   -1.4850    2.5830  -21.8520 C   0  0  0  0  0  0
   -0.4410    2.2760  -21.3460 C   0  0  0  0  0  0
   -0.8760    5.4650  -23.5040 F   0  0  0  0  0  0
   -3.6800    2.7900  -20.3230 F   0  0  0  0  0  0
    1.7550    5.8730  -23.0680 N   0  0  0  0  0  0
    4.0070    5.0330  -23.1390 N   0  0  0  0  0  0
    0.3810    2.3400  -24.8580 N   0  0  0  0  0  0
    4.5360    2.8520  -23.7570 N   0  0  0  0  0  0
    6.6290    1.1950  -22.6220 N   0  0  1  0  0  0
   -3.7920    3.4400  -27.9810 O   0  0  0  0  0  0
   -5.9504    3.2601  -21.3190 H   0  0  0  0  0  0
   -6.4414    3.5575  -23.7101 H   0  0  0  0  0  0
    5.6251    4.0544  -21.4391 H   0  0  0  0  0  0
    6.9188    3.1274  -20.5594 H   0  0  0  0  0  0
    6.3996    2.7862  -24.8021 H   0  0  0  0  0  0
    6.0899    4.3118  -23.9123 H   0  0  0  0  0  0
   -5.6448    3.6485  -26.0743 H   0  0  0  0  0  0
    2.3535    1.6760  -24.8341 H   0  0  0  0  0  0
    3.2393    1.2961  -22.9398 H   0  0  0  0  0  0
    4.4678    0.6985  -24.1188 H   0  0  0  0  0  0
    5.0413    0.0548  -21.7687 H   0  0  0  0  0  0
    7.8166    2.9727  -22.7264 H   0  0  0  0  0  0
    4.1686    2.5292  -20.9306 H   0  0  0  0  0  0
    5.4901    1.5761  -20.0469 H   0  0  0  0  0  0
   -1.4885    3.3140  -26.9885 H   0  0  0  0  0  0
    0.4772    2.0059  -20.8999 H   0  0  0  0  0  0
    7.2949    0.7236  -21.9144 H   0  0  0  0  0  0
   -2.9444    3.3836  -28.4063 H   0  0  0  0  0  0
    4.1870    7.2310  -21.0760 N   0  0  1  0  0  0
    7.0420    9.0070  -20.7190 N   0  0  0  0  0  0
    7.0130   10.4310  -22.3780 N   0  0  0  0  0  0
    4.5550    8.5450  -20.4410 C   0  0  0  0  0  0
    5.7520    9.2110  -21.0990 C   0  0  0  0  0  0
    3.5820    7.3220  -22.4540 C   0  0  0  0  0  0
    7.5200    8.1310  -19.6410 C   0  0  0  0  0  0
    7.7950    9.7890  -21.5320 C   0  0  3  0  0  0
    5.7200   10.0740  -22.1130 C   0  0  0  0  0  0
    9.3030    9.9220  -21.4850 C   0  0  0  0  0  0
    5.0705    6.6173  -21.1719 H   0  0  0  0  0  0
    7.4219   11.0678  -23.0768 H   0  0  0  0  0  0
    4.7660    8.3880  -19.3729 H   0  0  0  0  0  0
    3.6916    9.2253  -20.4810 H   0  0  0  0  0  0
    4.3371    7.6921  -23.1631 H   0  0  0  0  0  0
    2.7479    8.0391  -22.4410 H   0  0  0  0  0  0
    8.6172    8.1840  -19.5840 H   0  0  0  0  0  0
    7.0868    8.4561  -18.6836 H   0  0  0  0  0  0
    7.2152    7.0945  -19.8479 H   0  0  0  0  0  0
    4.9100   10.4930  -22.6990 H   0  0  0  0  0  0
    9.6340   10.6269  -22.2619 H   0  0  0  0  0  0
    9.6079   10.2979  -20.4972 H   0  0  0  0  0  0
    9.7640    8.9389  -21.6610 H   0  0  0  0  0  0
  1  2  2  0  0  0
  1  3  1  0  0  0
  1 34  1  0  0  0
  2  6  1  0  0  0
  2 35  1  0  0  0
  3  5  2  0  0  0
  3 27  1  0  0  0
  4  5  1  0  0  0
  4  6  2  0  0  0
  4 18  1  0  0  0
  5 24  1  0  0  0
  6 10  1  0  0  0
  7 10  2  0  0  0
  7 23  1  0  0  0
  7 33  1  0  0  0
  8 21  1  0  0  0
  8 22  1  0  0  0
  8 36  1  0  0  0
  8 37  1  0  0  0
  9 21  1  0  0  0
  9 31  1  0  0  0
  9 38  1  0  0  0
  9 39  1  0  0  0
 10 40  1  0  0  0
 11 12  2  0  0  0
 11 14  1  0  0  0
 11 15  1  0  0  0
 12 17  1  0  0  0
 12 28  1  0  0  0
 13 28  2  0  0  0
 13 29  1  0  0  0
 13 57  1  0  0  0
 14 29  2  0  0  0
 14 31  1  0  0  0
 15 30  2  0  0  0
 15 41  1  0  0  0
 16 17  2  0  0  0
 16 18  1  0  0  0
 16 30  1  0  0  0
 17 26  1  0  0  0
 18 23  2  0  0  0
 19 20  1  0  0  0
 19 31  1  0  0  0
 19 42  1  0  0  0
 19 43  1  0  0  0
 20 22  1  0  0  0
 20 32  1  0  0  0
 20 44  1  0  0  0
 21 32  1  0  0  0
 21 45  1  0  0  0
 22 46  1  0  0  0
 22 47  1  0  0  0
 23 48  1  0  0  0
 24 25  3  0  0  0
 25 49  1  0  0  0
 32 50  1  0  0  0
 33 51  1  0  0  0
 52 55  1  0  0  0
 52 57  1  0  0  0
 52 62  1  0  0  0
 53 56  1  0  0  0
 53 58  1  0  0  0
 53 59  1  0  0  0
 54 59  1  0  0  0
 54 60  1  0  0  0
 54 63  1  0  0  0
 55 56  1  0  0  0
 55 64  1  0  0  0
 55 65  1  0  0  0
 56 60  2  0  0  0
 57 66  1  0  0  0
 57 67  1  0  0  0
 58 68  1  0  0  0
 58 69  1  0  0  0
 58 70  1  0  0  0
 59 61  1  0  0  0
 60 71  1  0  0  0
 61 72  1  0  0  0
 61 73  1  0  0  0
 61 74  1  0  0  0
M  END
> <s_m_entry_id>
397

> <s_m_entry_name>
000000397.1

> <s_m_Source_Path>
/Users/zaksoul/Documents/2

> <s_m_Source_File>
000000397.mol2

> <i_m_Source_File_Index>
1

$$$$
No_0_421
                    3D
 Schrodinger Suite 2022-4.
 74 80  0  0  1  0            999 V2000
   -5.2290    3.3870  -22.2490 C   0  0  0  0  0  0
   -5.4770    3.5830  -23.5870 C   0  0  0  0  0  0
   -3.9920    3.1570  -21.8900 C   0  0  0  0  0  0
   -3.0670    3.3220  -24.0390 C   0  0  0  0  0  0
   -2.9250    3.0670  -22.6180 C   0  0  0  0  0  0
   -4.4110    3.5610  -24.5800 C   0  0  0  0  0  0
   -3.6190    3.6190  -26.7650 C   0  0  0  0  0  0
    6.0330    3.0370  -21.3410 C   0  0  0  0  0  0
    5.9340    3.2010  -23.8910 C   0  0  0  0  0  0
   -4.6420    3.6960  -25.9180 C   0  0  0  0  0  0
    2.1400    3.6700  -23.9680 C   0  0  0  0  0  0
    1.2910    4.7590  -23.6730 C   0  0  0  0  0  0
    3.0520    5.9850  -22.9520 C   0  0  0  0  0  0
    3.5300    3.8870  -23.6290 C   0  0  0  0  0  0
    1.6280    2.5480  -24.6480 C   0  0  0  0  0  0
   -0.5170    3.3160  -24.5670 C   0  0  0  0  0  0
   -0.0260    4.5420  -23.9480 C   0  0  0  0  0  0
   -1.9640    3.2960  -24.9460 C   0  0  0  0  0  0
    4.1830    1.4000  -23.3490 C   0  0  0  0  0  0
    5.1040    1.0530  -22.1900 C   0  0  2  0  0  0
    6.6740    2.6310  -22.6860 C   0  0  2  0  0  0
    5.0460    2.0420  -21.0150 C   0  0  0  0  0  0
   -2.2680    3.4620  -26.3780 C   0  0  0  0  0  0
   -1.5830    2.6760  -22.0000 C   0  0  0  0  0  0
   -0.5540    2.3450  -21.4800 C   0  0  0  0  0  0
   -0.8950    5.5660  -23.6080 F   0  0  0  0  0  0
   -3.8000    2.9060  -20.5060 F   0  0  0  0  0  0
    1.7350    5.9220  -23.1230 N   0  0  0  0  0  0
    3.9720    5.0430  -23.1650 N   0  0  0  0  0  0
    0.3290    2.4340  -24.9770 N   0  0  0  0  0  0
    4.4730    2.8600  -23.8000 N   0  0  0  0  0  0
    6.5170    1.1530  -22.6480 N   0  0  1  0  0  0
   -3.7690    3.6430  -28.1570 O   0  0  0  0  0  0
   -6.0449    3.4271  -21.5365 H   0  0  0  0  0  0
   -6.4896    3.7596  -23.9312 H   0  0  0  0  0  0
    5.5439    4.0162  -21.4499 H   0  0  0  0  0  0
    6.8051    3.0572  -20.5578 H   0  0  0  0  0  0
    6.3538    2.7731  -24.8133 H   0  0  0  0  0  0
    6.0551    4.2941  -23.9112 H   0  0  0  0  0  0
   -5.6498    3.8636  -26.2804 H   0  0  0  0  0  0
    2.2891    1.7354  -24.9269 H   0  0  0  0  0  0
    3.1359    1.3183  -23.0221 H   0  0  0  0  0  0
    4.3736    0.7133  -24.1869 H   0  0  0  0  0  0
    4.8952    0.0331  -21.8349 H   0  0  0  0  0  0
    7.7375    2.9108  -22.7123 H   0  0  0  0  0  0
    4.0521    2.5122  -20.9837 H   0  0  0  0  0  0
    5.3406    1.5265  -20.0890 H   0  0  0  0  0  0
   -1.4856    3.4650  -27.1283 H   0  0  0  0  0  0
    0.3519    2.0540  -21.0220 H   0  0  0  0  0  0
    7.1628    0.6623  -21.9349 H   0  0  0  0  0  0
   -2.9153    3.5767  -28.5685 H   0  0  0  0  0  0
    3.8890    7.3020  -20.9880 N   0  0  1  0  0  0
    7.5940    9.8950  -22.0890 N   0  0  0  0  0  0
    8.1740    8.3860  -20.3040 N   0  0  0  0  0  0
    3.5750    7.3310  -22.4620 C   0  0  0  0  0  0
    4.4380    8.5800  -20.4020 C   0  0  0  0  0  0
    5.8870    8.8540  -20.7950 C   0  0  0  0  0  0
    6.2970    9.6930  -21.8060 C   0  0  0  0  0  0
    8.4560    9.2260  -21.3090 C   0  0  0  0  0  0
    6.8640    8.2200  -20.0720 C   0  0  0  0  0  0
    5.3080   10.4680  -22.6580 C   0  0  0  0  0  0
    9.9230    9.4540  -21.5960 C   0  0  0  0  0  0
    2.9901    7.0800  -20.4321 H   0  0  0  0  0  0
    4.4826    7.5969  -23.0238 H   0  0  0  0  0  0
    2.8247    8.1103  -22.6611 H   0  0  0  0  0  0
    4.3570    8.5430  -19.3056 H   0  0  0  0  0  0
    3.8083    9.4256  -20.7158 H   0  0  0  0  0  0
    6.5330    7.5580  -19.2800 H   0  0  0  0  0  0
    4.2827   10.2269  -22.3409 H   0  0  0  0  0  0
    5.4850   11.5468  -22.5360 H   0  0  0  0  0  0
    5.4391   10.1918  -23.7147 H   0  0  0  0  0  0
   10.5309    8.8571  -20.9001 H   0  0  0  0  0  0
   10.1469    9.1511  -22.6295 H   0  0  0  0  0  0
   10.1611   10.5203  -21.4680 H   0  0  0  0  0  0
  1  2  2  0  0  0
  1  3  1  0  0  0
  1 34  1  0  0  0
  2  6  1  0  0  0
  2 35  1  0  0  0
  3  5  2  0  0  0
  3 27  1  0  0  0
  4  5  1  0  0  0
  4  6  2  0  0  0
  4 18  1  0  0  0
  5 24  1  0  0  0
  6 10  1  0  0  0
  7 10  2  0  0  0
  7 23  1  0  0  0
  7 33  1  0  0  0
  8 21  1  0  0  0
  8 22  1  0  0  0
  8 36  1  0  0  0
  8 37  1  0  0  0
  9 21  1  0  0  0
  9 31  1  0  0  0
  9 38  1  0  0  0
  9 39  1  0  0  0
 10 40  1  0  0  0
 11 12  1  0  0  0
 11 14  2  0  0  0
 11 15  1  0  0  0
 12 17  1  0  0  0
 12 28  2  0  0  0
 13 28  1  0  0  0
 13 29  2  0  0  0
 13 55  1  0  0  0
 14 29  1  0  0  0
 14 31  1  0  0  0
 15 30  2  0  0  0
 15 41  1  0  0  0
 16 17  2  0  0  0
 16 18  1  0  0  0
 16 30  1  0  0  0
 17 26  1  0  0  0
 18 23  2  0  0  0
 19 20  1  0  0  0
 19 31  1  0  0  0
 19 42  1  0  0  0
 19 43  1  0  0  0
 20 22  1  0  0  0
 20 32  1  0  0  0
 20 44  1  0  0  0
 21 32  1  0  0  0
 21 45  1  0  0  0
 22 46  1  0  0  0
 22 47  1  0  0  0
 23 48  1  0  0  0
 24 25  3  0  0  0
 25 49  1  0  0  0
 32 50  1  0  0  0
 33 51  1  0  0  0
 52 55  1  0  0  0
 52 56  1  0  0  0
 52 63  1  0  0  0
 53 58  2  0  0  0
 53 59  1  0  0  0
 54 59  2  0  0  0
 54 60  1  0  0  0
 55 64  1  0  0  0
 55 65  1  0  0  0
 56 57  1  0  0  0
 56 66  1  0  0  0
 56 67  1  0  0  0
 57 58  1  0  0  0
 57 60  2  0  0  0
 58 61  1  0  0  0
 59 62  1  0  0  0
 60 68  1  0  0  0
 61 69  1  0  0  0
 61 70  1  0  0  0
 61 71  1  0  0  0
 62 72  1  0  0  0
 62 73  1  0  0  0
 62 74  1  0  0  0
M  END
> <s_m_entry_id>
398

> <s_m_entry_name>
000000398.1

> <s_m_Source_Path>
/Users/zaksoul/Documents/2

> <s_m_Source_File>
000000398.mol2

> <i_m_Source_File_Index>
1

$$$$
No_0_422
                    3D
 Schrodinger Suite 2022-4.
 73 79  0  0  1  0            999 V2000
   -5.2940    3.5800  -21.9730 C   0  0  0  0  0  0
   -5.5550    3.7890  -23.3070 C   0  0  0  0  0  0
   -4.0570    3.3260  -21.6310 C   0  0  0  0  0  0
   -3.1560    3.4900  -23.7900 C   0  0  0  0  0  0
   -3.0010    3.2230  -22.3730 C   0  0  0  0  0  0
   -4.5020    3.7560  -24.3130 C   0  0  0  0  0  0
   -3.7370    3.8160  -26.5070 C   0  0  0  0  0  0
    5.9710    3.0290  -21.2090 C   0  0  0  0  0  0
    5.8430    3.2120  -23.7560 C   0  0  0  0  0  0
   -4.7480    3.9040  -25.6470 C   0  0  0  0  0  0
    2.0570    3.7480  -23.7820 C   0  0  0  0  0  0
    1.2310    4.8480  -23.4690 C   0  0  0  0  0  0
    3.0220    6.0390  -22.7620 C   0  0  0  0  0  0
    3.4550    3.9380  -23.4600 C   0  0  0  0  0  0
    1.5170    2.6390  -24.4640 C   0  0  0  0  0  0
   -0.6130    3.4440  -24.3500 C   0  0  0  0  0  0
   -0.0930    4.6560  -23.7290 C   0  0  0  0  0  0
   -2.0650    3.4510  -24.7110 C   0  0  0  0  0  0
    4.0680    1.4380  -23.2050 C   0  0  0  0  0  0
    4.9970    1.0670  -22.0600 C   0  0  2  0  0  0
    6.5870    2.6210  -22.5650 C   0  0  2  0  0  0
    4.9710    2.0490  -20.8770 C   0  0  0  0  0  0
   -2.3840    3.6320  -26.1380 C   0  0  0  0  0  0
   -1.6580    2.8040  -21.7750 C   0  0  0  0  0  0
   -0.6280    2.4520  -21.2700 C   0  0  0  0  0  0
   -0.9400    5.6930  -23.3720 F   0  0  0  0  0  0
   -3.8520    3.0610  -20.2520 F   0  0  0  0  0  0
    1.7010    6.0000  -22.9170 N   0  0  0  0  0  0
    3.9220    5.0830  -22.9930 N   0  0  0  0  0  0
    0.2130    2.5500  -24.7770 N   0  0  0  0  0  0
    4.3770    2.8960  -23.6490 N   0  0  0  0  0  0
    6.4060    1.1460  -22.5350 N   0  0  1  0  0  0
   -3.9030    3.8520  -27.8970 O   0  0  0  0  0  0
   -6.0998    3.6292  -21.2495 H   0  0  0  0  0  0
   -6.5687    3.9867  -23.6362 H   0  0  0  0  0  0
    5.4967    4.0169  -21.3049 H   0  0  0  0  0  0
    6.7533    3.0300  -20.4357 H   0  0  0  0  0  0
    6.2434    2.7843  -24.6870 H   0  0  0  0  0  0
    5.9823    4.3030  -23.7711 H   0  0  0  0  0  0
   -5.7572    4.0918  -25.9954 H   0  0  0  0  0  0
    2.1604    1.8169  -24.7561 H   0  0  0  0  0  0
    3.0236    1.3724  -22.8660 H   0  0  0  0  0  0
    4.2354    0.7542  -24.0502 H   0  0  0  0  0  0
    4.7751    0.0481  -21.7099 H   0  0  0  0  0  0
    7.6549    2.8822  -22.6023 H   0  0  0  0  0  0
    3.9854    2.5352  -20.8306 H   0  0  0  0  0  0
    5.2686    1.5213  -19.9589 H   0  0  0  0  0  0
   -1.6110    3.6270  -26.8979 H   0  0  0  0  0  0
    0.2781    2.1420  -20.8250 H   0  0  0  0  0  0
    7.0519    0.6391  -21.8334 H   0  0  0  0  0  0
   -3.0558    3.7738  -28.3196 H   0  0  0  0  0  0
    3.8990    7.3070  -20.8000 N   0  0  1  0  0  0
    7.4170   10.0980  -22.0240 N   0  0  0  0  0  0
    8.1780    8.6170  -20.2600 N   0  0  0  0  0  0
    5.1570   10.3890  -22.4410 N   0  0  0  0  0  0
    9.6680    9.7890  -21.5850 N   0  0  0  0  0  0
    5.8430    8.9280  -20.6390 C   0  0  0  0  0  0
    3.5740    7.3720  -22.2700 C   0  0  0  0  0  0
    4.4310    8.5750  -20.1820 C   0  0  0  0  0  0
    6.1510    9.7900  -21.6850 C   0  0  0  0  0  0
    6.8870    8.3660  -19.9660 C   0  0  0  0  0  0
    8.3570    9.4850  -21.2750 C   0  0  3  0  0  0
    3.0073    7.0551  -20.2452 H   0  0  0  0  0  0
    8.9261    8.1569  -19.7219 H   0  0  0  0  0  0
    4.1663   10.1969  -22.2349 H   0  0  0  0  0  0
    5.4091   11.0272  -23.2092 H   0  0  0  0  0  0
   10.4365    9.3567  -21.0526 H   0  0  0  0  0  0
    9.8758   10.4485  -22.3484 H   0  0  0  0  0  0
    4.4839    7.6230  -22.8349 H   0  0  0  0  0  0
    2.8316    8.1644  -22.4461 H   0  0  0  0  0  0
    4.4150    8.4820  -19.0861 H   0  0  0  0  0  0
    3.7520    9.4079  -20.4170 H   0  0  0  0  0  0
    6.6370    7.6869  -19.1589 H   0  0  0  0  0  0
  1  2  2  0  0  0
  1  3  1  0  0  0
  1 34  1  0  0  0
  2  6  1  0  0  0
  2 35  1  0  0  0
  3  5  2  0  0  0
  3 27  1  0  0  0
  4  5  1  0  0  0
  4  6  2  0  0  0
  4 18  1  0  0  0
  5 24  1  0  0  0
  6 10  1  0  0  0
  7 10  2  0  0  0
  7 23  1  0  0  0
  7 33  1  0  0  0
  8 21  1  0  0  0
  8 22  1  0  0  0
  8 36  1  0  0  0
  8 37  1  0  0  0
  9 21  1  0  0  0
  9 31  1  0  0  0
  9 38  1  0  0  0
  9 39  1  0  0  0
 10 40  1  0  0  0
 11 12  2  0  0  0
 11 14  1  0  0  0
 11 15  1  0  0  0
 12 17  1  0  0  0
 12 28  1  0  0  0
 13 28  2  0  0  0
 13 29  1  0  0  0
 13 58  1  0  0  0
 14 29  2  0  0  0
 14 31  1  0  0  0
 15 30  2  0  0  0
 15 41  1  0  0  0
 16 17  2  0  0  0
 16 18  1  0  0  0
 16 30  1  0  0  0
 17 26  1  0  0  0
 18 23  2  0  0  0
 19 20  1  0  0  0
 19 31  1  0  0  0
 19 42  1  0  0  0
 19 43  1  0  0  0
 20 22  1  0  0  0
 20 32  1  0  0  0
 20 44  1  0  0  0
 21 32  1  0  0  0
 21 45  1  0  0  0
 22 46  1  0  0  0
 22 47  1  0  0  0
 23 48  1  0  0  0
 24 25  3  0  0  0
 25 49  1  0  0  0
 32 50  1  0  0  0
 33 51  1  0  0  0
 52 58  1  0  0  0
 52 59  1  0  0  0
 52 63  1  0  0  0
 53 60  2  0  0  0
 53 62  1  0  0  0
 54 61  1  0  0  0
 54 62  1  0  0  0
 54 64  1  0  0  0
 55 60  1  0  0  0
 55 65  1  0  0  0
 55 66  1  0  0  0
 56 62  1  0  0  0
 56 67  1  0  0  0
 56 68  1  0  0  0
 57 59  1  0  0  0
 57 60  1  0  0  0
 57 61  2  0  0  0
 58 69  1  0  0  0
 58 70  1  0  0  0
 59 71  1  0  0  0
 59 72  1  0  0  0
 61 73  1  0  0  0
M  END
> <s_m_entry_id>
399

> <s_m_entry_name>
000000399.1

> <s_m_Source_Path>
/Users/zaksoul/Documents/2

> <s_m_Source_File>
000000399.mol2

> <i_m_Source_File_Index>
1

$$$$
No_0_423
                    3D
 Schrodinger Suite 2022-4.
 73 79  0  0  1  0            999 V2000
   -5.2610    3.1700  -22.2680 C   0  0  0  0  0  0
   -5.5110    3.3510  -23.6070 C   0  0  0  0  0  0
   -4.0210    2.9540  -21.9070 C   0  0  0  0  0  0
   -3.0990    3.1100  -24.0570 C   0  0  0  0  0  0
   -2.9540    2.8690  -22.6340 C   0  0  0  0  0  0
   -4.4450    3.3320  -24.6000 C   0  0  0  0  0  0
   -3.6550    3.3790  -26.7860 C   0  0  0  0  0  0
    6.0040    2.9360  -21.3610 C   0  0  0  0  0  0
    5.9030    3.0770  -23.9120 C   0  0  0  0  0  0
   -4.6780    3.4530  -25.9400 C   0  0  0  0  0  0
    2.1050    3.5090  -23.9920 C   0  0  0  0  0  0
    1.2450    4.5920  -23.7060 C   0  0  0  0  0  0
    2.9950    5.8410  -22.9950 C   0  0  0  0  0  0
    3.4930    3.7420  -23.6550 C   0  0  0  0  0  0
    1.6040    2.3770  -24.6620 C   0  0  0  0  0  0
   -0.5490    3.1250  -24.5870 C   0  0  0  0  0  0
   -0.0700    4.3600  -23.9780 C   0  0  0  0  0  0
   -1.9960    3.0870  -24.9650 C   0  0  0  0  0  0
    4.1700    1.2640  -23.3550 C   0  0  0  0  0  0
    5.0950    0.9360  -22.1930 C   0  0  2  0  0  0
    6.6490    2.5250  -22.7030 C   0  0  2  0  0  0
    5.0270    1.9350  -21.0260 C   0  0  0  0  0  0
   -2.3020    3.2380  -26.3980 C   0  0  0  0  0  0
   -1.6080    2.4960  -22.0140 C   0  0  0  0  0  0
   -0.5750    2.1800  -21.4920 C   0  0  0  0  0  0
   -0.9490    5.3780  -23.6470 F   0  0  0  0  0  0
   -3.8260    2.7170  -20.5220 F   0  0  0  0  0  0
    1.6780    5.7640  -23.1660 N   0  0  0  0  0  0
    3.9240    4.9070  -23.2010 N   0  0  0  0  0  0
    0.3060    2.2480  -24.9890 N   0  0  0  0  0  0
    4.4460    2.7230  -23.8180 N   0  0  0  0  0  0
    6.5070    1.0460  -22.6520 N   0  0  1  0  0  0
   -3.8050    3.3900  -28.1780 O   0  0  0  0  0  0
   -6.0761    3.2071  -21.5543 H   0  0  0  0  0  0
   -6.5252    3.5157  -23.9524 H   0  0  0  0  0  0
    5.5056    3.9096  -21.4780 H   0  0  0  0  0  0
    6.7769    2.9703  -20.5790 H   0  0  0  0  0  0
    6.3268    2.6462  -24.8311 H   0  0  0  0  0  0
    6.0140    4.1710  -23.9423 H   0  0  0  0  0  0
   -5.6879    3.6076  -26.3024 H   0  0  0  0  0  0
    2.2724    1.5681  -24.9340 H   0  0  0  0  0  0
    3.1238    1.1752  -23.0271 H   0  0  0  0  0  0
    4.3667    0.5720  -24.1872 H   0  0  0  0  0  0
    4.8962   -0.0831  -21.8298 H   0  0  0  0  0  0
    7.7098    2.8147  -22.7313 H   0  0  0  0  0  0
    4.0284    2.3954  -20.9987 H   0  0  0  0  0  0
    5.3277    1.4294  -20.0965 H   0  0  0  0  0  0
   -1.5196    3.2420  -27.1483 H   0  0  0  0  0  0
    0.3331    1.9010  -21.0309 H   0  0  0  0  0  0
    7.1577    0.5676  -21.9350 H   0  0  0  0  0  0
   -2.9511    3.3277  -28.5896 H   0  0  0  0  0  0
    4.1510    7.0770  -21.1610 N   0  0  1  0  0  0
    7.0120   10.3330  -22.8560 N   0  0  0  0  0  0
    8.2890    8.8430  -21.4290 N   0  0  0  0  0  0
    4.6990   10.3830  -22.7570 N   0  0  0  0  0  0
    9.3240   10.2640  -22.9330 N   0  0  0  0  0  0
    5.9080    8.9010  -21.2760 C   0  0  0  0  0  0
    3.5050    7.1960  -22.5170 C   0  0  0  0  0  0
    4.6750    8.3570  -20.5620 C   0  0  0  0  0  0
    5.8900    9.8580  -22.2840 C   0  0  0  0  0  0
    7.1270    8.4250  -20.8920 C   0  0  0  0  0  0
    8.1510    9.7890  -22.3800 C   0  0  3  0  0  0
    3.4333    6.6872  -20.4543 H   0  0  0  0  0  0
    9.1802    8.4409  -21.1049 H   0  0  0  0  0  0
    3.8028   10.0629  -22.3629 H   0  0  0  0  0  0
    4.7100   11.0936  -23.5026 H   0  0  0  0  0  0
   10.2305    9.8918  -22.6158 H   0  0  0  0  0  0
    9.2920   10.9900  -23.6630 H   0  0  0  0  0  0
    4.2376    7.5868  -23.2386 H   0  0  0  0  0  0
    2.6659    7.9051  -22.4620 H   0  0  0  0  0  0
    4.9110    8.1940  -19.5000 H   0  0  0  0  0  0
    3.8809    9.1181  -20.5740 H   0  0  0  0  0  0
    7.1300    7.6721  -20.1121 H   0  0  0  0  0  0
  1  2  2  0  0  0
  1  3  1  0  0  0
  1 34  1  0  0  0
  2  6  1  0  0  0
  2 35  1  0  0  0
  3  5  2  0  0  0
  3 27  1  0  0  0
  4  5  1  0  0  0
  4  6  2  0  0  0
  4 18  1  0  0  0
  5 24  1  0  0  0
  6 10  1  0  0  0
  7 10  2  0  0  0
  7 23  1  0  0  0
  7 33  1  0  0  0
  8 21  1  0  0  0
  8 22  1  0  0  0
  8 36  1  0  0  0
  8 37  1  0  0  0
  9 21  1  0  0  0
  9 31  1  0  0  0
  9 38  1  0  0  0
  9 39  1  0  0  0
 10 40  1  0  0  0
 11 12  2  0  0  0
 11 14  1  0  0  0
 11 15  1  0  0  0
 12 17  1  0  0  0
 12 28  1  0  0  0
 13 28  2  0  0  0
 13 29  1  0  0  0
 13 58  1  0  0  0
 14 29  2  0  0  0
 14 31  1  0  0  0
 15 30  2  0  0  0
 15 41  1  0  0  0
 16 17  2  0  0  0
 16 18  1  0  0  0
 16 30  1  0  0  0
 17 26  1  0  0  0
 18 23  2  0  0  0
 19 20  1  0  0  0
 19 31  1  0  0  0
 19 42  1  0  0  0
 19 43  1  0  0  0
 20 22  1  0  0  0
 20 32  1  0  0  0
 20 44  1  0  0  0
 21 32  1  0  0  0
 21 45  1  0  0  0
 22 46  1  0  0  0
 22 47  1  0  0  0
 23 48  1  0  0  0
 24 25  3  0  0  0
 25 49  1  0  0  0
 32 50  1  0  0  0
 33 51  1  0  0  0
 52 58  1  0  0  0
 52 59  1  0  0  0
 52 63  1  0  0  0
 53 60  2  0  0  0
 53 62  1  0  0  0
 54 61  1  0  0  0
 54 62  1  0  0  0
 54 64  1  0  0  0
 55 60  1  0  0  0
 55 65  1  0  0  0
 55 66  1  0  0  0
 56 62  1  0  0  0
 56 67  1  0  0  0
 56 68  1  0  0  0
 57 59  1  0  0  0
 57 60  1  0  0  0
 57 61  2  0  0  0
 58 69  1  0  0  0
 58 70  1  0  0  0
 59 71  1  0  0  0
 59 72  1  0  0  0
 61 73  1  0  0  0
M  END
> <s_m_entry_id>
400

> <s_m_entry_name>
000000400.1

> <s_m_Source_Path>
/Users/zaksoul/Documents/2

> <s_m_Source_File>
000000400.mol2

> <i_m_Source_File_Index>
1

$$$$
No_0_424
                    3D
 Schrodinger Suite 2022-4.
 69 75  0  0  1  0            999 V2000
   -5.0700    3.6140  -22.4060 C   0  0  0  0  0  0
   -5.2970    3.8210  -23.7460 C   0  0  0  0  0  0
   -3.8410    3.3640  -22.0310 C   0  0  0  0  0  0
   -2.8850    3.5290  -24.1670 C   0  0  0  0  0  0
   -2.7660    3.2650  -22.7460 C   0  0  0  0  0  0
   -4.2180    3.7900  -24.7240 C   0  0  0  0  0  0
   -3.3970    3.8500  -26.8980 C   0  0  0  0  0  0
    6.1730    3.1030  -21.3510 C   0  0  0  0  0  0
    6.1110    3.2830  -23.9010 C   0  0  0  0  0  0
   -4.4300    3.9360  -26.0650 C   0  0  0  0  0  0
    2.3250    3.8050  -24.0250 C   0  0  0  0  0  0
    1.4870    4.9040  -23.7350 C   0  0  0  0  0  0
    3.2550    6.1010  -22.9830 C   0  0  0  0  0  0
    3.7130    4.0010  -23.6670 C   0  0  0  0  0  0
    1.8070    2.6950  -24.7190 C   0  0  0  0  0  0
   -0.3290    3.4920  -24.6610 C   0  0  0  0  0  0
    0.1710    4.7060  -24.0290 C   0  0  0  0  0  0
   -1.7700    3.4930  -25.0590 C   0  0  0  0  0  0
    4.3280    1.5030  -23.3940 C   0  0  0  0  0  0
    5.2290    1.1370  -22.2250 C   0  0  2  0  0  0
    6.8260    2.6960  -22.6900 C   0  0  2  0  0  0
    5.1690    2.1200  -21.0440 C   0  0  0  0  0  0
   -2.0540    3.6720  -26.4940 C   0  0  0  0  0  0
   -1.4370    2.8510  -22.1130 C   0  0  0  0  0  0
   -0.4200    2.5030  -21.5810 C   0  0  0  0  0  0
   -0.6890    5.7400  -23.6940 F   0  0  0  0  0  0
   -3.6700    3.1020  -20.6470 F   0  0  0  0  0  0
    1.9390    6.0580  -23.1720 N   0  0  0  0  0  0
    4.1650    5.1480  -23.1900 N   0  0  0  0  0  0
    0.5110    2.6010  -25.0650 N   0  0  0  0  0  0
    4.6440    2.9620  -23.8320 N   0  0  0  0  0  0
    6.6490    1.2210  -22.6630 N   0  0  1  0  0  0
   -3.5280    3.8850  -28.2920 O   0  0  0  0  0  0
   -5.8936    3.6611  -21.7028 H   0  0  0  0  0  0
   -6.3028    4.0137  -24.1013 H   0  0  0  0  0  0
    5.6989    4.0896  -21.4599 H   0  0  0  0  0  0
    6.9355    3.1080  -20.5582 H   0  0  0  0  0  0
    6.5369    2.8551  -24.8205 H   0  0  0  0  0  0
    6.2472    4.3745  -23.9141 H   0  0  0  0  0  0
   -5.4309    4.1197  -26.4385 H   0  0  0  0  0  0
    2.4600    1.8745  -24.9938 H   0  0  0  0  0  0
    3.2756    1.4344  -23.0812 H   0  0  0  0  0  0
    4.5207    0.8189  -24.2335 H   0  0  0  0  0  0
    5.0010    0.1180  -21.8790 H   0  0  0  0  0  0
    7.8935    2.9614  -22.7001 H   0  0  0  0  0  0
    4.1811    2.6033  -21.0228 H   0  0  0  0  0  0
    5.4444    1.5944  -20.1178 H   0  0  0  0  0  0
   -1.2614    3.6690  -27.2335 H   0  0  0  0  0  0
    0.4759    2.1970  -21.1131 H   0  0  0  0  0  0
    7.2785    0.7166  -21.9448 H   0  0  0  0  0  0
   -2.6701    3.8088  -28.6928 H   0  0  0  0  0  0
    7.3280    9.0960  -20.2170 O   0  0  0  0  0  0
    4.3540    7.3180  -21.0850 N   0  0  1  0  0  0
    7.8330    9.8420  -22.1510 N   0  0  0  0  0  0
    4.8400    8.6050  -20.4700 C   0  0  0  0  0  0
    3.7900    7.4370  -22.4780 C   0  0  0  0  0  0
    6.1860    9.0760  -20.9930 C   0  0  0  0  0  0
    6.5030    9.5410  -22.1960 C   0  0  0  0  0  0
    9.6830    9.7650  -20.4730 C   0  0  0  0  0  0
    8.2600    9.5580  -20.9440 C   0  0  0  0  0  0
    5.1718    6.6152  -21.1460 H   0  0  0  0  0  0
    4.8940    8.4890  -19.3775 H   0  0  0  0  0  0
    4.0899    9.3931  -20.6320 H   0  0  0  0  0  0
    4.5737    7.7989  -23.1598 H   0  0  0  0  0  0
    2.9799    8.1811  -22.4830 H   0  0  0  0  0  0
    5.9383    9.7049  -23.1126 H   0  0  0  0  0  0
   10.2856   10.1757  -21.2965 H   0  0  0  0  0  0
    9.6920   10.4685  -19.6274 H   0  0  0  0  0  0
   10.1079    8.8022  -20.1531 H   0  0  0  0  0  0
  1  2  2  0  0  0
  1  3  1  0  0  0
  1 34  1  0  0  0
  2  6  1  0  0  0
  2 35  1  0  0  0
  3  5  2  0  0  0
  3 27  1  0  0  0
  4  5  1  0  0  0
  4  6  2  0  0  0
  4 18  1  0  0  0
  5 24  1  0  0  0
  6 10  1  0  0  0
  7 10  2  0  0  0
  7 23  1  0  0  0
  7 33  1  0  0  0
  8 21  1  0  0  0
  8 22  1  0  0  0
  8 36  1  0  0  0
  8 37  1  0  0  0
  9 21  1  0  0  0
  9 31  1  0  0  0
  9 38  1  0  0  0
  9 39  1  0  0  0
 10 40  1  0  0  0
 11 12  1  0  0  0
 11 14  2  0  0  0
 11 15  1  0  0  0
 12 17  1  0  0  0
 12 28  2  0  0  0
 13 28  1  0  0  0
 13 29  2  0  0  0
 13 56  1  0  0  0
 14 29  1  0  0  0
 14 31  1  0  0  0
 15 30  2  0  0  0
 15 41  1  0  0  0
 16 17  2  0  0  0
 16 18  1  0  0  0
 16 30  1  0  0  0
 17 26  1  0  0  0
 18 23  2  0  0  0
 19 20  1  0  0  0
 19 31  1  0  0  0
 19 42  1  0  0  0
 19 43  1  0  0  0
 20 22  1  0  0  0
 20 32  1  0  0  0
 20 44  1  0  0  0
 21 32  1  0  0  0
 21 45  1  0  0  0
 22 46  1  0  0  0
 22 47  1  0  0  0
 23 48  1  0  0  0
 24 25  3  0  0  0
 25 49  1  0  0  0
 32 50  1  0  0  0
 33 51  1  0  0  0
 52 57  1  0  0  0
 52 60  1  0  0  0
 53 55  1  0  0  0
 53 56  1  0  0  0
 53 61  1  0  0  0
 54 58  1  0  0  0
 54 60  2  0  0  0
 55 57  1  0  0  0
 55 62  1  0  0  0
 55 63  1  0  0  0
 56 64  1  0  0  0
 56 65  1  0  0  0
 57 58  2  0  0  0
 58 66  1  0  0  0
 59 60  1  0  0  0
 59 67  1  0  0  0
 59 68  1  0  0  0
 59 69  1  0  0  0
M  END
> <s_m_entry_id>
401

> <s_m_entry_name>
000000401.1

> <s_m_Source_Path>
/Users/zaksoul/Documents/2

> <s_m_Source_File>
000000401.mol2

> <i_m_Source_File_Index>
1

$$$$
No_0_425
                    3D
 Schrodinger Suite 2022-4.
 69 75  0  0  1  0            999 V2000
   -5.2780    3.2810  -22.1250 C   0  0  0  0  0  0
   -5.5350    3.4970  -23.4580 C   0  0  0  0  0  0
   -4.0370    3.0550  -21.7760 C   0  0  0  0  0  0
   -3.1250    3.2650  -23.9260 C   0  0  0  0  0  0
   -2.9730    2.9870  -22.5110 C   0  0  0  0  0  0
   -4.4740    3.5010  -24.4560 C   0  0  0  0  0  0
   -3.6950    3.6040  -26.6440 C   0  0  0  0  0  0
    5.9920    3.0140  -21.2840 C   0  0  0  0  0  0
    5.8770    3.2200  -23.8300 C   0  0  0  0  0  0
   -4.7140    3.6570  -25.7910 C   0  0  0  0  0  0
    2.0790    3.6580  -23.8780 C   0  0  0  0  0  0
    1.2220    4.7330  -23.5600 C   0  0  0  0  0  0
    2.9760    5.9630  -22.8280 C   0  0  0  0  0  0
    3.4690    3.8810  -23.5440 C   0  0  0  0  0  0
    1.5730    2.5430  -24.5750 C   0  0  0  0  0  0
   -0.5790    3.2910  -24.4690 C   0  0  0  0  0  0
   -0.0950    4.5090  -23.8320 C   0  0  0  0  0  0
   -2.0270    3.2640  -24.8400 C   0  0  0  0  0  0
    4.1450    1.3950  -23.3100 C   0  0  0  0  0  0
    5.0760    1.0360  -22.1620 C   0  0  2  0  0  0
    6.6290    2.6360  -22.6390 C   0  0  2  0  0  0
    5.0150    2.0050  -20.9700 C   0  0  0  0  0  0
   -2.3410    3.4510  -26.2670 C   0  0  0  0  0  0
   -1.6240    2.5980  -21.9080 C   0  0  0  0  0  0
   -0.5890    2.2670  -21.3990 C   0  0  0  0  0  0
   -0.9710    5.5200  -23.4700 F   0  0  0  0  0  0
   -3.8340    2.7820  -20.3980 F   0  0  0  0  0  0
    1.6590    5.8910  -22.9930 N   0  0  0  0  0  0
    3.9030    5.0330  -23.0620 N   0  0  0  0  0  0
    0.2730    2.4230  -24.8980 N   0  0  0  0  0  0
    4.4200    2.8650  -23.7370 N   0  0  0  0  0  0
    6.4850    1.1570  -22.6260 N   0  0  1  0  0  0
   -3.8530    3.6500  -28.0350 O   0  0  0  0  0  0
   -6.0892    3.3011  -21.4062 H   0  0  0  0  0  0
   -6.5511    3.6707  -23.7933 H   0  0  0  0  0  0
    5.4937    3.9905  -21.3738 H   0  0  0  0  0  0
    6.7693    3.0271  -20.5057 H   0  0  0  0  0  0
    6.2947    2.8123  -24.7624 H   0  0  0  0  0  0
    5.9891    4.3143  -23.8330 H   0  0  0  0  0  0
   -5.7255    3.8216  -26.1442 H   0  0  0  0  0  0
    2.2395    1.7410  -24.8711 H   0  0  0  0  0  0
    3.1004    1.2991  -22.9790 H   0  0  0  0  0  0
    4.3367    0.7241  -24.1604 H   0  0  0  0  0  0
    4.8772    0.0086  -21.8229 H   0  0  0  0  0  0
    7.6898    2.9257  -22.6663 H   0  0  0  0  0  0
    4.0169    2.4652  -20.9246 H   0  0  0  0  0  0
    5.3207    1.4764  -20.0550 H   0  0  0  0  0  0
   -1.5632    3.4741  -27.0217 H   0  0  0  0  0  0
    0.3219    1.9760  -20.9510 H   0  0  0  0  0  0
    7.1391    0.6600  -21.9249 H   0  0  0  0  0  0
   -3.0013    3.5976  -28.4525 H   0  0  0  0  0  0
    7.2180    9.1030  -20.5150 O   0  0  0  0  0  0
    4.2740    7.1480  -21.0390 N   0  0  1  0  0  0
    7.3580    9.9990  -22.4450 N   0  0  0  0  0  0
    4.7620    8.4320  -20.4170 C   0  0  0  0  0  0
    3.4910    7.3050  -22.3180 C   0  0  0  0  0  0
    5.9720    9.0380  -21.1060 C   0  0  0  0  0  0
    6.0610    9.5970  -22.3070 C   0  0  0  0  0  0
    9.4510    9.9720  -21.0810 C   0  0  0  0  0  0
    7.9890    9.6800  -21.3410 C   0  0  0  0  0  0
    5.1189    6.5181  -21.2750 H   0  0  0  0  0  0
    4.9959    8.2561  -19.3566 H   0  0  0  0  0  0
    3.9424    9.1656  -20.4060 H   0  0  0  0  0  0
    4.1300    7.7670  -23.0850 H   0  0  0  0  0  0
    2.6407    7.9813  -22.1459 H   0  0  0  0  0  0
    5.3486    9.7691  -23.1125 H   0  0  0  0  0  0
    9.8862   10.4762  -21.9564 H   0  0  0  0  0  0
    9.5450   10.6222  -20.1987 H   0  0  0  0  0  0
    9.9866    9.0287  -20.8981 H   0  0  0  0  0  0
  1  2  2  0  0  0
  1  3  1  0  0  0
  1 34  1  0  0  0
  2  6  1  0  0  0
  2 35  1  0  0  0
  3  5  2  0  0  0
  3 27  1  0  0  0
  4  5  1  0  0  0
  4  6  2  0  0  0
  4 18  1  0  0  0
  5 24  1  0  0  0
  6 10  1  0  0  0
  7 10  2  0  0  0
  7 23  1  0  0  0
  7 33  1  0  0  0
  8 21  1  0  0  0
  8 22  1  0  0  0
  8 36  1  0  0  0
  8 37  1  0  0  0
  9 21  1  0  0  0
  9 31  1  0  0  0
  9 38  1  0  0  0
  9 39  1  0  0  0
 10 40  1  0  0  0
 11 12  1  0  0  0
 11 14  2  0  0  0
 11 15  1  0  0  0
 12 17  1  0  0  0
 12 28  2  0  0  0
 13 28  1  0  0  0
 13 29  2  0  0  0
 13 56  1  0  0  0
 14 29  1  0  0  0
 14 31  1  0  0  0
 15 30  2  0  0  0
 15 41  1  0  0  0
 16 17  2  0  0  0
 16 18  1  0  0  0
 16 30  1  0  0  0
 17 26  1  0  0  0
 18 23  2  0  0  0
 19 20  1  0  0  0
 19 31  1  0  0  0
 19 42  1  0  0  0
 19 43  1  0  0  0
 20 22  1  0  0  0
 20 32  1  0  0  0
 20 44  1  0  0  0
 21 32  1  0  0  0
 21 45  1  0  0  0
 22 46  1  0  0  0
 22 47  1  0  0  0
 23 48  1  0  0  0
 24 25  3  0  0  0
 25 49  1  0  0  0
 32 50  1  0  0  0
 33 51  1  0  0  0
 52 57  1  0  0  0
 52 60  1  0  0  0
 53 55  1  0  0  0
 53 56  1  0  0  0
 53 61  1  0  0  0
 54 58  1  0  0  0
 54 60  2  0  0  0
 55 57  1  0  0  0
 55 62  1  0  0  0
 55 63  1  0  0  0
 56 64  1  0  0  0
 56 65  1  0  0  0
 57 58  2  0  0  0
 58 66  1  0  0  0
 59 60  1  0  0  0
 59 67  1  0  0  0
 59 68  1  0  0  0
 59 69  1  0  0  0
M  END
> <s_m_entry_id>
402

> <s_m_entry_name>
000000402.1

> <s_m_Source_Path>
/Users/zaksoul/Documents/2

> <s_m_Source_File>
000000402.mol2

> <i_m_Source_File_Index>
1

$$$$
No_0_426
                    3D
 Schrodinger Suite 2022-4.
 69 75  0  0  1  0            999 V2000
   -5.2970    3.3260  -22.1640 C   0  0  0  0  0  0
   -5.5410    3.5240  -23.5020 C   0  0  0  0  0  0
   -4.0590    3.1080  -21.7990 C   0  0  0  0  0  0
   -3.1260    3.2910  -23.9430 C   0  0  0  0  0  0
   -2.9880    3.0330  -22.5230 C   0  0  0  0  0  0
   -4.4700    3.5170  -24.4900 C   0  0  0  0  0  0
   -3.6690    3.5920  -26.6710 C   0  0  0  0  0  0
    5.9640    3.0980  -21.2050 C   0  0  0  0  0  0
    5.8750    3.2690  -23.7550 C   0  0  0  0  0  0
   -4.6970    3.6540  -25.8290 C   0  0  0  0  0  0
    2.0760    3.6960  -23.8480 C   0  0  0  0  0  0
    1.2140    4.7740  -23.5530 C   0  0  0  0  0  0
    2.9580    6.0180  -22.8190 C   0  0  0  0  0  0
    3.4630    3.9280  -23.5020 C   0  0  0  0  0  0
    1.5800    2.5710  -24.5340 C   0  0  0  0  0  0
   -0.5740    3.3150  -24.4600 C   0  0  0  0  0  0
   -0.0990    4.5440  -23.8340 C   0  0  0  0  0  0
   -2.0190    3.2800  -24.8460 C   0  0  0  0  0  0
    4.1420    1.4470  -23.2280 C   0  0  0  0  0  0
    5.0610    1.1060  -22.0660 C   0  0  2  0  0  0
    6.6150    2.7030  -22.5480 C   0  0  2  0  0  0
    4.9870    2.0900  -20.8870 C   0  0  0  0  0  0
   -2.3190    3.4480  -26.2780 C   0  0  0  0  0  0
   -1.6440    2.6550  -21.9000 C   0  0  0  0  0  0
   -0.6140    2.3330  -21.3760 C   0  0  0  0  0  0
   -0.9810    5.5570  -23.4950 F   0  0  0  0  0  0
   -3.8700    2.8540  -20.4160 F   0  0  0  0  0  0
    1.6420    5.9410  -22.9960 N   0  0  0  0  0  0
    3.8890    5.0870  -23.0320 N   0  0  0  0  0  0
    0.2840    2.4440  -24.8690 N   0  0  0  0  0  0
    4.4170    2.9120  -23.6720 N   0  0  0  0  0  0
    6.4750    1.2240  -22.5170 N   0  0  1  0  0  0
   -3.8130    3.6190  -28.0640 O   0  0  0  0  0  0
   -6.1155    3.3541  -21.4538 H   0  0  0  0  0  0
   -6.5539    3.6906  -23.8503 H   0  0  0  0  0  0
    5.4644    4.0720  -21.3130 H   0  0  0  0  0  0
    6.7330    3.1232  -20.4189 H   0  0  0  0  0  0
    6.3029    2.8492  -24.6773 H   0  0  0  0  0  0
    5.9840    4.3635  -23.7712 H   0  0  0  0  0  0
   -5.7053    3.8117  -26.1945 H   0  0  0  0  0  0
    2.2516    1.7669  -24.8121 H   0  0  0  0  0  0
    3.0946    1.3522  -22.9054 H   0  0  0  0  0  0
    4.3439    0.7646  -24.0668 H   0  0  0  0  0  0
    4.8624    0.0826  -21.7151 H   0  0  0  0  0  0
    7.6755    2.9946  -22.5682 H   0  0  0  0  0  0
    3.9877    2.5488  -20.8588 H   0  0  0  0  0  0
    5.2837    1.5744  -19.9617 H   0  0  0  0  0  0
   -1.5328    3.4620  -27.0241 H   0  0  0  0  0  0
    0.2930    2.0500  -20.9150 H   0  0  0  0  0  0
    7.1229    0.7376  -21.8028 H   0  0  0  0  0  0
   -2.9568    3.5636  -28.4718 H   0  0  0  0  0  0
    7.3230    9.3510  -21.0760 O   0  0  0  0  0  0
    4.4690    7.2070  -21.2090 N   0  0  1  0  0  0
    7.0620   10.3510  -22.9420 N   0  0  0  0  0  0
    4.9720    8.4910  -20.6000 C   0  0  0  0  0  0
    3.4640    7.3680  -22.3220 C   0  0  0  0  0  0
    6.0000    9.2220  -21.4480 C   0  0  0  0  0  0
    5.8400    9.8450  -22.6090 C   0  0  0  0  0  0
    9.3600   10.4140  -21.9610 C   0  0  0  0  0  0
    7.8980   10.0250  -21.9840 C   0  0  0  0  0  0
    5.2993    6.6558  -21.6252 H   0  0  0  0  0  0
    5.3993    8.2809  -19.6084 H   0  0  0  0  0  0
    4.1207    9.1592  -20.4029 H   0  0  0  0  0  0
    3.9268    7.9148  -23.1567 H   0  0  0  0  0  0
    2.6144    7.9684  -21.9647 H   0  0  0  0  0  0
    4.9873   10.0029  -23.2677 H   0  0  0  0  0  0
    9.6000   10.9930  -22.8650 H   0  0  0  0  0  0
    9.5641   11.0253  -21.0696 H   0  0  0  0  0  0
    9.9808    9.5063  -21.9330 H   0  0  0  0  0  0
  1  2  2  0  0  0
  1  3  1  0  0  0
  1 34  1  0  0  0
  2  6  1  0  0  0
  2 35  1  0  0  0
  3  5  2  0  0  0
  3 27  1  0  0  0
  4  5  1  0  0  0
  4  6  2  0  0  0
  4 18  1  0  0  0
  5 24  1  0  0  0
  6 10  1  0  0  0
  7 10  2  0  0  0
  7 23  1  0  0  0
  7 33  1  0  0  0
  8 21  1  0  0  0
  8 22  1  0  0  0
  8 36  1  0  0  0
  8 37  1  0  0  0
  9 21  1  0  0  0
  9 31  1  0  0  0
  9 38  1  0  0  0
  9 39  1  0  0  0
 10 40  1  0  0  0
 11 12  1  0  0  0
 11 14  2  0  0  0
 11 15  1  0  0  0
 12 17  1  0  0  0
 12 28  2  0  0  0
 13 28  1  0  0  0
 13 29  2  0  0  0
 13 56  1  0  0  0
 14 29  1  0  0  0
 14 31  1  0  0  0
 15 30  2  0  0  0
 15 41  1  0  0  0
 16 17  2  0  0  0
 16 18  1  0  0  0
 16 30  1  0  0  0
 17 26  1  0  0  0
 18 23  2  0  0  0
 19 20  1  0  0  0
 19 31  1  0  0  0
 19 42  1  0  0  0
 19 43  1  0  0  0
 20 22  1  0  0  0
 20 32  1  0  0  0
 20 44  1  0  0  0
 21 32  1  0  0  0
 21 45  1  0  0  0
 22 46  1  0  0  0
 22 47  1  0  0  0
 23 48  1  0  0  0
 24 25  3  0  0  0
 25 49  1  0  0  0
 32 50  1  0  0  0
 33 51  1  0  0  0
 52 57  1  0  0  0
 52 60  1  0  0  0
 53 55  1  0  0  0
 53 56  1  0  0  0
 53 61  1  0  0  0
 54 58  1  0  0  0
 54 60  2  0  0  0
 55 57  1  0  0  0
 55 62  1  0  0  0
 55 63  1  0  0  0
 56 64  1  0  0  0
 56 65  1  0  0  0
 57 58  2  0  0  0
 58 66  1  0  0  0
 59 60  1  0  0  0
 59 67  1  0  0  0
 59 68  1  0  0  0
 59 69  1  0  0  0
M  END
> <s_m_entry_id>
403

> <s_m_entry_name>
000000403.1

> <s_m_Source_Path>
/Users/zaksoul/Documents/2

> <s_m_Source_File>
000000403.mol2

> <i_m_Source_File_Index>
1

$$$$
No_0_427
                    3D
 Schrodinger Suite 2022-4.
 72 78  0  0  1  0            999 V2000
   -5.2290    3.4080  -22.3820 C   0  0  0  0  0  0
   -5.4590    3.5680  -23.7280 C   0  0  0  0  0  0
   -3.9960    3.1900  -22.0000 C   0  0  0  0  0  0
   -3.0420    3.3020  -24.1390 C   0  0  0  0  0  0
   -2.9190    3.0850  -22.7110 C   0  0  0  0  0  0
   -4.3790    3.5240  -24.7050 C   0  0  0  0  0  0
   -3.5580    3.5270  -26.8800 C   0  0  0  0  0  0
    6.0210    3.1120  -21.3130 C   0  0  0  0  0  0
    5.9560    3.2090  -23.8670 C   0  0  0  0  0  0
   -4.5930    3.6230  -26.0490 C   0  0  0  0  0  0
    2.1620    3.6660  -24.0080 C   0  0  0  0  0  0
    1.3070    4.7590  -23.7520 C   0  0  0  0  0  0
    3.0550    6.0090  -23.0400 C   0  0  0  0  0  0
    3.5480    3.8950  -23.6560 C   0  0  0  0  0  0
    1.6620    2.5250  -24.6650 C   0  0  0  0  0  0
   -0.4860    3.2890  -24.6330 C   0  0  0  0  0  0
   -0.0060    4.5320  -24.0400 C   0  0  0  0  0  0
   -1.9270    3.2550  -25.0310 C   0  0  0  0  0  0
    4.2020    1.4180  -23.3030 C   0  0  0  0  0  0
    5.1080    1.1030  -22.1220 C   0  0  2  0  0  0
    6.6810    2.6720  -22.6380 C   0  0  2  0  0  0
    5.0320    2.1230  -20.9740 C   0  0  0  0  0  0
   -2.2120    3.3830  -26.4700 C   0  0  0  0  0  0
   -1.5850    2.7140  -22.0650 C   0  0  0  0  0  0
   -0.5620    2.3990  -21.5220 C   0  0  0  0  0  0
   -0.8820    5.5620  -23.7390 F   0  0  0  0  0  0
   -3.8220    2.9760  -20.6080 F   0  0  0  0  0  0
    1.7400    5.9380  -23.2270 N   0  0  0  0  0  0
    3.9800    5.0640  -23.2160 N   0  0  0  0  0  0
    0.3680    2.4000  -25.0080 N   0  0  0  0  0  0
    4.4950    2.8670  -23.7870 N   0  0  0  0  0  0
    6.5270    1.1960  -22.5640 N   0  0  1  0  0  0
   -3.6890    3.5140  -28.2740 O   0  0  0  0  0  0
   -6.0537    3.4642  -21.6807 H   0  0  0  0  0  0
   -6.4674    3.7337  -24.0896 H   0  0  0  0  0  0
    5.5307    4.0866  -21.4532 H   0  0  0  0  0  0
    6.7830    3.1534  -20.5207 H   0  0  0  0  0  0
    6.3889    2.7580  -24.7721 H   0  0  0  0  0  0
    6.0751    4.3015  -23.9145 H   0  0  0  0  0  0
   -5.5965    3.7777  -26.4287 H   0  0  0  0  0  0
    2.3284    1.7071  -24.9139 H   0  0  0  0  0  0
    3.1510    1.3424  -22.9873 H   0  0  0  0  0  0
    4.4059    0.7096  -24.1194 H   0  0  0  0  0  0
    4.8969    0.0921  -21.7433 H   0  0  0  0  0  0
    7.7439    2.9546  -22.6572 H   0  0  0  0  0  0
    4.0365    2.5910  -20.9679 H   0  0  0  0  0  0
    5.3156    1.6324  -20.0312 H   0  0  0  0  0  0
   -1.4199    3.3689  -27.2099 H   0  0  0  0  0  0
    0.3384    2.1219  -21.0448 H   0  0  0  0  0  0
    7.1641    0.7257  -21.8296 H   0  0  0  0  0  0
   -2.8300    3.4388  -28.6728 H   0  0  0  0  0  0
    6.8200    8.6130  -19.8460 O   0  0  0  0  0  0
    3.8580    7.3640  -21.1010 N   0  0  1  0  0  0
    7.7940    9.2880  -21.6200 N   0  0  0  0  0  0
    3.5690    7.3680  -22.5780 C   0  0  0  0  0  0
    5.8530    8.8620  -20.7980 C   0  0  0  0  0  0
    4.3700    8.6660  -20.5430 C   0  0  0  0  0  0
    9.2690    8.7480  -19.6690 C   0  0  0  0  0  0
    7.9390    8.8840  -20.3790 C   0  0  0  0  0  0
    6.4590    9.2810  -21.9020 C   0  0  0  0  0  0
   10.2470    9.8810  -20.0180 C   0  0  0  0  0  0
    2.9539    7.1322  -20.5576 H   0  0  0  0  0  0
    4.4866    7.6199  -23.1298 H   0  0  0  0  0  0
    2.8170    8.1390  -22.8020 H   0  0  0  0  0  0
    4.1779    8.7010  -19.4605 H   0  0  0  0  0  0
    3.8092    9.5007  -20.9888 H   0  0  0  0  0  0
    9.7242    7.7805  -19.9271 H   0  0  0  0  0  0
    9.1020    8.7300  -18.5819 H   0  0  0  0  0  0
    6.1078    9.5862  -22.8866 H   0  0  0  0  0  0
   11.1915    9.7299  -19.4747 H   0  0  0  0  0  0
   10.4421    9.8780  -21.1006 H   0  0  0  0  0  0
    9.8080   10.8470  -19.7280 H   0  0  0  0  0  0
  1  2  2  0  0  0
  1  3  1  0  0  0
  1 34  1  0  0  0
  2  6  1  0  0  0
  2 35  1  0  0  0
  3  5  2  0  0  0
  3 27  1  0  0  0
  4  5  1  0  0  0
  4  6  2  0  0  0
  4 18  1  0  0  0
  5 24  1  0  0  0
  6 10  1  0  0  0
  7 10  2  0  0  0
  7 23  1  0  0  0
  7 33  1  0  0  0
  8 21  1  0  0  0
  8 22  1  0  0  0
  8 36  1  0  0  0
  8 37  1  0  0  0
  9 21  1  0  0  0
  9 31  1  0  0  0
  9 38  1  0  0  0
  9 39  1  0  0  0
 10 40  1  0  0  0
 11 12  1  0  0  0
 11 14  2  0  0  0
 11 15  1  0  0  0
 12 17  1  0  0  0
 12 28  2  0  0  0
 13 28  1  0  0  0
 13 29  2  0  0  0
 13 55  1  0  0  0
 14 29  1  0  0  0
 14 31  1  0  0  0
 15 30  2  0  0  0
 15 41  1  0  0  0
 16 17  2  0  0  0
 16 18  1  0  0  0
 16 30  1  0  0  0
 17 26  1  0  0  0
 18 23  2  0  0  0
 19 20  1  0  0  0
 19 31  1  0  0  0
 19 42  1  0  0  0
 19 43  1  0  0  0
 20 22  1  0  0  0
 20 32  1  0  0  0
 20 44  1  0  0  0
 21 32  1  0  0  0
 21 45  1  0  0  0
 22 46  1  0  0  0
 22 47  1  0  0  0
 23 48  1  0  0  0
 24 25  3  0  0  0
 25 49  1  0  0  0
 32 50  1  0  0  0
 33 51  1  0  0  0
 52 56  1  0  0  0
 52 59  1  0  0  0
 53 55  1  0  0  0
 53 57  1  0  0  0
 53 62  1  0  0  0
 54 59  2  0  0  0
 54 60  1  0  0  0
 55 63  1  0  0  0
 55 64  1  0  0  0
 56 57  1  0  0  0
 56 60  2  0  0  0
 57 65  1  0  0  0
 57 66  1  0  0  0
 58 59  1  0  0  0
 58 61  1  0  0  0
 58 67  1  0  0  0
 58 68  1  0  0  0
 60 69  1  0  0  0
 61 70  1  0  0  0
 61 71  1  0  0  0
 61 72  1  0  0  0
M  END
> <s_m_entry_id>
404

> <s_m_entry_name>
000000404.1

> <s_m_Source_Path>
/Users/zaksoul/Documents/2

> <s_m_Source_File>
000000404.mol2

> <i_m_Source_File_Index>
1

$$$$
No_0_428
                    3D
 Schrodinger Suite 2022-4.
 71 77  0  0  1  0            999 V2000
   -4.8670    3.5520  -22.0130 C   0  0  0  0  0  0
   -5.1470    3.7500  -23.3440 C   0  0  0  0  0  0
   -3.6250    3.2950  -21.6870 C   0  0  0  0  0  0
   -2.7570    3.4340  -23.8610 C   0  0  0  0  0  0
   -2.5810    3.1800  -22.4440 C   0  0  0  0  0  0
   -4.1100    3.7020  -24.3660 C   0  0  0  0  0  0
   -3.3780    3.7380  -26.5720 C   0  0  0  0  0  0
    6.4060    2.9540  -21.4160 C   0  0  0  0  0  0
    6.2400    3.1130  -23.9630 C   0  0  0  0  0  0
   -4.3750    3.8390  -25.6980 C   0  0  0  0  0  0
    2.4560    3.6670  -23.9360 C   0  0  0  0  0  0
    1.6400    4.7750  -23.6210 C   0  0  0  0  0  0
    3.4470    5.9630  -22.9520 C   0  0  0  0  0  0
    3.8600    3.8540  -23.6370 C   0  0  0  0  0  0
    1.9010    2.5550  -24.5990 C   0  0  0  0  0  0
   -0.2240    3.3710  -24.4600 C   0  0  0  0  0  0
    0.3110    4.5860  -23.8590 C   0  0  0  0  0  0
   -1.6800    3.3810  -24.7990 C   0  0  0  0  0  0
    4.4650    1.3530  -23.3680 C   0  0  0  0  0  0
    5.4100    0.9880  -22.2340 C   0  0  2  0  0  0
    7.0000    2.5300  -22.7770 C   0  0  2  0  0  0
    5.4060    1.9810  -21.0600 C   0  0  0  0  0  0
   -2.0210    3.5510  -26.2220 C   0  0  0  0  0  0
   -1.2310    2.7610  -21.8630 C   0  0  0  0  0  0
   -0.1960    2.4080  -21.3710 C   0  0  0  0  0  0
   -0.5250    5.6300  -23.4980 F   0  0  0  0  0  0
   -3.4000    3.0430  -20.3090 F   0  0  0  0  0  0
    2.1250    5.9290  -23.0870 N   0  0  0  0  0  0
    4.3400    5.0010  -23.1890 N   0  0  0  0  0  0
    0.5910    2.4700  -24.8910 N   0  0  0  0  0  0
    4.7750    2.8050  -23.8310 N   0  0  0  0  0  0
    6.8120    1.0560  -22.7310 N   0  0  1  0  0  0
   -3.5660    3.7620  -27.9600 O   0  0  0  0  0  0
   -5.6609    3.6112  -21.2773 H   0  0  0  0  0  0
   -6.1647    3.9487  -23.6601 H   0  0  0  0  0  0
    5.9355    3.9434  -21.5149 H   0  0  0  0  0  0
    7.2008    2.9580  -20.6555 H   0  0  0  0  0  0
    6.6233    2.6742  -24.8960 H   0  0  0  0  0  0
    6.3843    4.2031  -23.9903 H   0  0  0  0  0  0
   -5.3891    4.0278  -26.0313 H   0  0  0  0  0  0
    2.5355    1.7268  -24.8931 H   0  0  0  0  0  0
    3.4258    1.2955  -23.0119 H   0  0  0  0  0  0
    4.6173    0.6610  -24.2093 H   0  0  0  0  0  0
    5.1889   -0.0264  -21.8706 H   0  0  0  0  0  0
    8.0684    2.7855  -22.8346 H   0  0  0  0  0  0
    4.4241    2.4735  -21.0025 H   0  0  0  0  0  0
    5.7159    1.4612  -20.1414 H   0  0  0  0  0  0
   -1.2596    3.5349  -26.9934 H   0  0  0  0  0  0
    0.7156    2.0981  -20.9372 H   0  0  0  0  0  0
    7.4664    0.5524  -22.0349 H   0  0  0  0  0  0
   -2.7256    3.6759  -28.3945 H   0  0  0  0  0  0
    4.7560    7.1430  -21.1800 N   0  0  1  0  0  0
    8.0440    7.6560  -20.4790 N   0  0  0  0  0  0
    8.8760    8.1780  -22.4310 N   0  0  0  0  0  0
    5.6070    8.3260  -20.7950 C   0  0  0  0  0  0
    7.0490    8.1660  -21.2540 C   0  0  0  0  0  0
    4.0140    7.2980  -22.4810 C   0  0  0  0  0  0
    7.9550    7.1950  -19.0880 C   0  0  0  0  0  0
    9.1610    7.6820  -21.2430 C   0  0  0  0  0  0
    7.5430    8.4870  -22.4490 C   0  0  0  0  0  0
    5.3799    6.2672  -21.2810 H   0  0  0  0  0  0
    9.6154    8.2680  -23.1424 H   0  0  0  0  0  0
    5.5840    8.4529  -19.7026 H   0  0  0  0  0  0
    5.1830    9.2411  -21.2341 H   0  0  0  0  0  0
    4.6961    7.6971  -23.2461 H   0  0  0  0  0  0
    3.1934    8.0187  -22.3501 H   0  0  0  0  0  0
    8.9416    6.8402  -18.7551 H   0  0  0  0  0  0
    7.6289    8.0263  -18.4457 H   0  0  0  0  0  0
    7.2282    6.3722  -19.0190 H   0  0  0  0  0  0
   10.1016    7.3242  -20.8402 H   0  0  0  0  0  0
    7.0980    8.9110  -23.3419 H   0  0  0  0  0  0
  1  2  2  0  0  0
  1  3  1  0  0  0
  1 34  1  0  0  0
  2  6  1  0  0  0
  2 35  1  0  0  0
  3  5  2  0  0  0
  3 27  1  0  0  0
  4  5  1  0  0  0
  4  6  2  0  0  0
  4 18  1  0  0  0
  5 24  1  0  0  0
  6 10  1  0  0  0
  7 10  2  0  0  0
  7 23  1  0  0  0
  7 33  1  0  0  0
  8 21  1  0  0  0
  8 22  1  0  0  0
  8 36  1  0  0  0
  8 37  1  0  0  0
  9 21  1  0  0  0
  9 31  1  0  0  0
  9 38  1  0  0  0
  9 39  1  0  0  0
 10 40  1  0  0  0
 11 12  2  0  0  0
 11 14  1  0  0  0
 11 15  1  0  0  0
 12 17  1  0  0  0
 12 28  1  0  0  0
 13 28  2  0  0  0
 13 29  1  0  0  0
 13 57  1  0  0  0
 14 29  2  0  0  0
 14 31  1  0  0  0
 15 30  2  0  0  0
 15 41  1  0  0  0
 16 17  2  0  0  0
 16 18  1  0  0  0
 16 30  1  0  0  0
 17 26  1  0  0  0
 18 23  2  0  0  0
 19 20  1  0  0  0
 19 31  1  0  0  0
 19 42  1  0  0  0
 19 43  1  0  0  0
 20 22  1  0  0  0
 20 32  1  0  0  0
 20 44  1  0  0  0
 21 32  1  0  0  0
 21 45  1  0  0  0
 22 46  1  0  0  0
 22 47  1  0  0  0
 23 48  1  0  0  0
 24 25  3  0  0  0
 25 49  1  0  0  0
 32 50  1  0  0  0
 33 51  1  0  0  0
 52 55  1  0  0  0
 52 57  1  0  0  0
 52 61  1  0  0  0
 53 56  1  0  0  0
 53 58  1  0  0  0
 53 59  1  0  0  0
 54 59  1  0  0  0
 54 60  1  0  0  0
 54 62  1  0  0  0
 55 56  1  0  0  0
 55 63  1  0  0  0
 55 64  1  0  0  0
 56 60  2  0  0  0
 57 65  1  0  0  0
 57 66  1  0  0  0
 58 67  1  0  0  0
 58 68  1  0  0  0
 58 69  1  0  0  0
 59 70  1  0  0  0
 60 71  1  0  0  0
M  END
> <s_m_entry_id>
405

> <s_m_entry_name>
000000405.1

> <s_m_Source_Path>
/Users/zaksoul/Documents/2

> <s_m_Source_File>
000000405.mol2

> <i_m_Source_File_Index>
1

$$$$
No_0_429
                    3D
 Schrodinger Suite 2022-4.
 71 77  0  0  1  0            999 V2000
   -5.3720    3.2650  -22.2590 C   0  0  0  0  0  0
   -5.5950    3.4600  -23.6020 C   0  0  0  0  0  0
   -4.1410    3.0400  -21.8770 C   0  0  0  0  0  0
   -3.1770    3.2100  -24.0080 C   0  0  0  0  0  0
   -3.0600    2.9550  -22.5850 C   0  0  0  0  0  0
   -4.5110    3.4440  -24.5740 C   0  0  0  0  0  0
   -3.6800    3.5060  -26.7440 C   0  0  0  0  0  0
    5.8730    2.9640  -21.1420 C   0  0  0  0  0  0
    5.8210    3.1280  -23.6930 C   0  0  0  0  0  0
   -4.7180    3.5780  -25.9170 C   0  0  0  0  0  0
    2.0260    3.5810  -23.8400 C   0  0  0  0  0  0
    1.1670    4.6660  -23.5610 C   0  0  0  0  0  0
    2.9090    5.8990  -22.8060 C   0  0  0  0  0  0
    3.4090    3.8040  -23.4760 C   0  0  0  0  0  0
    1.5320    2.4570  -24.5310 C   0  0  0  0  0  0
   -0.6180    3.2160  -24.4890 C   0  0  0  0  0  0
   -0.1430    4.4430  -23.8600 C   0  0  0  0  0  0
   -2.0570    3.1890  -24.8950 C   0  0  0  0  0  0
    4.0680    1.3190  -23.1850 C   0  0  0  0  0  0
    4.9690    0.9750  -22.0090 C   0  0  2  0  0  0
    6.5400    2.5610  -22.4750 C   0  0  2  0  0  0
    4.8840    1.9640  -20.8340 C   0  0  0  0  0  0
   -2.3350    3.3540  -26.3320 C   0  0  0  0  0  0
   -1.7280    2.5700  -21.9430 C   0  0  0  0  0  0
   -0.7070    2.2430  -21.4030 C   0  0  0  0  0  0
   -1.0230    5.4630  -23.5370 F   0  0  0  0  0  0
   -3.9730    2.7890  -20.4900 F   0  0  0  0  0  0
    1.5960    5.8310  -23.0020 N   0  0  0  0  0  0
    3.8370    4.9620  -23.0030 N   0  0  0  0  0  0
    0.2400    2.3380  -24.8830 N   0  0  0  0  0  0
    4.3600    2.7810  -23.6300 N   0  0  0  0  0  0
    6.3900    1.0830  -22.4410 N   0  0  1  0  0  0
   -3.8030    3.5300  -28.1390 O   0  0  0  0  0  0
   -6.2006    3.3012  -21.5610 H   0  0  0  0  0  0
   -6.6021    3.6325  -23.9641 H   0  0  0  0  0  0
    5.3806    3.9407  -21.2590 H   0  0  0  0  0  0
    6.6307    2.9862  -20.3449 H   0  0  0  0  0  0
    6.2590    2.7032  -24.6083 H   0  0  0  0  0  0
    5.9370    4.2217  -23.7112 H   0  0  0  0  0  0
   -5.7202    3.7407  -26.2966 H   0  0  0  0  0  0
    2.2015    1.6470  -24.7970 H   0  0  0  0  0  0
    3.0154    1.2332  -22.8772 H   0  0  0  0  0  0
    4.2769    0.6337  -24.0197 H   0  0  0  0  0  0
    4.7569   -0.0459  -21.6586 H   0  0  0  0  0  0
    7.6025    2.8456  -22.4811 H   0  0  0  0  0  0
    3.8874    2.4295  -20.8219 H   0  0  0  0  0  0
    5.1646    1.4492  -19.9033 H   0  0  0  0  0  0
   -1.5385    3.3620  -27.0672 H   0  0  0  0  0  0
    0.1914    1.9549  -20.9288 H   0  0  0  0  0  0
    7.0241    0.5943  -21.7160 H   0  0  0  0  0  0
   -2.9417    3.4676  -28.5350 H   0  0  0  0  0  0
    4.4020    7.0710  -21.1810 N   0  0  1  0  0  0
    7.6950    7.9060  -21.0240 N   0  0  0  0  0  0
    8.0900    8.6850  -23.0270 N   0  0  0  0  0  0
    5.1880    8.3100  -20.8310 C   0  0  0  0  0  0
    6.5260    8.3590  -21.5530 C   0  0  0  0  0  0
    3.4180    7.2470  -22.3060 C   0  0  0  0  0  0
    7.9160    7.3230  -19.6950 C   0  0  0  0  0  0
    8.6410    8.1280  -21.9660 C   0  0  0  0  0  0
    6.7530    8.8350  -22.7770 C   0  0  0  0  0  0
    5.0807    6.2863  -21.4809 H   0  0  0  0  0  0
    8.6699    8.9210  -23.8449 H   0  0  0  0  0  0
    5.3569    8.3410  -19.7445 H   0  0  0  0  0  0
    4.5989    9.2021  -21.0900 H   0  0  0  0  0  0
    3.9006    7.7865  -23.1343 H   0  0  0  0  0  0
    2.5683    7.8528  -21.9581 H   0  0  0  0  0  0
    8.9780    7.0600  -19.5810 H   0  0  0  0  0  0
    7.6340    8.0530  -18.9220 H   0  0  0  0  0  0
    7.3014    6.4175  -19.5841 H   0  0  0  0  0  0
    9.6714    7.8502  -21.7761 H   0  0  0  0  0  0
    6.1079    9.2781  -23.5271 H   0  0  0  0  0  0
  1  2  2  0  0  0
  1  3  1  0  0  0
  1 34  1  0  0  0
  2  6  1  0  0  0
  2 35  1  0  0  0
  3  5  2  0  0  0
  3 27  1  0  0  0
  4  5  1  0  0  0
  4  6  2  0  0  0
  4 18  1  0  0  0
  5 24  1  0  0  0
  6 10  1  0  0  0
  7 10  2  0  0  0
  7 23  1  0  0  0
  7 33  1  0  0  0
  8 21  1  0  0  0
  8 22  1  0  0  0
  8 36  1  0  0  0
  8 37  1  0  0  0
  9 21  1  0  0  0
  9 31  1  0  0  0
  9 38  1  0  0  0
  9 39  1  0  0  0
 10 40  1  0  0  0
 11 12  2  0  0  0
 11 14  1  0  0  0
 11 15  1  0  0  0
 12 17  1  0  0  0
 12 28  1  0  0  0
 13 28  2  0  0  0
 13 29  1  0  0  0
 13 57  1  0  0  0
 14 29  2  0  0  0
 14 31  1  0  0  0
 15 30  2  0  0  0
 15 41  1  0  0  0
 16 17  2  0  0  0
 16 18  1  0  0  0
 16 30  1  0  0  0
 17 26  1  0  0  0
 18 23  2  0  0  0
 19 20  1  0  0  0
 19 31  1  0  0  0
 19 42  1  0  0  0
 19 43  1  0  0  0
 20 22  1  0  0  0
 20 32  1  0  0  0
 20 44  1  0  0  0
 21 32  1  0  0  0
 21 45  1  0  0  0
 22 46  1  0  0  0
 22 47  1  0  0  0
 23 48  1  0  0  0
 24 25  3  0  0  0
 25 49  1  0  0  0
 32 50  1  0  0  0
 33 51  1  0  0  0
 52 55  1  0  0  0
 52 57  1  0  0  0
 52 61  1  0  0  0
 53 56  1  0  0  0
 53 58  1  0  0  0
 53 59  1  0  0  0
 54 59  1  0  0  0
 54 60  1  0  0  0
 54 62  1  0  0  0
 55 56  1  0  0  0
 55 63  1  0  0  0
 55 64  1  0  0  0
 56 60  2  0  0  0
 57 65  1  0  0  0
 57 66  1  0  0  0
 58 67  1  0  0  0
 58 68  1  0  0  0
 58 69  1  0  0  0
 59 70  1  0  0  0
 60 71  1  0  0  0
M  END
> <s_m_entry_id>
406

> <s_m_entry_name>
000000406.1

> <s_m_Source_Path>
/Users/zaksoul/Documents/2

> <s_m_Source_File>
000000406.mol2

> <i_m_Source_File_Index>
1

$$$$
No_0_430
                    3D
 Schrodinger Suite 2022-4.
 71 77  0  0  1  0            999 V2000
   -5.3420    3.5620  -22.1870 C   0  0  0  0  0  0
   -5.5470    3.7250  -23.5370 C   0  0  0  0  0  0
   -4.1180    3.3290  -21.7850 C   0  0  0  0  0  0
   -3.1280    3.4290  -23.9080 C   0  0  0  0  0  0
   -3.0310    3.2100  -22.4780 C   0  0  0  0  0  0
   -4.4530    3.6670  -24.4960 C   0  0  0  0  0  0
   -3.5960    3.6600  -26.6570 C   0  0  0  0  0  0
    5.8840    3.1280  -20.9320 C   0  0  0  0  0  0
    5.8630    3.2250  -23.4880 C   0  0  0  0  0  0
   -4.6430    3.7680  -25.8440 C   0  0  0  0  0  0
    2.0780    3.7290  -23.6900 C   0  0  0  0  0  0
    1.2320    4.8330  -23.4490 C   0  0  0  0  0  0
    2.9830    6.0610  -22.7080 C   0  0  0  0  0  0
    3.4600    3.9410  -23.3160 C   0  0  0  0  0  0
    1.5750    2.5950  -24.3570 C   0  0  0  0  0  0
   -0.5640    3.3850  -24.3590 C   0  0  0  0  0  0
   -0.0790    4.6210  -23.7580 C   0  0  0  0  0  0
   -1.9990    3.3680  -24.7810 C   0  0  0  0  0  0
    4.0780    1.4560  -22.9520 C   0  0  0  0  0  0
    4.9610    1.1310  -21.7570 C   0  0  2  0  0  0
    6.5600    2.6800  -22.2460 C   0  0  2  0  0  0
    4.8780    2.1510  -20.6100 C   0  0  0  0  0  0
   -2.2590    3.4990  -26.2250 C   0  0  0  0  0  0
   -1.7120    2.8230  -21.8100 C   0  0  0  0  0  0
   -0.7020    2.4960  -21.2510 C   0  0  0  0  0  0
   -0.9470    5.6620  -23.4710 F   0  0  0  0  0  0
   -3.9700    3.1120  -20.3900 F   0  0  0  0  0  0
    1.6710    6.0060  -22.9160 N   0  0  0  0  0  0
    3.8990    5.1050  -22.8690 N   0  0  0  0  0  0
    0.2850    2.4850  -24.7210 N   0  0  0  0  0  0
    4.3960    2.9010  -23.4320 N   0  0  0  0  0  0
    6.3880    1.2060  -22.1750 N   0  0  1  0  0  0
   -3.7040    3.6490  -28.0530 O   0  0  0  0  0  0
   -6.1773    3.6283  -21.4993 H   0  0  0  0  0  0
   -6.5472    3.9026  -23.9152 H   0  0  0  0  0  0
    5.4088    4.1087  -21.0813 H   0  0  0  0  0  0
    6.6332    3.1603  -20.1272 H   0  0  0  0  0  0
    6.3052    2.7697  -24.3865 H   0  0  0  0  0  0
    5.9952    4.3161  -23.5324 H   0  0  0  0  0  0
   -5.6382    3.9357  -26.2397 H   0  0  0  0  0  0
    2.2351    1.7684  -24.5938 H   0  0  0  0  0  0
    3.0209    1.3935  -22.6544 H   0  0  0  0  0  0
    4.2868    0.7460  -23.7659 H   0  0  0  0  0  0
    4.7309    0.1226  -21.3825 H   0  0  0  0  0  0
    7.6265    2.9494  -22.2480 H   0  0  0  0  0  0
    3.8884    2.6312  -20.6211 H   0  0  0  0  0  0
    5.1404    1.6564  -19.6632 H   0  0  0  0  0  0
   -1.4545    3.4759  -26.9512 H   0  0  0  0  0  0
    0.1866    2.2078  -20.7586 H   0  0  0  0  0  0
    7.0073    0.7279  -21.4305 H   0  0  0  0  0  0
   -2.8393    3.5629  -28.4369 H   0  0  0  0  0  0
    4.7230    7.2520  -21.3670 N   0  0  1  0  0  0
    7.9120    8.3210  -21.8680 N   0  0  0  0  0  0
    7.8070    9.2340  -23.8500 N   0  0  0  0  0  0
    5.4890    8.5250  -21.1100 C   0  0  0  0  0  0
    6.6300    8.7130  -22.0990 C   0  0  0  0  0  0
    3.5060    7.4140  -22.2370 C   0  0  0  0  0  0
    8.4560    7.6850  -20.6620 C   0  0  0  0  0  0
    8.6120    8.6640  -22.9750 C   0  0  0  0  0  0
    6.5520    9.2710  -23.3070 C   0  0  0  0  0  0
    5.3656    6.5374  -21.8597 H   0  0  0  0  0  0
    8.1768    9.5568  -24.7555 H   0  0  0  0  0  0
    5.8918    8.5100  -20.0865 H   0  0  0  0  0  0
    4.8039    9.3832  -21.1740 H   0  0  0  0  0  0
    3.7600    8.0319  -23.1109 H   0  0  0  0  0  0
    2.7182    7.9339  -21.6721 H   0  0  0  0  0  0
    9.5311    7.4960  -20.7980 H   0  0  0  0  0  0
    8.3081    8.3487  -19.7974 H   0  0  0  0  0  0
    7.9372    6.7315  -20.4841 H   0  0  0  0  0  0
    9.6739    8.4540  -23.0320 H   0  0  0  0  0  0
    5.7314    9.7038  -23.8677 H   0  0  0  0  0  0
  1  2  2  0  0  0
  1  3  1  0  0  0
  1 34  1  0  0  0
  2  6  1  0  0  0
  2 35  1  0  0  0
  3  5  2  0  0  0
  3 27  1  0  0  0
  4  5  1  0  0  0
  4  6  2  0  0  0
  4 18  1  0  0  0
  5 24  1  0  0  0
  6 10  1  0  0  0
  7 10  2  0  0  0
  7 23  1  0  0  0
  7 33  1  0  0  0
  8 21  1  0  0  0
  8 22  1  0  0  0
  8 36  1  0  0  0
  8 37  1  0  0  0
  9 21  1  0  0  0
  9 31  1  0  0  0
  9 38  1  0  0  0
  9 39  1  0  0  0
 10 40  1  0  0  0
 11 12  2  0  0  0
 11 14  1  0  0  0
 11 15  1  0  0  0
 12 17  1  0  0  0
 12 28  1  0  0  0
 13 28  2  0  0  0
 13 29  1  0  0  0
 13 57  1  0  0  0
 14 29  2  0  0  0
 14 31  1  0  0  0
 15 30  2  0  0  0
 15 41  1  0  0  0
 16 17  2  0  0  0
 16 18  1  0  0  0
 16 30  1  0  0  0
 17 26  1  0  0  0
 18 23  2  0  0  0
 19 20  1  0  0  0
 19 31  1  0  0  0
 19 42  1  0  0  0
 19 43  1  0  0  0
 20 22  1  0  0  0
 20 32  1  0  0  0
 20 44  1  0  0  0
 21 32  1  0  0  0
 21 45  1  0  0  0
 22 46  1  0  0  0
 22 47  1  0  0  0
 23 48  1  0  0  0
 24 25  3  0  0  0
 25 49  1  0  0  0
 32 50  1  0  0  0
 33 51  1  0  0  0
 52 55  1  0  0  0
 52 57  1  0  0  0
 52 61  1  0  0  0
 53 56  1  0  0  0
 53 58  1  0  0  0
 53 59  1  0  0  0
 54 59  1  0  0  0
 54 60  1  0  0  0
 54 62  1  0  0  0
 55 56  1  0  0  0
 55 63  1  0  0  0
 55 64  1  0  0  0
 56 60  2  0  0  0
 57 65  1  0  0  0
 57 66  1  0  0  0
 58 67  1  0  0  0
 58 68  1  0  0  0
 58 69  1  0  0  0
 59 70  1  0  0  0
 60 71  1  0  0  0
M  END
> <s_m_entry_id>
407

> <s_m_entry_name>
000000407.1

> <s_m_Source_Path>
/Users/zaksoul/Documents/2

> <s_m_Source_File>
000000407.mol2

> <i_m_Source_File_Index>
1

$$$$
No_0_431
                    3D
 Schrodinger Suite 2022-4.
 68 74  0  0  1  0            999 V2000
   -5.1960    3.3780  -21.9450 C   0  0  0  0  0  0
   -5.4640    3.5320  -23.2850 C   0  0  0  0  0  0
   -3.9540    3.1550  -21.5980 C   0  0  0  0  0  0
   -3.0620    3.2500  -23.7640 C   0  0  0  0  0  0
   -2.8990    3.0400  -22.3390 C   0  0  0  0  0  0
   -4.4130    3.4760  -24.2930 C   0  0  0  0  0  0
   -3.6560    3.4630  -26.4900 C   0  0  0  0  0  0
    6.0780    3.0230  -21.2000 C   0  0  0  0  0  0
    5.9400    3.1060  -23.7520 C   0  0  0  0  0  0
   -4.6650    3.5690  -25.6310 C   0  0  0  0  0  0
    2.1460    3.5840  -23.7850 C   0  0  0  0  0  0
    1.3050    4.6840  -23.5110 C   0  0  0  0  0  0
    3.0800    5.9270  -22.8560 C   0  0  0  0  0  0
    3.5420    3.8080  -23.4750 C   0  0  0  0  0  0
    1.6210    2.4430  -24.4220 C   0  0  0  0  0  0
   -0.5210    3.2200  -24.3320 C   0  0  0  0  0  0
   -0.0170    4.4630  -23.7590 C   0  0  0  0  0  0
   -1.9730    3.1920  -24.6870 C   0  0  0  0  0  0
    4.1930    1.3280  -23.1270 C   0  0  0  0  0  0
    5.1310    1.0150  -21.9720 C   0  0  2  0  0  0
    6.6970    2.5720  -22.5410 C   0  0  2  0  0  0
    5.0930    2.0410  -20.8270 C   0  0  0  0  0  0
   -2.2990    3.3140  -26.1190 C   0  0  0  0  0  0
   -1.5480    2.6640  -21.7300 C   0  0  0  0  0  0
   -0.5120    2.3470  -21.2150 C   0  0  0  0  0  0
   -0.8780    5.4990  -23.4390 F   0  0  0  0  0  0
   -3.7410    2.9470  -20.2100 F   0  0  0  0  0  0
    1.7600    5.8630  -23.0050 N   0  0  0  0  0  0
    3.9940    4.9760  -23.0540 N   0  0  0  0  0  0
    0.3170    2.3230  -24.7260 N   0  0  0  0  0  0
    4.4800    2.7730  -23.6280 N   0  0  0  0  0  0
    6.5370    1.0970  -22.4540 N   0  0  1  0  0  0
   -3.8270    3.4440  -27.8800 O   0  0  0  0  0  0
   -6.0003    3.4423  -21.2211 H   0  0  0  0  0  0
   -6.4814    3.7017  -23.6184 H   0  0  0  0  0  0
    5.5892    3.9996  -21.3313 H   0  0  0  0  0  0
    6.8623    3.0644  -20.4298 H   0  0  0  0  0  0
    6.3440    2.6484  -24.6671 H   0  0  0  0  0  0
    6.0631    4.1976  -23.8085 H   0  0  0  0  0  0
   -5.6780    3.7286  -25.9824 H   0  0  0  0  0  0
    2.2755    1.6199  -24.6850 H   0  0  0  0  0  0
    3.1510    1.2604  -22.7810 H   0  0  0  0  0  0
    4.3687    0.6150  -23.9460 H   0  0  0  0  0  0
    4.9251    0.0075  -21.5813 H   0  0  0  0  0  0
    7.7607    2.8475  -22.5925 H   0  0  0  0  0  0
    4.1010    2.5153  -20.7957 H   0  0  0  0  0  0
    5.4018    1.5536  -19.8905 H   0  0  0  0  0  0
   -1.5282    3.2909  -26.8808 H   0  0  0  0  0  0
    0.4003    2.0669  -20.7629 H   0  0  0  0  0  0
    7.1926    0.6264  -21.7363 H   0  0  0  0  0  0
   -2.9801    3.3619  -28.3025 H   0  0  0  0  0  0
    3.9450    7.2860  -20.9470 N   0  0  1  0  0  0
    7.6520   10.0580  -21.7000 N   0  0  0  0  0  0
    8.1760    8.3450  -20.0860 N   0  0  0  0  0  0
    4.4280    8.5990  -20.3840 C   0  0  0  0  0  0
    3.6140    7.2860  -22.4170 C   0  0  0  0  0  0
    6.3500    9.8040  -21.4950 C   0  0  0  0  0  0
    6.8600    8.1430  -19.9260 C   0  0  0  0  0  0
    8.4900    9.3020  -20.9730 C   0  0  0  0  0  0
    5.9110    8.8530  -20.6130 C   0  0  0  0  0  0
    4.7064    6.5326  -20.8091 H   0  0  0  0  0  0
    4.2139    8.6350  -19.3056 H   0  0  0  0  0  0
    3.8448    9.4213  -20.8242 H   0  0  0  0  0  0
    4.5174    7.5288  -22.9956 H   0  0  0  0  0  0
    2.8599    8.0601  -22.6220 H   0  0  0  0  0  0
    5.5963   10.3628  -22.0378 H   0  0  0  0  0  0
    6.5080    7.3901  -19.2301 H   0  0  0  0  0  0
    9.5614    9.4351  -21.0700 H   0  0  0  0  0  0
  1  2  2  0  0  0
  1  3  1  0  0  0
  1 34  1  0  0  0
  2  6  1  0  0  0
  2 35  1  0  0  0
  3  5  2  0  0  0
  3 27  1  0  0  0
  4  5  1  0  0  0
  4  6  2  0  0  0
  4 18  1  0  0  0
  5 24  1  0  0  0
  6 10  1  0  0  0
  7 10  2  0  0  0
  7 23  1  0  0  0
  7 33  1  0  0  0
  8 21  1  0  0  0
  8 22  1  0  0  0
  8 36  1  0  0  0
  8 37  1  0  0  0
  9 21  1  0  0  0
  9 31  1  0  0  0
  9 38  1  0  0  0
  9 39  1  0  0  0
 10 40  1  0  0  0
 11 12  1  0  0  0
 11 14  2  0  0  0
 11 15  1  0  0  0
 12 17  1  0  0  0
 12 28  2  0  0  0
 13 28  1  0  0  0
 13 29  2  0  0  0
 13 56  1  0  0  0
 14 29  1  0  0  0
 14 31  1  0  0  0
 15 30  2  0  0  0
 15 41  1  0  0  0
 16 17  2  0  0  0
 16 18  1  0  0  0
 16 30  1  0  0  0
 17 26  1  0  0  0
 18 23  2  0  0  0
 19 20  1  0  0  0
 19 31  1  0  0  0
 19 42  1  0  0  0
 19 43  1  0  0  0
 20 22  1  0  0  0
 20 32  1  0  0  0
 20 44  1  0  0  0
 21 32  1  0  0  0
 21 45  1  0  0  0
 22 46  1  0  0  0
 22 47  1  0  0  0
 23 48  1  0  0  0
 24 25  3  0  0  0
 25 49  1  0  0  0
 32 50  1  0  0  0
 33 51  1  0  0  0
 52 55  1  0  0  0
 52 56  1  0  0  0
 52 61  1  0  0  0
 53 57  2  0  0  0
 53 59  1  0  0  0
 54 58  1  0  0  0
 54 59  2  0  0  0
 55 60  1  0  0  0
 55 62  1  0  0  0
 55 63  1  0  0  0
 56 64  1  0  0  0
 56 65  1  0  0  0
 57 60  1  0  0  0
 57 66  1  0  0  0
 58 60  2  0  0  0
 58 67  1  0  0  0
 59 68  1  0  0  0
M  END
> <s_m_entry_id>
408

> <s_m_entry_name>
000000408.1

> <s_m_Source_Path>
/Users/zaksoul/Documents/2

> <s_m_Source_File>
000000408.mol2

> <i_m_Source_File_Index>
1

$$$$
No_0_432
                    3D
 Schrodinger Suite 2022-4.
 68 74  0  0  1  0            999 V2000
   -5.0440    3.6150  -22.0970 C   0  0  0  0  0  0
   -5.3030    3.8020  -23.4340 C   0  0  0  0  0  0
   -3.8040    3.3840  -21.7460 C   0  0  0  0  0  0
   -2.8970    3.5330  -23.9040 C   0  0  0  0  0  0
   -2.7440    3.2880  -22.4830 C   0  0  0  0  0  0
   -4.2450    3.7720  -24.4360 C   0  0  0  0  0  0
   -3.4730    3.8130  -26.6280 C   0  0  0  0  0  0
    6.2250    3.2520  -21.2850 C   0  0  0  0  0  0
    6.1050    3.3980  -23.8350 C   0  0  0  0  0  0
   -4.4880    3.8980  -25.7730 C   0  0  0  0  0  0
    2.3100    3.8740  -23.8820 C   0  0  0  0  0  0
    1.4660    4.9650  -23.5860 C   0  0  0  0  0  0
    3.2350    6.1940  -22.8890 C   0  0  0  0  0  0
    3.7040    4.0900  -23.5570 C   0  0  0  0  0  0
    1.7910    2.7480  -24.5500 C   0  0  0  0  0  0
   -0.3520    3.5200  -24.4550 C   0  0  0  0  0  0
    0.1460    4.7490  -23.8490 C   0  0  0  0  0  0
   -1.8020    3.4990  -24.8210 C   0  0  0  0  0  0
    4.3550    1.6040  -23.2660 C   0  0  0  0  0  0
    5.2860    1.2630  -22.1120 C   0  0  2  0  0  0
    6.8540    2.8350  -22.6320 C   0  0  2  0  0  0
    5.2400    2.2610  -20.9430 C   0  0  0  0  0  0
   -2.1190    3.6560  -26.2510 C   0  0  0  0  0  0
   -1.3960    2.8990  -21.8750 C   0  0  0  0  0  0
   -0.3630    2.5700  -21.3610 C   0  0  0  0  0  0
   -0.7180    5.7770  -23.5080 F   0  0  0  0  0  0
   -3.6000    3.1420  -20.3630 F   0  0  0  0  0  0
    1.9160    6.1320  -23.0480 N   0  0  0  0  0  0
    4.1520    5.2490  -23.1040 N   0  0  0  0  0  0
    0.4890    2.6340  -24.8660 N   0  0  0  0  0  0
    4.6440    3.0610  -23.7290 N   0  0  0  0  0  0
    6.6950    1.3580  -22.5830 N   0  0  1  0  0  0
   -3.6350    3.8280  -28.0190 O   0  0  0  0  0  0
   -5.8527    3.6612  -21.3766 H   0  0  0  0  0  0
   -6.3182    3.9787  -23.7704 H   0  0  0  0  0  0
    5.7364    4.2312  -21.3960 H   0  0  0  0  0  0
    7.0047    3.2752  -20.5094 H   0  0  0  0  0  0
    6.5149    2.9638  -24.7588 H   0  0  0  0  0  0
    6.2271    4.4908  -23.8643 H   0  0  0  0  0  0
   -5.4991    4.0647  -26.1264 H   0  0  0  0  0  0
    2.4482    1.9323  -24.8289 H   0  0  0  0  0  0
    3.3108    1.5263  -22.9290 H   0  0  0  0  0  0
    4.5377    0.9115  -24.1009 H   0  0  0  0  0  0
    5.0781    0.2458  -21.7487 H   0  0  0  0  0  0
    7.9178    3.1125  -22.6693 H   0  0  0  0  0  0
    4.2468    2.7324  -20.9067 H   0  0  0  0  0  0
    5.5417    1.7504  -20.0166 H   0  0  0  0  0  0
   -1.3430    3.6530  -27.0079 H   0  0  0  0  0  0
    0.5462    2.2799  -20.9089 H   0  0  0  0  0  0
    7.3466    0.8712  -21.8725 H   0  0  0  0  0  0
   -2.7851    3.7577  -28.4375 H   0  0  0  0  0  0
    4.3560    7.4310  -21.0310 N   0  0  1  0  0  0
    7.7080   10.5210  -22.1320 N   0  0  0  0  0  0
    8.6090    8.7100  -20.8190 N   0  0  0  0  0  0
    4.8610    8.7190  -20.4300 C   0  0  0  0  0  0
    3.7650    7.5420  -22.4130 C   0  0  0  0  0  0
    6.4810   10.1560  -21.7290 C   0  0  0  0  0  0
    7.3560    8.3990  -20.4540 C   0  0  0  0  0  0
    8.7040    9.7640  -21.6440 C   0  0  0  0  0  0
    6.2610    9.0990  -20.8870 C   0  0  0  0  0  0
    5.1699    6.7251  -21.1070 H   0  0  0  0  0  0
    4.8440    8.6410  -19.3329 H   0  0  0  0  0  0
    4.1634    9.5335  -20.6749 H   0  0  0  0  0  0
    4.5339    7.9010  -23.1129 H   0  0  0  0  0  0
    2.9449    8.2751  -22.4020 H   0  0  0  0  0  0
    5.6121   10.7059  -22.0720 H   0  0  0  0  0  0
    7.1780    7.5631  -19.7871 H   0  0  0  0  0  0
    9.7312    9.9820  -21.9131 H   0  0  0  0  0  0
  1  2  2  0  0  0
  1  3  1  0  0  0
  1 34  1  0  0  0
  2  6  1  0  0  0
  2 35  1  0  0  0
  3  5  2  0  0  0
  3 27  1  0  0  0
  4  5  1  0  0  0
  4  6  2  0  0  0
  4 18  1  0  0  0
  5 24  1  0  0  0
  6 10  1  0  0  0
  7 10  2  0  0  0
  7 23  1  0  0  0
  7 33  1  0  0  0
  8 21  1  0  0  0
  8 22  1  0  0  0
  8 36  1  0  0  0
  8 37  1  0  0  0
  9 21  1  0  0  0
  9 31  1  0  0  0
  9 38  1  0  0  0
  9 39  1  0  0  0
 10 40  1  0  0  0
 11 12  1  0  0  0
 11 14  2  0  0  0
 11 15  1  0  0  0
 12 17  1  0  0  0
 12 28  2  0  0  0
 13 28  1  0  0  0
 13 29  2  0  0  0
 13 56  1  0  0  0
 14 29  1  0  0  0
 14 31  1  0  0  0
 15 30  2  0  0  0
 15 41  1  0  0  0
 16 17  2  0  0  0
 16 18  1  0  0  0
 16 30  1  0  0  0
 17 26  1  0  0  0
 18 23  2  0  0  0
 19 20  1  0  0  0
 19 31  1  0  0  0
 19 42  1  0  0  0
 19 43  1  0  0  0
 20 22  1  0  0  0
 20 32  1  0  0  0
 20 44  1  0  0  0
 21 32  1  0  0  0
 21 45  1  0  0  0
 22 46  1  0  0  0
 22 47  1  0  0  0
 23 48  1  0  0  0
 24 25  3  0  0  0
 25 49  1  0  0  0
 32 50  1  0  0  0
 33 51  1  0  0  0
 52 55  1  0  0  0
 52 56  1  0  0  0
 52 61  1  0  0  0
 53 57  2  0  0  0
 53 59  1  0  0  0
 54 58  1  0  0  0
 54 59  2  0  0  0
 55 60  1  0  0  0
 55 62  1  0  0  0
 55 63  1  0  0  0
 56 64  1  0  0  0
 56 65  1  0  0  0
 57 60  1  0  0  0
 57 66  1  0  0  0
 58 60  2  0  0  0
 58 67  1  0  0  0
 59 68  1  0  0  0
M  END
> <s_m_entry_id>
409

> <s_m_entry_name>
000000409.1

> <s_m_Source_Path>
/Users/zaksoul/Documents/2

> <s_m_Source_File>
000000409.mol2

> <i_m_Source_File_Index>
1

$$$$
No_0_433
                    3D
 Schrodinger Suite 2022-4.
 68 74  0  0  1  0            999 V2000
   -5.4470    3.5130  -22.5220 C   0  0  0  0  0  0
   -5.6660    3.6630  -23.8710 C   0  0  0  0  0  0
   -4.2190    3.2890  -22.1290 C   0  0  0  0  0  0
   -3.2490    3.3730  -24.2620 C   0  0  0  0  0  0
   -3.1380    3.1680  -22.8300 C   0  0  0  0  0  0
   -4.5790    3.6010  -24.8400 C   0  0  0  0  0  0
   -3.7420    3.5780  -27.0080 C   0  0  0  0  0  0
    5.7910    3.1360  -21.3640 C   0  0  0  0  0  0
    5.7470    3.2110  -23.9200 C   0  0  0  0  0  0
   -4.7820    3.6890  -26.1870 C   0  0  0  0  0  0
    1.9580    3.6970  -24.0940 C   0  0  0  0  0  0
    1.1090    4.7990  -23.8550 C   0  0  0  0  0  0
    2.8620    6.0410  -23.1400 C   0  0  0  0  0  0
    3.3420    3.9180  -23.7330 C   0  0  0  0  0  0
    1.4540    2.5540  -24.7450 C   0  0  0  0  0  0
   -0.6880    3.3360  -24.7360 C   0  0  0  0  0  0
   -0.2030    4.5800  -24.1500 C   0  0  0  0  0  0
   -2.1270    3.3100  -25.1440 C   0  0  0  0  0  0
    3.9740    1.4390  -23.3530 C   0  0  0  0  0  0
    4.8690    1.1280  -22.1630 C   0  0  2  0  0  0
    6.4570    2.6800  -22.6800 C   0  0  2  0  0  0
    4.7910    2.1590  -21.0250 C   0  0  0  0  0  0
   -2.4000    3.4270  -26.5870 C   0  0  0  0  0  0
   -1.8110    2.7920  -22.1710 C   0  0  0  0  0  0
   -0.7950    2.4740  -21.6180 C   0  0  0  0  0  0
   -1.0730    5.6200  -23.8650 F   0  0  0  0  0  0
   -4.0580    3.0860  -20.7340 F   0  0  0  0  0  0
    1.5480    5.9790  -23.3370 N   0  0  0  0  0  0
    3.7810    5.0880  -23.3010 N   0  0  0  0  0  0
    0.1610    2.4360  -25.0970 N   0  0  0  0  0  0
    4.2820    2.8810  -23.8480 N   0  0  0  0  0  0
    6.2910    1.2050  -22.5940 N   0  0  1  0  0  0
   -3.8620    3.5540  -28.4030 O   0  0  0  0  0  0
   -6.2771    3.5823  -21.8284 H   0  0  0  0  0  0
   -6.6701    3.8327  -24.2425 H   0  0  0  0  0  0
    5.3099    4.1133  -21.5173 H   0  0  0  0  0  0
    6.5472    3.1794  -20.5664 H   0  0  0  0  0  0
    6.1829    2.7489  -24.8180 H   0  0  0  0  0  0
    5.8742    4.3022  -23.9765 H   0  0  0  0  0  0
   -5.7811    3.8497  -26.5756 H   0  0  0  0  0  0
    2.1158    1.7285  -24.9810 H   0  0  0  0  0  0
    2.9199    1.3744  -23.0453 H   0  0  0  0  0  0
    4.1779    0.7225  -24.1624 H   0  0  0  0  0  0
    4.6461    0.1225  -21.7767 H   0  0  0  0  0  0
    7.5226    2.9525  -22.6941 H   0  0  0  0  0  0
    3.7992    2.6347  -21.0311 H   0  0  0  0  0  0
    5.0642    1.6740  -20.0762 H   0  0  0  0  0  0
   -1.6018    3.3999  -27.3199 H   0  0  0  0  0  0
    0.0994    2.1949  -21.1308 H   0  0  0  0  0  0
    6.9196    0.7368  -21.8510 H   0  0  0  0  0  0
   -3.0005    3.4679  -28.7941 H   0  0  0  0  0  0
    4.3640    7.2510  -21.5530 N   0  0  1  0  0  0
    6.9430   10.8000  -23.2100 N   0  0  0  0  0  0
    8.3530    9.0110  -22.4200 N   0  0  0  0  0  0
    4.9030    8.5380  -20.9800 C   0  0  0  0  0  0
    3.3830    7.4010  -22.6870 C   0  0  0  0  0  0
    5.9280   10.2590  -22.5170 C   0  0  0  0  0  0
    7.2980    8.5230  -21.7490 C   0  0  0  0  0  0
    8.1030   10.1320  -23.1140 C   0  0  0  0  0  0
    6.0650    9.1190  -21.7720 C   0  0  0  0  0  0
    5.1806    6.6565  -21.9353 H   0  0  0  0  0  0
    5.2179    8.3701  -19.9395 H   0  0  0  0  0  0
    4.0930    9.2800  -20.9220 H   0  0  0  0  0  0
    3.8750    7.9050  -23.5320 H   0  0  0  0  0  0
    2.5387    8.0262  -22.3609 H   0  0  0  0  0  0
    4.9503   10.7268  -22.5350 H   0  0  0  0  0  0
    7.4021    7.6205  -21.1577 H   0  0  0  0  0  0
    8.9803   10.4927  -23.6386 H   0  0  0  0  0  0
  1  2  2  0  0  0
  1  3  1  0  0  0
  1 34  1  0  0  0
  2  6  1  0  0  0
  2 35  1  0  0  0
  3  5  2  0  0  0
  3 27  1  0  0  0
  4  5  1  0  0  0
  4  6  2  0  0  0
  4 18  1  0  0  0
  5 24  1  0  0  0
  6 10  1  0  0  0
  7 10  2  0  0  0
  7 23  1  0  0  0
  7 33  1  0  0  0
  8 21  1  0  0  0
  8 22  1  0  0  0
  8 36  1  0  0  0
  8 37  1  0  0  0
  9 21  1  0  0  0
  9 31  1  0  0  0
  9 38  1  0  0  0
  9 39  1  0  0  0
 10 40  1  0  0  0
 11 12  1  0  0  0
 11 14  2  0  0  0
 11 15  1  0  0  0
 12 17  1  0  0  0
 12 28  2  0  0  0
 13 28  1  0  0  0
 13 29  2  0  0  0
 13 56  1  0  0  0
 14 29  1  0  0  0
 14 31  1  0  0  0
 15 30  2  0  0  0
 15 41  1  0  0  0
 16 17  2  0  0  0
 16 18  1  0  0  0
 16 30  1  0  0  0
 17 26  1  0  0  0
 18 23  2  0  0  0
 19 20  1  0  0  0
 19 31  1  0  0  0
 19 42  1  0  0  0
 19 43  1  0  0  0
 20 22  1  0  0  0
 20 32  1  0  0  0
 20 44  1  0  0  0
 21 32  1  0  0  0
 21 45  1  0  0  0
 22 46  1  0  0  0
 22 47  1  0  0  0
 23 48  1  0  0  0
 24 25  3  0  0  0
 25 49  1  0  0  0
 32 50  1  0  0  0
 33 51  1  0  0  0
 52 55  1  0  0  0
 52 56  1  0  0  0
 52 61  1  0  0  0
 53 57  2  0  0  0
 53 59  1  0  0  0
 54 58  1  0  0  0
 54 59  2  0  0  0
 55 60  1  0  0  0
 55 62  1  0  0  0
 55 63  1  0  0  0
 56 64  1  0  0  0
 56 65  1  0  0  0
 57 60  1  0  0  0
 57 66  1  0  0  0
 58 60  2  0  0  0
 58 67  1  0  0  0
 59 68  1  0  0  0
M  END
> <s_m_entry_id>
410

> <s_m_entry_name>
000000410.1

> <s_m_Source_Path>
/Users/zaksoul/Documents/2

> <s_m_Source_File>
000000410.mol2

> <i_m_Source_File_Index>
1

$$$$
No_0_434
                    3D
 Schrodinger Suite 2022-4.
 66 72  0  0  1  0            999 V2000
   -5.3710    3.6360  -22.4650 C   0  0  0  0  0  0
   -5.5980    3.7910  -23.8120 C   0  0  0  0  0  0
   -4.1430    3.3980  -22.0810 C   0  0  0  0  0  0
   -3.1870    3.4780  -24.2210 C   0  0  0  0  0  0
   -3.0680    3.2680  -22.7900 C   0  0  0  0  0  0
   -4.5190    3.7200  -24.7880 C   0  0  0  0  0  0
   -3.6980    3.6940  -26.9630 C   0  0  0  0  0  0
    5.8710    3.1410  -21.3890 C   0  0  0  0  0  0
    5.8090    3.2210  -23.9440 C   0  0  0  0  0  0
   -4.7300    3.8140  -26.1330 C   0  0  0  0  0  0
    2.0240    3.7470  -24.0890 C   0  0  0  0  0  0
    1.1890    4.8580  -23.8420 C   0  0  0  0  0  0
    2.9590    6.0800  -23.1370 C   0  0  0  0  0  0
    3.4130    3.9530  -23.7380 C   0  0  0  0  0  0
    1.5030    2.6120  -24.7400 C   0  0  0  0  0  0
   -0.6300    3.4150  -24.7130 C   0  0  0  0  0  0
   -0.1280    4.6520  -24.1280 C   0  0  0  0  0  0
   -2.0720    3.4050  -25.1110 C   0  0  0  0  0  0
    4.0220    1.4670  -23.3680 C   0  0  0  0  0  0
    4.9220    1.1440  -22.1860 C   0  0  2  0  0  0
    6.5230    2.6800  -22.7110 C   0  0  2  0  0  0
    4.8640    2.1720  -21.0440 C   0  0  0  0  0  0
   -2.3550    3.5280  -26.5520 C   0  0  0  0  0  0
   -1.7400    2.8770  -22.1420 C   0  0  0  0  0  0
   -0.7240    2.5470  -21.5970 C   0  0  0  0  0  0
   -0.9850    5.7010  -23.8340 F   0  0  0  0  0  0
   -3.9730    3.1900  -20.6870 F   0  0  0  0  0  0
    1.6430    6.0320  -23.3240 N   0  0  0  0  0  0
    3.8670    5.1170  -23.3060 N   0  0  0  0  0  0
    0.2070    2.5070  -25.0820 N   0  0  0  0  0  0
    4.3410    2.9070  -23.8630 N   0  0  0  0  0  0
    6.3420    1.2070  -22.6270 N   0  0  1  0  0  0
   -3.8280    3.6740  -28.3570 O   0  0  0  0  0  0
   -6.1948    3.7123  -21.7646 H   0  0  0  0  0  0
   -6.6030    3.9727  -24.1754 H   0  0  0  0  0  0
    5.3985    4.1234  -21.5364 H   0  0  0  0  0  0
    6.6332    3.1733  -20.5965 H   0  0  0  0  0  0
    6.2330    2.7566  -24.8465 H   0  0  0  0  0  0
    5.9473    4.3109  -23.9995 H   0  0  0  0  0  0
   -5.7302    3.9855  -26.5142 H   0  0  0  0  0  0
    2.1544    1.7800  -24.9819 H   0  0  0  0  0  0
    2.9694    1.4125  -23.0531 H   0  0  0  0  0  0
    4.2126    0.7498  -24.1800 H   0  0  0  0  0  0
    4.6921    0.1396  -21.8008 H   0  0  0  0  0  0
    7.5910    2.9425  -22.7312 H   0  0  0  0  0  0
    3.8773    2.6583  -21.0420 H   0  0  0  0  0  0
    5.1386    1.6824  -20.0980 H   0  0  0  0  0  0
   -1.5622    3.4949  -27.2906 H   0  0  0  0  0  0
    0.1708    2.2571  -21.1171 H   0  0  0  0  0  0
    6.9705    0.7302  -21.8894 H   0  0  0  0  0  0
   -2.9703    3.5810  -28.7547 H   0  0  0  0  0  0
    6.3840    9.7440  -20.1580 O   0  0  0  0  0  0
    3.7930    7.4550  -21.2080 N   0  0  1  0  0  0
    6.9990   10.3880  -22.0970 N   0  0  0  0  0  0
    4.0520    8.8200  -20.6200 C   0  0  0  0  0  0
    3.4980    7.4330  -22.6840 C   0  0  0  0  0  0
    5.3630    9.4630  -21.0450 C   0  0  0  0  0  0
    5.7470    9.8680  -22.2490 C   0  0  0  0  0  0
    7.3160   10.2850  -20.8280 C   0  0  0  0  0  0
    4.6600    6.8280  -21.0610 H   0  0  0  0  0  0
    4.0170    8.7570  -19.5224 H   0  0  0  0  0  0
    3.2189    9.4911  -20.8760 H   0  0  0  0  0  0
    4.4151    7.6680  -23.2441 H   0  0  0  0  0  0
    2.7640    8.2170  -22.9220 H   0  0  0  0  0  0
    5.2789    9.8550  -23.2322 H   0  0  0  0  0  0
    8.2820   10.6450  -20.4770 H   0  0  0  0  0  0
  1  2  2  0  0  0
  1  3  1  0  0  0
  1 34  1  0  0  0
  2  6  1  0  0  0
  2 35  1  0  0  0
  3  5  2  0  0  0
  3 27  1  0  0  0
  4  5  1  0  0  0
  4  6  2  0  0  0
  4 18  1  0  0  0
  5 24  1  0  0  0
  6 10  1  0  0  0
  7 10  2  0  0  0
  7 23  1  0  0  0
  7 33  1  0  0  0
  8 21  1  0  0  0
  8 22  1  0  0  0
  8 36  1  0  0  0
  8 37  1  0  0  0
  9 21  1  0  0  0
  9 31  1  0  0  0
  9 38  1  0  0  0
  9 39  1  0  0  0
 10 40  1  0  0  0
 11 12  1  0  0  0
 11 14  2  0  0  0
 11 15  1  0  0  0
 12 17  1  0  0  0
 12 28  2  0  0  0
 13 28  1  0  0  0
 13 29  2  0  0  0
 13 56  1  0  0  0
 14 29  1  0  0  0
 14 31  1  0  0  0
 15 30  2  0  0  0
 15 41  1  0  0  0
 16 17  2  0  0  0
 16 18  1  0  0  0
 16 30  1  0  0  0
 17 26  1  0  0  0
 18 23  2  0  0  0
 19 20  1  0  0  0
 19 31  1  0  0  0
 19 42  1  0  0  0
 19 43  1  0  0  0
 20 22  1  0  0  0
 20 32  1  0  0  0
 20 44  1  0  0  0
 21 32  1  0  0  0
 21 45  1  0  0  0
 22 46  1  0  0  0
 22 47  1  0  0  0
 23 48  1  0  0  0
 24 25  3  0  0  0
 25 49  1  0  0  0
 32 50  1  0  0  0
 33 51  1  0  0  0
 52 57  1  0  0  0
 52 59  1  0  0  0
 53 55  1  0  0  0
 53 56  1  0  0  0
 53 60  1  0  0  0
 54 58  1  0  0  0
 54 59  2  0  0  0
 55 57  1  0  0  0
 55 61  1  0  0  0
 55 62  1  0  0  0
 56 63  1  0  0  0
 56 64  1  0  0  0
 57 58  2  0  0  0
 58 65  1  0  0  0
 59 66  1  0  0  0
M  END
> <s_m_entry_id>
411

> <s_m_entry_name>
000000411.1

> <s_m_Source_Path>
/Users/zaksoul/Documents/2

> <s_m_Source_File>
000000411.mol2

> <i_m_Source_File_Index>
1

$$$$
No_0_435
                    3D
 Schrodinger Suite 2022-4.
 66 72  0  0  1  0            999 V2000
   -5.4770    3.5460  -22.0130 C   0  0  0  0  0  0
   -5.7210    3.6890  -23.3590 C   0  0  0  0  0  0
   -4.2440    3.3100  -21.6440 C   0  0  0  0  0  0
   -3.3160    3.3690  -23.7970 C   0  0  0  0  0  0
   -3.1790    3.1720  -22.3670 C   0  0  0  0  0  0
   -4.6560    3.6070  -24.3490 C   0  0  0  0  0  0
   -3.8640    3.5600  -26.5340 C   0  0  0  0  0  0
    5.7780    3.0470  -21.0840 C   0  0  0  0  0  0
    5.6820    3.1040  -23.6390 C   0  0  0  0  0  0
   -4.8850    3.6890  -25.6920 C   0  0  0  0  0  0
    1.8960    3.6330  -23.7380 C   0  0  0  0  0  0
    1.0650    4.7470  -23.4900 C   0  0  0  0  0  0
    2.8460    5.9730  -22.8200 C   0  0  0  0  0  0
    3.2900    3.8410  -23.4080 C   0  0  0  0  0  0
    1.3650    2.4920  -24.3710 C   0  0  0  0  0  0
   -0.7670    3.2990  -24.3230 C   0  0  0  0  0  0
   -0.2560    4.5400  -23.7560 C   0  0  0  0  0  0
   -2.2140    3.2860  -24.7020 C   0  0  0  0  0  0
    3.9010    1.3570  -23.0230 C   0  0  0  0  0  0
    4.8160    1.0440  -21.8500 C   0  0  2  0  0  0
    6.4120    2.5730  -22.4100 C   0  0  2  0  0  0
    4.7740    2.0830  -20.7170 C   0  0  0  0  0  0
   -2.5160    3.3960  -26.1400 C   0  0  0  0  0  0
   -1.8430    2.7850  -21.7320 C   0  0  0  0  0  0
   -0.8200    2.4590  -21.1980 C   0  0  0  0  0  0
   -1.1080    5.5920  -23.4610 F   0  0  0  0  0  0
   -4.0560    3.1140  -20.2510 F   0  0  0  0  0  0
    1.5280    5.9250  -22.9890 N   0  0  0  0  0  0
    3.7500    5.0080  -22.9930 N   0  0  0  0  0  0
    0.0650    2.3860  -24.6950 N   0  0  0  0  0  0
    4.2150    2.7920  -23.5350 N   0  0  0  0  0  0
    6.2310    1.1020  -22.3110 N   0  0  1  0  0  0
   -4.0130    3.5280  -27.9260 O   0  0  0  0  0  0
   -6.2917    3.6294  -21.3028 H   0  0  0  0  0  0
   -6.7308    3.8677  -23.7103 H   0  0  0  0  0  0
    5.3049    4.0286  -21.2343 H   0  0  0  0  0  0
    6.5513    3.0864  -20.3027 H   0  0  0  0  0  0
    6.0939    2.6306  -24.5425 H   0  0  0  0  0  0
    5.8203    4.1932  -23.7056 H   0  0  0  0  0  0
   -5.8902    3.8575  -26.0612 H   0  0  0  0  0  0
    2.0121    1.6572  -24.6148 H   0  0  0  0  0  0
    2.8528    1.3066  -22.6931 H   0  0  0  0  0  0
    4.0796    0.6325  -23.8312 H   0  0  0  0  0  0
    4.5901    0.0435  -21.4526 H   0  0  0  0  0  0
    7.4798    2.8344  -22.4484 H   0  0  0  0  0  0
    3.7880    2.5705  -20.7059 H   0  0  0  0  0  0
    5.0616    1.6017  -19.7706 H   0  0  0  0  0  0
   -1.7332    3.3549  -26.8887 H   0  0  0  0  0  0
    0.0813    2.1729  -20.7279 H   0  0  0  0  0  0
    6.8682    0.6305  -21.5775 H   0  0  0  0  0  0
   -3.1606    3.4300  -28.3339 H   0  0  0  0  0  0
    6.8980    9.8040  -21.1060 O   0  0  0  0  0  0
    4.3960    7.2020  -21.2730 N   0  0  1  0  0  0
    6.3620   10.8300  -22.8980 N   0  0  0  0  0  0
    4.7720    8.4930  -20.5890 C   0  0  0  0  0  0
    3.3920    7.3300  -22.3870 C   0  0  0  0  0  0
    5.6040    9.4470  -21.4310 C   0  0  0  0  0  0
    5.2720   10.0900  -22.5440 C   0  0  0  0  0  0
    7.2920   10.6160  -21.9980 C   0  0  0  0  0  0
    5.2774    6.7533  -21.7067 H   0  0  0  0  0  0
    5.3099    8.2681  -19.6562 H   0  0  0  0  0  0
    3.8592    9.0069  -20.2531 H   0  0  0  0  0  0
    3.8630    7.8270  -23.2479 H   0  0  0  0  0  0
    2.5609    7.9711  -22.0580 H   0  0  0  0  0  0
    4.3715   10.1210  -23.1556 H   0  0  0  0  0  0
    8.2569   11.1139  -22.0820 H   0  0  0  0  0  0
  1  2  2  0  0  0
  1  3  1  0  0  0
  1 34  1  0  0  0
  2  6  1  0  0  0
  2 35  1  0  0  0
  3  5  2  0  0  0
  3 27  1  0  0  0
  4  5  1  0  0  0
  4  6  2  0  0  0
  4 18  1  0  0  0
  5 24  1  0  0  0
  6 10  1  0  0  0
  7 10  2  0  0  0
  7 23  1  0  0  0
  7 33  1  0  0  0
  8 21  1  0  0  0
  8 22  1  0  0  0
  8 36  1  0  0  0
  8 37  1  0  0  0
  9 21  1  0  0  0
  9 31  1  0  0  0
  9 38  1  0  0  0
  9 39  1  0  0  0
 10 40  1  0  0  0
 11 12  1  0  0  0
 11 14  2  0  0  0
 11 15  1  0  0  0
 12 17  1  0  0  0
 12 28  2  0  0  0
 13 28  1  0  0  0
 13 29  2  0  0  0
 13 56  1  0  0  0
 14 29  1  0  0  0
 14 31  1  0  0  0
 15 30  2  0  0  0
 15 41  1  0  0  0
 16 17  2  0  0  0
 16 18  1  0  0  0
 16 30  1  0  0  0
 17 26  1  0  0  0
 18 23  2  0  0  0
 19 20  1  0  0  0
 19 31  1  0  0  0
 19 42  1  0  0  0
 19 43  1  0  0  0
 20 22  1  0  0  0
 20 32  1  0  0  0
 20 44  1  0  0  0
 21 32  1  0  0  0
 21 45  1  0  0  0
 22 46  1  0  0  0
 22 47  1  0  0  0
 23 48  1  0  0  0
 24 25  3  0  0  0
 25 49  1  0  0  0
 32 50  1  0  0  0
 33 51  1  0  0  0
 52 57  1  0  0  0
 52 59  1  0  0  0
 53 55  1  0  0  0
 53 56  1  0  0  0
 53 60  1  0  0  0
 54 58  1  0  0  0
 54 59  2  0  0  0
 55 57  1  0  0  0
 55 61  1  0  0  0
 55 62  1  0  0  0
 56 63  1  0  0  0
 56 64  1  0  0  0
 57 58  2  0  0  0
 58 65  1  0  0  0
 59 66  1  0  0  0
M  END
> <s_m_entry_id>
412

> <s_m_entry_name>
000000412.1

> <s_m_Source_Path>
/Users/zaksoul/Documents/2

> <s_m_Source_File>
000000412.mol2

> <i_m_Source_File_Index>
1

$$$$
No_0_436
                    3D
 Schrodinger Suite 2022-4.
 66 72  0  0  1  0            999 V2000
   -5.3480    3.5660  -22.2840 C   0  0  0  0  0  0
   -5.5700    3.7290  -23.6310 C   0  0  0  0  0  0
   -4.1210    3.3230  -21.8980 C   0  0  0  0  0  0
   -3.1590    3.4120  -24.0350 C   0  0  0  0  0  0
   -3.0450    3.1940  -22.6060 C   0  0  0  0  0  0
   -4.4890    3.6600  -24.6050 C   0  0  0  0  0  0
   -3.6620    3.6440  -26.7770 C   0  0  0  0  0  0
    5.8900    3.0380  -21.1810 C   0  0  0  0  0  0
    5.8350    3.1320  -23.7360 C   0  0  0  0  0  0
   -4.6970    3.7620  -25.9500 C   0  0  0  0  0  0
    2.0510    3.6680  -23.8880 C   0  0  0  0  0  0
    1.2180    4.7790  -23.6370 C   0  0  0  0  0  0
    2.9900    5.9930  -22.9210 C   0  0  0  0  0  0
    3.4400    3.8690  -23.5330 C   0  0  0  0  0  0
    1.5300    2.5370  -24.5460 C   0  0  0  0  0  0
   -0.6020    3.3460  -24.5210 C   0  0  0  0  0  0
   -0.0980    4.5780  -23.9280 C   0  0  0  0  0  0
   -2.0420    3.3410  -24.9230 C   0  0  0  0  0  0
    4.0420    1.3790  -23.1740 C   0  0  0  0  0  0
    4.9380    1.0470  -21.9910 C   0  0  2  0  0  0
    6.5440    2.5830  -22.5030 C   0  0  2  0  0  0
    4.8790    2.0700  -20.8440 C   0  0  0  0  0  0
   -2.3210    3.4720  -26.3640 C   0  0  0  0  0  0
   -1.7200    2.7970  -21.9550 C   0  0  0  0  0  0
   -0.7060    2.4610  -21.4100 C   0  0  0  0  0  0
   -0.9530    5.6270  -23.6310 F   0  0  0  0  0  0
   -3.9560    3.1070  -20.5050 F   0  0  0  0  0  0
    1.6750    5.9490  -23.1120 N   0  0  0  0  0  0
    3.8960    5.0290  -23.0930 N   0  0  0  0  0  0
    0.2350    2.4380  -24.8920 N   0  0  0  0  0  0
    4.3660    2.8210  -23.6600 N   0  0  0  0  0  0
    6.3600    1.1100  -22.4280 N   0  0  1  0  0  0
   -3.7890    3.6320  -28.1720 O   0  0  0  0  0  0
   -6.1738    3.6402  -21.5857 H   0  0  0  0  0  0
   -6.5736    3.9147  -23.9963 H   0  0  0  0  0  0
    5.4205    4.0224  -21.3244 H   0  0  0  0  0  0
    6.6502    3.0653  -20.3864 H   0  0  0  0  0  0
    6.2611    2.6716  -24.6396 H   0  0  0  0  0  0
    5.9763    4.2218  -23.7844 H   0  0  0  0  0  0
   -5.6959    3.9377  -26.3325 H   0  0  0  0  0  0
    2.1803    1.7050  -24.7909 H   0  0  0  0  0  0
    2.9885    1.3255  -22.8622 H   0  0  0  0  0  0
    4.2337    0.6657  -23.9892 H   0  0  0  0  0  0
    4.7047    0.0413  -21.6113 H   0  0  0  0  0  0
    7.6128    2.8424  -22.5202 H   0  0  0  0  0  0
    3.8935    2.5587  -20.8420 H   0  0  0  0  0  0
    5.1505    1.5744  -19.9002 H   0  0  0  0  0  0
   -1.5263    3.4409  -27.1005 H   0  0  0  0  0  0
    0.1870    2.1670  -20.9290 H   0  0  0  0  0  0
    6.9852    0.6269  -21.6917 H   0  0  0  0  0  0
   -2.9304    3.5380  -28.5677 H   0  0  0  0  0  0
    7.0680    9.9710  -21.6680 O   0  0  0  0  0  0
    4.7590    7.1920  -21.6030 N   0  0  1  0  0  0
    6.0910   11.1190  -23.1780 N   0  0  0  0  0  0
    5.1930    8.4380  -20.8700 C   0  0  0  0  0  0
    3.5310    7.3420  -22.4600 C   0  0  0  0  0  0
    5.7600    9.5380  -21.7530 C   0  0  0  0  0  0
    5.1530   10.2560  -22.6910 C   0  0  0  0  0  0
    7.2070   10.8980  -22.5240 C   0  0  0  0  0  0
    5.5516    6.8671  -22.2607 H   0  0  0  0  0  0
    5.9341    8.1690  -20.1029 H   0  0  0  0  0  0
    4.3449    8.8351  -20.2929 H   0  0  0  0  0  0
    3.7700    7.9600  -23.3380 H   0  0  0  0  0  0
    2.7524    7.8737  -21.8933 H   0  0  0  0  0  0
    4.1407   10.2690  -23.0921 H   0  0  0  0  0  0
    8.0963   11.4842  -22.7511 H   0  0  0  0  0  0
  1  2  2  0  0  0
  1  3  1  0  0  0
  1 34  1  0  0  0
  2  6  1  0  0  0
  2 35  1  0  0  0
  3  5  2  0  0  0
  3 27  1  0  0  0
  4  5  1  0  0  0
  4  6  2  0  0  0
  4 18  1  0  0  0
  5 24  1  0  0  0
  6 10  1  0  0  0
  7 10  2  0  0  0
  7 23  1  0  0  0
  7 33  1  0  0  0
  8 21  1  0  0  0
  8 22  1  0  0  0
  8 36  1  0  0  0
  8 37  1  0  0  0
  9 21  1  0  0  0
  9 31  1  0  0  0
  9 38  1  0  0  0
  9 39  1  0  0  0
 10 40  1  0  0  0
 11 12  1  0  0  0
 11 14  2  0  0  0
 11 15  1  0  0  0
 12 17  1  0  0  0
 12 28  2  0  0  0
 13 28  1  0  0  0
 13 29  2  0  0  0
 13 56  1  0  0  0
 14 29  1  0  0  0
 14 31  1  0  0  0
 15 30  2  0  0  0
 15 41  1  0  0  0
 16 17  2  0  0  0
 16 18  1  0  0  0
 16 30  1  0  0  0
 17 26  1  0  0  0
 18 23  2  0  0  0
 19 20  1  0  0  0
 19 31  1  0  0  0
 19 42  1  0  0  0
 19 43  1  0  0  0
 20 22  1  0  0  0
 20 32  1  0  0  0
 20 44  1  0  0  0
 21 32  1  0  0  0
 21 45  1  0  0  0
 22 46  1  0  0  0
 22 47  1  0  0  0
 23 48  1  0  0  0
 24 25  3  0  0  0
 25 49  1  0  0  0
 32 50  1  0  0  0
 33 51  1  0  0  0
 52 57  1  0  0  0
 52 59  1  0  0  0
 53 55  1  0  0  0
 53 56  1  0  0  0
 53 60  1  0  0  0
 54 58  1  0  0  0
 54 59  2  0  0  0
 55 57  1  0  0  0
 55 61  1  0  0  0
 55 62  1  0  0  0
 56 63  1  0  0  0
 56 64  1  0  0  0
 57 58  2  0  0  0
 58 65  1  0  0  0
 59 66  1  0  0  0
M  END
> <s_m_entry_id>
413

> <s_m_entry_name>
000000413.1

> <s_m_Source_Path>
/Users/zaksoul/Documents/2

> <s_m_Source_File>
000000413.mol2

> <i_m_Source_File_Index>
1

$$$$
No_0_437
                    3D
 Schrodinger Suite 2022-4.
 73 79  0  0  1  0            999 V2000
   -5.1500    3.4480  -22.1900 C   0  0  0  0  0  0
   -5.4180    3.6700  -23.5200 C   0  0  0  0  0  0
   -3.9090    3.1990  -21.8560 C   0  0  0  0  0  0
   -3.0190    3.3930  -24.0160 C   0  0  0  0  0  0
   -2.8560    3.1120  -22.6030 C   0  0  0  0  0  0
   -4.3690    3.6560  -24.5310 C   0  0  0  0  0  0
   -3.6130    3.7460  -26.7270 C   0  0  0  0  0  0
    6.1210    2.9700  -21.4770 C   0  0  0  0  0  0
    5.9820    3.1810  -24.0220 C   0  0  0  0  0  0
   -4.6210    3.8170  -25.8620 C   0  0  0  0  0  0
    2.1920    3.6890  -24.0270 C   0  0  0  0  0  0
    1.3590    4.7800  -23.6980 C   0  0  0  0  0  0
    3.1450    5.9760  -22.9850 C   0  0  0  0  0  0
    3.5900    3.8860  -23.7080 C   0  0  0  0  0  0
    1.6580    2.5850  -24.7190 C   0  0  0  0  0  0
   -0.4780    3.3720  -24.5870 C   0  0  0  0  0  0
    0.0360    4.5810  -23.9550 C   0  0  0  0  0  0
   -1.9310    3.3730  -24.9420 C   0  0  0  0  0  0
    4.2220    1.3880  -23.4840 C   0  0  0  0  0  0
    5.1590    1.0100  -22.3460 C   0  0  2  0  0  0
    6.7360    2.5820  -22.8400 C   0  0  2  0  0  0
    5.1300    1.9790  -21.1530 C   0  0  0  0  0  0
   -2.2580    3.5680  -26.3660 C   0  0  0  0  0  0
   -1.5080    2.6970  -22.0150 C   0  0  0  0  0  0
   -0.4730    2.3460  -21.5180 C   0  0  0  0  0  0
   -0.8170    5.6080  -23.5830 F   0  0  0  0  0  0
   -3.6970    2.9210  -20.4800 F   0  0  0  0  0  0
    1.8240    5.9290  -23.1350 N   0  0  0  0  0  0
    4.0510    5.0290  -23.2310 N   0  0  0  0  0  0
    0.3520    2.4900  -25.0270 N   0  0  0  0  0  0
    4.5190    2.8530  -23.9130 N   0  0  0  0  0  0
    6.5650    1.1050  -22.8260 N   0  0  1  0  0  0
   -3.7850    3.7960  -28.1160 O   0  0  0  0  0  0
   -5.9528    3.4831  -21.4625 H   0  0  0  0  0  0
   -6.4343    3.8638  -23.8434 H   0  0  0  0  0  0
    5.6406    3.9560  -21.5608 H   0  0  0  0  0  0
    6.9073    2.9680  -20.7078 H   0  0  0  0  0  0
    6.3814    2.7655  -24.9589 H   0  0  0  0  0  0
    6.1142    4.2730  -24.0250 H   0  0  0  0  0  0
   -5.6330    4.0007  -26.2043 H   0  0  0  0  0  0
    2.3052    1.7703  -25.0230 H   0  0  0  0  0  0
    3.1800    1.3103  -23.1400 H   0  0  0  0  0  0
    4.3915    0.7140  -24.3366 H   0  0  0  0  0  0
    4.9449   -0.0139  -22.0057 H   0  0  0  0  0  0
    7.8018    2.8515  -22.8784 H   0  0  0  0  0  0
    4.1415    2.4581  -21.0965 H   0  0  0  0  0  0
    5.4358    1.4441  -20.2417 H   0  0  0  0  0  0
   -1.4875    3.5770  -27.1285 H   0  0  0  0  0  0
    0.4375    2.0378  -21.0808 H   0  0  0  0  0  0
    7.2175    0.5948  -22.1329 H   0  0  0  0  0  0
   -2.9394    3.7287  -28.5437 H   0  0  0  0  0  0
    4.2930    7.1670  -21.1060 N   0  0  1  0  0  0
    8.4390    8.8790  -21.4700 N   0  0  0  0  0  0
    7.8160    9.7360  -22.3020 N   0  0  0  0  0  0
    4.8590    8.4330  -20.5170 C   0  0  0  0  0  0
    7.4500    8.3040  -20.7370 C   0  0  0  0  0  0
    3.6900    7.3080  -22.4800 C   0  0  0  0  0  0
    6.2350    8.7710  -21.0690 C   0  0  0  0  0  0
    9.8920    8.6930  -21.4090 C   0  0  0  0  0  0
    6.5290    9.6890  -22.0850 C   0  0  0  0  0  0
    7.7490    7.2580  -19.6770 C   0  0  0  0  0  0
    5.0751    6.4269  -21.1900 H   0  0  0  0  0  0
    4.9180    8.3330  -19.4231 H   0  0  0  0  0  0
    4.1709    9.2681  -20.7150 H   0  0  0  0  0  0
    4.4540    7.6790  -23.1790 H   0  0  0  0  0  0
    2.8768    8.0481  -22.4490 H   0  0  0  0  0  0
   10.1339    7.9372  -20.6472 H   0  0  0  0  0  0
   10.2610    8.3560  -22.3889 H   0  0  0  0  0  0
   10.3738    9.6457  -21.1441 H   0  0  0  0  0  0
    5.8589   10.3141  -22.6641 H   0  0  0  0  0  0
    6.8094    6.9298  -19.2087 H   0  0  0  0  0  0
    8.2470    6.3950  -20.1430 H   0  0  0  0  0  0
    8.4080    7.6910  -18.9100 H   0  0  0  0  0  0
  1  2  2  0  0  0
  1  3  1  0  0  0
  1 34  1  0  0  0
  2  6  1  0  0  0
  2 35  1  0  0  0
  3  5  2  0  0  0
  3 27  1  0  0  0
  4  5  1  0  0  0
  4  6  2  0  0  0
  4 18  1  0  0  0
  5 24  1  0  0  0
  6 10  1  0  0  0
  7 10  2  0  0  0
  7 23  1  0  0  0
  7 33  1  0  0  0
  8 21  1  0  0  0
  8 22  1  0  0  0
  8 36  1  0  0  0
  8 37  1  0  0  0
  9 21  1  0  0  0
  9 31  1  0  0  0
  9 38  1  0  0  0
  9 39  1  0  0  0
 10 40  1  0  0  0
 11 12  1  0  0  0
 11 14  2  0  0  0
 11 15  1  0  0  0
 12 17  1  0  0  0
 12 28  2  0  0  0
 13 28  1  0  0  0
 13 29  2  0  0  0
 13 57  1  0  0  0
 14 29  1  0  0  0
 14 31  1  0  0  0
 15 30  2  0  0  0
 15 41  1  0  0  0
 16 17  2  0  0  0
 16 18  1  0  0  0
 16 30  1  0  0  0
 17 26  1  0  0  0
 18 23  2  0  0  0
 19 20  1  0  0  0
 19 31  1  0  0  0
 19 42  1  0  0  0
 19 43  1  0  0  0
 20 22  1  0  0  0
 20 32  1  0  0  0
 20 44  1  0  0  0
 21 32  1  0  0  0
 21 45  1  0  0  0
 22 46  1  0  0  0
 22 47  1  0  0  0
 23 48  1  0  0  0
 24 25  3  0  0  0
 25 49  1  0  0  0
 32 50  1  0  0  0
 33 51  1  0  0  0
 52 55  1  0  0  0
 52 57  1  0  0  0
 52 62  1  0  0  0
 53 54  1  0  0  0
 53 56  1  0  0  0
 53 59  1  0  0  0
 54 60  2  0  0  0
 55 58  1  0  0  0
 55 63  1  0  0  0
 55 64  1  0  0  0
 56 58  2  0  0  0
 56 61  1  0  0  0
 57 65  1  0  0  0
 57 66  1  0  0  0
 58 60  1  0  0  0
 59 67  1  0  0  0
 59 68  1  0  0  0
 59 69  1  0  0  0
 60 70  1  0  0  0
 61 71  1  0  0  0
 61 72  1  0  0  0
 61 73  1  0  0  0
M  END
> <s_m_entry_id>
414

> <s_m_entry_name>
000000414.1

> <s_m_Source_Path>
/Users/zaksoul/Documents/2

> <s_m_Source_File>
000000414.mol2

> <i_m_Source_File_Index>
1

$$$$
No_0_438
                    3D
 Schrodinger Suite 2022-4.
 73 79  0  0  1  0            999 V2000
   -5.1970    3.3430  -22.0030 C   0  0  0  0  0  0
   -5.4500    3.5230  -23.3420 C   0  0  0  0  0  0
   -3.9550    3.1340  -21.6450 C   0  0  0  0  0  0
   -3.0380    3.2960  -23.7970 C   0  0  0  0  0  0
   -2.8890    3.0560  -22.3750 C   0  0  0  0  0  0
   -4.3860    3.5100  -24.3370 C   0  0  0  0  0  0
   -3.6010    3.5620  -26.5250 C   0  0  0  0  0  0
    6.0720    3.1770  -21.1200 C   0  0  0  0  0  0
    5.9650    3.3180  -23.6710 C   0  0  0  0  0  0
   -4.6230    3.6300  -25.6760 C   0  0  0  0  0  0
    2.1630    3.7270  -23.7430 C   0  0  0  0  0  0
    1.2980    4.8040  -23.4550 C   0  0  0  0  0  0
    3.0410    6.0640  -22.7480 C   0  0  0  0  0  0
    3.5510    3.9680  -23.4090 C   0  0  0  0  0  0
    1.6670    2.5910  -24.4130 C   0  0  0  0  0  0
   -0.4900    3.3260  -24.3320 C   0  0  0  0  0  0
   -0.0160    4.5640  -23.7250 C   0  0  0  0  0  0
   -1.9370    3.2800  -24.7070 C   0  0  0  0  0  0
    4.2430    1.4940  -23.1110 C   0  0  0  0  0  0
    5.1730    1.1710  -21.9510 C   0  0  2  0  0  0
    6.7160    2.7690  -22.4630 C   0  0  2  0  0  0
    5.1010    2.1690  -20.7840 C   0  0  0  0  0  0
   -2.2470    3.4290  -26.1400 C   0  0  0  0  0  0
   -1.5390    2.6910  -21.7570 C   0  0  0  0  0  0
   -0.5030    2.3810  -21.2370 C   0  0  0  0  0  0
   -0.9010    5.5770  -23.3910 F   0  0  0  0  0  0
   -3.7560    2.8980  -20.2600 F   0  0  0  0  0  0
    1.7250    5.9790  -22.9150 N   0  0  0  0  0  0
    3.9750    5.1350  -22.9560 N   0  0  0  0  0  0
    0.3700    2.4540  -24.7370 N   0  0  0  0  0  0
    4.5090    2.9550  -23.5740 N   0  0  0  0  0  0
    6.5830    1.2900  -22.4130 N   0  0  1  0  0  0
   -3.7550    3.5720  -27.9170 O   0  0  0  0  0  0
   -6.0113    3.3751  -21.2881 H   0  0  0  0  0  0
   -6.4660    3.6815  -23.6850 H   0  0  0  0  0  0
    5.5667    4.1472  -21.2360 H   0  0  0  0  0  0
    6.8463    3.2154  -20.3396 H   0  0  0  0  0  0
    6.3879    2.8891  -24.5914 H   0  0  0  0  0  0
    6.0680    4.4127  -23.7013 H   0  0  0  0  0  0
   -5.6345    3.7785  -26.0363 H   0  0  0  0  0  0
    2.3407    1.7868  -24.6861 H   0  0  0  0  0  0
    3.1983    1.3991  -22.7799 H   0  0  0  0  0  0
    4.4429    0.8036  -23.9437 H   0  0  0  0  0  0
    4.9803    0.1511  -21.5868 H   0  0  0  0  0  0
    7.7748    3.0657  -22.4943 H   0  0  0  0  0  0
    4.1000    2.6241  -20.7537 H   0  0  0  0  0  0
    5.4067    1.6656  -19.8549 H   0  0  0  0  0  0
   -1.4661    3.4380  -26.8918 H   0  0  0  0  0  0
    0.4082    2.1070  -20.7789 H   0  0  0  0  0  0
    7.2377    0.8150  -21.6973 H   0  0  0  0  0  0
   -2.9011    3.5156  -28.3296 H   0  0  0  0  0  0
    3.8610    7.4080  -20.7970 N   0  0  1  0  0  0
    8.1460    8.7930  -20.7680 N   0  0  0  0  0  0
    7.7110    9.4290  -21.8750 N   0  0  0  0  0  0
    5.9030    8.8640  -20.7040 C   0  0  0  0  0  0
    3.5450    7.4220  -22.2710 C   0  0  0  0  0  0
    4.4630    8.6810  -20.2630 C   0  0  0  0  0  0
    9.5530    8.5280  -20.4460 C   0  0  0  0  0  0
    7.0220    8.4630  -20.0870 C   0  0  0  0  0  0
   10.4340    9.7500  -20.7490 C   0  0  0  0  0  0
    6.4040    9.4840  -21.8570 C   0  0  0  0  0  0
    2.9551    7.2350  -20.2351 H   0  0  0  0  0  0
    4.4469    7.6980  -22.8370 H   0  0  0  0  0  0
    2.7810    8.1870  -22.4740 H   0  0  0  0  0  0
    4.4150    8.6750  -19.1641 H   0  0  0  0  0  0
    3.8641    9.5388  -20.6029 H   0  0  0  0  0  0
    9.9061    7.6668  -21.0322 H   0  0  0  0  0  0
    9.6420    8.2670  -19.3811 H   0  0  0  0  0  0
    7.0950    7.9300  -19.1459 H   0  0  0  0  0  0
   11.4800    9.5200  -20.4980 H   0  0  0  0  0  0
   10.3610    9.9990  -21.8180 H   0  0  0  0  0  0
   10.0929   10.6063  -20.1488 H   0  0  0  0  0  0
    5.8708    9.9662  -22.6683 H   0  0  0  0  0  0
  1  2  2  0  0  0
  1  3  1  0  0  0
  1 34  1  0  0  0
  2  6  1  0  0  0
  2 35  1  0  0  0
  3  5  2  0  0  0
  3 27  1  0  0  0
  4  5  1  0  0  0
  4  6  2  0  0  0
  4 18  1  0  0  0
  5 24  1  0  0  0
  6 10  1  0  0  0
  7 10  2  0  0  0
  7 23  1  0  0  0
  7 33  1  0  0  0
  8 21  1  0  0  0
  8 22  1  0  0  0
  8 36  1  0  0  0
  8 37  1  0  0  0
  9 21  1  0  0  0
  9 31  1  0  0  0
  9 38  1  0  0  0
  9 39  1  0  0  0
 10 40  1  0  0  0
 11 12  1  0  0  0
 11 14  2  0  0  0
 11 15  1  0  0  0
 12 17  1  0  0  0
 12 28  2  0  0  0
 13 28  1  0  0  0
 13 29  2  0  0  0
 13 56  1  0  0  0
 14 29  1  0  0  0
 14 31  1  0  0  0
 15 30  2  0  0  0
 15 41  1  0  0  0
 16 17  2  0  0  0
 16 18  1  0  0  0
 16 30  1  0  0  0
 17 26  1  0  0  0
 18 23  2  0  0  0
 19 20  1  0  0  0
 19 31  1  0  0  0
 19 42  1  0  0  0
 19 43  1  0  0  0
 20 22  1  0  0  0
 20 32  1  0  0  0
 20 44  1  0  0  0
 21 32  1  0  0  0
 21 45  1  0  0  0
 22 46  1  0  0  0
 22 47  1  0  0  0
 23 48  1  0  0  0
 24 25  3  0  0  0
 25 49  1  0  0  0
 32 50  1  0  0  0
 33 51  1  0  0  0
 52 56  1  0  0  0
 52 57  1  0  0  0
 52 62  1  0  0  0
 53 54  1  0  0  0
 53 58  1  0  0  0
 53 59  1  0  0  0
 54 61  2  0  0  0
 55 57  1  0  0  0
 55 59  2  0  0  0
 55 61  1  0  0  0
 56 63  1  0  0  0
 56 64  1  0  0  0
 57 65  1  0  0  0
 57 66  1  0  0  0
 58 60  1  0  0  0
 58 67  1  0  0  0
 58 68  1  0  0  0
 59 69  1  0  0  0
 60 70  1  0  0  0
 60 71  1  0  0  0
 60 72  1  0  0  0
 61 73  1  0  0  0
M  END
> <s_m_entry_id>
415

> <s_m_entry_name>
000000415.1

> <s_m_Source_Path>
/Users/zaksoul/Documents/2

> <s_m_Source_File>
000000415.mol2

> <i_m_Source_File_Index>
1

$$$$
No_0_439
                    3D
 Schrodinger Suite 2022-4.
 72 78  0  0  1  0            999 V2000
   -5.0500    3.2020  -22.3240 C   0  0  0  0  0  0
   -5.2750    3.4020  -23.6650 C   0  0  0  0  0  0
   -3.8200    2.9640  -21.9450 C   0  0  0  0  0  0
   -2.8600    3.1280  -24.0780 C   0  0  0  0  0  0
   -2.7430    2.8700  -22.6560 C   0  0  0  0  0  0
   -4.1930    3.3760  -24.6410 C   0  0  0  0  0  0
   -3.3660    3.4340  -26.8120 C   0  0  0  0  0  0
    6.1930    2.7850  -21.2340 C   0  0  0  0  0  0
    6.1370    2.9550  -23.7850 C   0  0  0  0  0  0
   -4.4020    3.5150  -25.9820 C   0  0  0  0  0  0
    2.3470    3.4460  -23.9230 C   0  0  0  0  0  0
    1.5000    4.5390  -23.6390 C   0  0  0  0  0  0
    3.2560    5.7540  -22.8870 C   0  0  0  0  0  0
    3.7330    3.6540  -23.5610 C   0  0  0  0  0  0
    1.8400    2.3290  -24.6140 C   0  0  0  0  0  0
   -0.3020    3.1090  -24.5650 C   0  0  0  0  0  0
    0.1860    4.3300  -23.9360 C   0  0  0  0  0  0
   -1.7420    3.0970  -24.9670 C   0  0  0  0  0  0
    4.3670    1.1630  -23.2760 C   0  0  0  0  0  0
    5.2670    0.8080  -22.1030 C   0  0  2  0  0  0
    6.8530    2.3780  -22.5690 C   0  0  2  0  0  0
    5.1950    1.7950  -20.9260 C   0  0  0  0  0  0
   -2.0230    3.2680  -26.4040 C   0  0  0  0  0  0
   -1.4130    2.4700  -22.0170 C   0  0  0  0  0  0
   -0.3940    2.1320  -21.4810 C   0  0  0  0  0  0
   -0.6830    5.3580  -23.6080 F   0  0  0  0  0  0
   -3.6520    2.7090  -20.5590 F   0  0  0  0  0  0
    1.9410    5.6990  -23.0790 N   0  0  0  0  0  0
    4.1740    4.8070  -23.0870 N   0  0  0  0  0  0
    0.5460    2.2230  -24.9630 N   0  0  0  0  0  0
    4.6720    2.6220  -23.7190 N   0  0  0  0  0  0
    6.6880    0.9010  -22.5380 N   0  0  1  0  0  0
   -3.4930    3.4620  -28.2070 O   0  0  0  0  0  0
   -5.8765    3.2451  -21.6239 H   0  0  0  0  0  0
   -6.2807    3.5857  -24.0253 H   0  0  0  0  0  0
    5.7118    3.7675  -21.3490 H   0  0  0  0  0  0
    6.9529    2.7991  -20.4388 H   0  0  0  0  0  0
    6.5686    2.5265  -24.7016 H   0  0  0  0  0  0
    6.2642    4.0475  -23.8012 H   0  0  0  0  0  0
   -5.4033    3.6886  -26.3592 H   0  0  0  0  0  0
    2.5002    1.5123  -24.8829 H   0  0  0  0  0  0
    3.3143    1.0863  -22.9662 H   0  0  0  0  0  0
    4.5668    0.4770  -24.1123 H   0  0  0  0  0  0
    5.0470   -0.2113  -21.7528 H   0  0  0  0  0  0
    7.9184    2.6514  -22.5781 H   0  0  0  0  0  0
    4.2037    2.2715  -20.9098 H   0  0  0  0  0  0
    5.4727    1.2759  -19.9968 H   0  0  0  0  0  0
   -1.2279    3.2680  -27.1408 H   0  0  0  0  0  0
    0.5023    1.8339  -21.0088 H   0  0  0  0  0  0
    7.3195    0.4052  -21.8157 H   0  0  0  0  0  0
   -2.6333    3.3917  -28.6051 H   0  0  0  0  0  0
    3.3400    7.3740  -20.9730 N   0  0  1  0  0  0
    7.3580    8.4770  -20.2240 N   0  0  3  0  0  0
    6.1240    8.0380  -19.9460 N   0  0  0  0  0  0
    7.2930    9.6060  -20.9370 N   0  0  0  0  0  0
    3.7790    7.0960  -22.3860 C   0  0  0  0  0  0
    5.2750    8.8740  -20.4840 C   0  0  0  0  0  0
    3.7680    8.7110  -20.4270 C   0  0  0  0  0  0
    8.6030    7.8230  -19.8040 C   0  0  0  0  0  0
    8.4330    6.3090  -19.5940 C   0  0  0  0  0  0
    6.0270    9.8730  -21.1130 C   0  0  0  0  0  0
    2.2617    7.3480  -20.9190 H   0  0  0  0  0  0
    4.8778    7.1020  -22.4360 H   0  0  0  0  0  0
    3.4188    7.8985  -23.0464 H   0  0  0  0  0  0
    3.4290    8.8070  -19.3850 H   0  0  0  0  0  0
    3.2910    9.5140  -21.0080 H   0  0  0  0  0  0
    8.9610    8.2830  -18.8711 H   0  0  0  0  0  0
    9.3833    8.0021  -20.5583 H   0  0  0  0  0  0
    9.3924    5.8713  -19.2812 H   0  0  0  0  0  0
    7.6769    6.1280  -18.8159 H   0  0  0  0  0  0
    8.1081    5.8422  -20.5356 H   0  0  0  0  0  0
    5.7320   10.7530  -21.6730 H   0  0  0  0  0  0
  1  2  2  0  0  0
  1  3  1  0  0  0
  1 34  1  0  0  0
  2  6  1  0  0  0
  2 35  1  0  0  0
  3  5  2  0  0  0
  3 27  1  0  0  0
  4  5  1  0  0  0
  4  6  2  0  0  0
  4 18  1  0  0  0
  5 24  1  0  0  0
  6 10  1  0  0  0
  7 10  2  0  0  0
  7 23  1  0  0  0
  7 33  1  0  0  0
  8 21  1  0  0  0
  8 22  1  0  0  0
  8 36  1  0  0  0
  8 37  1  0  0  0
  9 21  1  0  0  0
  9 31  1  0  0  0
  9 38  1  0  0  0
  9 39  1  0  0  0
 10 40  1  0  0  0
 11 12  1  0  0  0
 11 14  2  0  0  0
 11 15  1  0  0  0
 12 17  1  0  0  0
 12 28  2  0  0  0
 13 28  1  0  0  0
 13 29  2  0  0  0
 13 56  1  0  0  0
 14 29  1  0  0  0
 14 31  1  0  0  0
 15 30  2  0  0  0
 15 41  1  0  0  0
 16 17  2  0  0  0
 16 18  1  0  0  0
 16 30  1  0  0  0
 17 26  1  0  0  0
 18 23  2  0  0  0
 19 20  1  0  0  0
 19 31  1  0  0  0
 19 42  1  0  0  0
 19 43  1  0  0  0
 20 22  1  0  0  0
 20 32  1  0  0  0
 20 44  1  0  0  0
 21 32  1  0  0  0
 21 45  1  0  0  0
 22 46  1  0  0  0
 22 47  1  0  0  0
 23 48  1  0  0  0
 24 25  3  0  0  0
 25 49  1  0  0  0
 32 50  1  0  0  0
 33 51  1  0  0  0
 52 56  1  0  0  0
 52 58  1  0  0  0
 52 62  1  0  0  0
 53 54  1  0  0  0
 53 55  1  0  0  0
 53 59  1  0  0  0
 54 57  2  0  0  0
 55 61  2  0  0  0
 56 63  1  0  0  0
 56 64  1  0  0  0
 57 58  1  0  0  0
 57 61  1  0  0  0
 58 65  1  0  0  0
 58 66  1  0  0  0
 59 60  1  0  0  0
 59 67  1  0  0  0
 59 68  1  0  0  0
 60 69  1  0  0  0
 60 70  1  0  0  0
 60 71  1  0  0  0
 61 72  1  0  0  0
M  END
> <s_m_entry_id>
416

> <s_m_entry_name>
000000416.1

> <s_m_Source_Path>
/Users/zaksoul/Documents/2

> <s_m_Source_File>
000000416.mol2

> <i_m_Source_File_Index>
1

$$$$
No_0_440
                    3D
 Schrodinger Suite 2022-4.
 72 78  0  0  1  0            999 V2000
   -5.1340    3.7600  -22.0670 C   0  0  0  0  0  0
   -5.3710    3.9160  -23.4120 C   0  0  0  0  0  0
   -3.9050    3.5060  -21.6950 C   0  0  0  0  0  0
   -2.9690    3.5710  -23.8440 C   0  0  0  0  0  0
   -2.8390    3.3620  -22.4140 C   0  0  0  0  0  0
   -4.3030    3.8300  -24.3990 C   0  0  0  0  0  0
   -3.5030    3.7910  -26.5810 C   0  0  0  0  0  0
    6.1100    3.1220  -21.0980 C   0  0  0  0  0  0
    6.0250    3.2000  -23.6530 C   0  0  0  0  0  0
   -4.5260    3.9250  -25.7420 C   0  0  0  0  0  0
    2.2460    3.7740  -23.7620 C   0  0  0  0  0  0
    1.4270    4.8960  -23.5080 C   0  0  0  0  0  0
    3.2200    6.0960  -22.8220 C   0  0  0  0  0  0
    3.6410    3.9630  -23.4250 C   0  0  0  0  0  0
    1.7050    2.6450  -24.4060 C   0  0  0  0  0  0
   -0.4180    3.4760  -24.3600 C   0  0  0  0  0  0
    0.1050    4.7070  -23.7820 C   0  0  0  0  0  0
   -1.8630    3.4830  -24.7450 C   0  0  0  0  0  0
    4.2210    1.4690  -23.0580 C   0  0  0  0  0  0
    5.1290    1.1360  -21.8830 C   0  0  2  0  0  0
    6.7440    2.6510  -22.4250 C   0  0  2  0  0  0
    5.0940    2.1670  -20.7420 C   0  0  0  0  0  0
   -2.1580    3.6080  -26.1830 C   0  0  0  0  0  0
   -1.5100    2.9540  -21.7780 C   0  0  0  0  0  0
   -0.4930    2.6120  -21.2420 C   0  0  0  0  0  0
   -0.7350    5.7660  -23.4810 F   0  0  0  0  0  0
   -3.7250    3.2980  -20.3030 F   0  0  0  0  0  0
    1.9020    6.0650  -22.9960 N   0  0  0  0  0  0
    4.1140    5.1210  -22.9990 N   0  0  0  0  0  0
    0.4040    2.5570  -24.7360 N   0  0  0  0  0  0
    4.5550    2.9050  -23.5570 N   0  0  0  0  0  0
    6.5450    1.1810  -22.3380 N   0  0  1  0  0  0
   -3.6470    3.7710  -27.9740 O   0  0  0  0  0  0
   -5.9504    3.8464  -21.3591 H   0  0  0  0  0  0
   -6.3771    4.1096  -23.7661 H   0  0  0  0  0  0
    5.6496    4.1105  -21.2424 H   0  0  0  0  0  0
    6.8800    3.1462  -20.3128 H   0  0  0  0  0  0
    6.4350    2.7294  -24.5588 H   0  0  0  0  0  0
    6.1774    4.2879  -23.7105 H   0  0  0  0  0  0
   -5.5277    4.1087  -26.1134 H   0  0  0  0  0  0
    2.3430    1.8044  -24.6538 H   0  0  0  0  0  0
    3.1712    1.4286  -22.7320 H   0  0  0  0  0  0
    4.3957    0.7489  -23.8710 H   0  0  0  0  0  0
    4.8889    0.1352  -21.4946 H   0  0  0  0  0  0
    7.8149    2.9003  -22.4563 H   0  0  0  0  0  0
    4.1136    2.6658  -20.7319 H   0  0  0  0  0  0
    5.3715    1.6745  -19.7984 H   0  0  0  0  0  0
   -1.3728    3.5638  -26.9290 H   0  0  0  0  0  0
    0.4030    2.3110  -20.7710 H   0  0  0  0  0  0
    7.1744    0.6969  -21.6060 H   0  0  0  0  0  0
   -2.7943    3.6661  -28.3796 H   0  0  0  0  0  0
    3.5520    7.6830  -20.9080 N   0  0  1  0  0  0
    7.6090    8.8820  -20.7460 N   0  0  3  0  0  0
    6.4410    8.4050  -20.2950 N   0  0  0  0  0  0
    7.4100   10.0220  -21.4170 N   0  0  0  0  0  0
    3.7800    7.4420  -22.3760 C   0  0  0  0  0  0
    5.5010    9.2270  -20.6820 C   0  0  0  0  0  0
    4.0250    9.0220  -20.4030 C   0  0  0  0  0  0
    8.9180    8.2550  -20.5320 C   0  0  0  0  0  0
    8.8190    6.7330  -20.3320 C   0  0  0  0  0  0
    6.1260   10.2570  -21.3950 C   0  0  0  0  0  0
    2.4951    7.6270  -20.6930 H   0  0  0  0  0  0
    4.8583    7.4790  -22.5901 H   0  0  0  0  0  0
    3.3052    8.2466  -22.9567 H   0  0  0  0  0  0
    3.8440    9.0900  -19.3201 H   0  0  0  0  0  0
    3.4460    9.8211  -20.8890 H   0  0  0  0  0  0
    9.4008    8.7078  -19.6534 H   0  0  0  0  0  0
    9.5721    8.4690  -21.3901 H   0  0  0  0  0  0
    9.8252    6.3169  -20.1760 H   0  0  0  0  0  0
    8.1932    6.5181  -19.4533 H   0  0  0  0  0  0
    8.3670    6.2749  -21.2241 H   0  0  0  0  0  0
    5.7282   11.1385  -21.8847 H   0  0  0  0  0  0
  1  2  2  0  0  0
  1  3  1  0  0  0
  1 34  1  0  0  0
  2  6  1  0  0  0
  2 35  1  0  0  0
  3  5  2  0  0  0
  3 27  1  0  0  0
  4  5  1  0  0  0
  4  6  2  0  0  0
  4 18  1  0  0  0
  5 24  1  0  0  0
  6 10  1  0  0  0
  7 10  2  0  0  0
  7 23  1  0  0  0
  7 33  1  0  0  0
  8 21  1  0  0  0
  8 22  1  0  0  0
  8 36  1  0  0  0
  8 37  1  0  0  0
  9 21  1  0  0  0
  9 31  1  0  0  0
  9 38  1  0  0  0
  9 39  1  0  0  0
 10 40  1  0  0  0
 11 12  1  0  0  0
 11 14  2  0  0  0
 11 15  1  0  0  0
 12 17  1  0  0  0
 12 28  2  0  0  0
 13 28  1  0  0  0
 13 29  2  0  0  0
 13 56  1  0  0  0
 14 29  1  0  0  0
 14 31  1  0  0  0
 15 30  2  0  0  0
 15 41  1  0  0  0
 16 17  2  0  0  0
 16 18  1  0  0  0
 16 30  1  0  0  0
 17 26  1  0  0  0
 18 23  2  0  0  0
 19 20  1  0  0  0
 19 31  1  0  0  0
 19 42  1  0  0  0
 19 43  1  0  0  0
 20 22  1  0  0  0
 20 32  1  0  0  0
 20 44  1  0  0  0
 21 32  1  0  0  0
 21 45  1  0  0  0
 22 46  1  0  0  0
 22 47  1  0  0  0
 23 48  1  0  0  0
 24 25  3  0  0  0
 25 49  1  0  0  0
 32 50  1  0  0  0
 33 51  1  0  0  0
 52 56  1  0  0  0
 52 58  1  0  0  0
 52 62  1  0  0  0
 53 54  1  0  0  0
 53 55  1  0  0  0
 53 59  1  0  0  0
 54 57  2  0  0  0
 55 61  2  0  0  0
 56 63  1  0  0  0
 56 64  1  0  0  0
 57 58  1  0  0  0
 57 61  1  0  0  0
 58 65  1  0  0  0
 58 66  1  0  0  0
 59 60  1  0  0  0
 59 67  1  0  0  0
 59 68  1  0  0  0
 60 69  1  0  0  0
 60 70  1  0  0  0
 60 71  1  0  0  0
 61 72  1  0  0  0
M  END
> <s_m_entry_id>
417

> <s_m_entry_name>
000000417.1

> <s_m_Source_Path>
/Users/zaksoul/Documents/2

> <s_m_Source_File>
000000417.mol2

> <i_m_Source_File_Index>
1

$$$$
No_0_441
                    3D
 Schrodinger Suite 2022-4.
 72 78  0  0  1  0            999 V2000
   -5.3120    3.4240  -21.9480 C   0  0  0  0  0  0
   -5.5740    3.6150  -23.2840 C   0  0  0  0  0  0
   -4.0710    3.1940  -21.6010 C   0  0  0  0  0  0
   -3.1690    3.3520  -23.7610 C   0  0  0  0  0  0
   -3.0120    3.1020  -22.3410 C   0  0  0  0  0  0
   -4.5190    3.5900  -24.2880 C   0  0  0  0  0  0
   -3.7520    3.6400  -26.4820 C   0  0  0  0  0  0
    5.9600    3.0740  -21.1630 C   0  0  0  0  0  0
    5.8330    3.2290  -23.7120 C   0  0  0  0  0  0
   -4.7650    3.7200  -25.6240 C   0  0  0  0  0  0
    2.0380    3.6990  -23.7490 C   0  0  0  0  0  0
    1.1930    4.7890  -23.4480 C   0  0  0  0  0  0
    2.9620    6.0170  -22.7500 C   0  0  0  0  0  0
    3.4320    3.9170  -23.4260 C   0  0  0  0  0  0
    1.5190    2.5750  -24.4200 C   0  0  0  0  0  0
   -0.6260    3.3440  -24.3170 C   0  0  0  0  0  0
   -0.1280    4.5710  -23.7080 C   0  0  0  0  0  0
   -2.0760    3.3220  -24.6800 C   0  0  0  0  0  0
    4.0870    1.4300  -23.1460 C   0  0  0  0  0  0
    5.0210    1.0860  -21.9960 C   0  0  2  0  0  0
    6.5850    2.6630  -22.5140 C   0  0  2  0  0  0
    4.9760    2.0800  -20.8230 C   0  0  0  0  0  0
   -2.3970    3.4840  -26.1090 C   0  0  0  0  0  0
   -1.6630    2.7130  -21.7370 C   0  0  0  0  0  0
   -0.6280    2.3830  -21.2270 C   0  0  0  0  0  0
   -0.9930    5.5960  -23.3620 F   0  0  0  0  0  0
   -3.8630    2.9470  -20.2200 F   0  0  0  0  0  0
    1.6430    5.9540  -22.9070 N   0  0  0  0  0  0
    3.8790    5.0740  -22.9710 N   0  0  0  0  0  0
    0.2160    2.4600  -24.7340 N   0  0  0  0  0  0
    4.3730    2.8890  -23.6040 N   0  0  0  0  0  0
    6.4290    1.1850  -22.4700 N   0  0  1  0  0  0
   -3.9170    3.6600  -27.8720 O   0  0  0  0  0  0
   -6.1194    3.4662  -21.2259 H   0  0  0  0  0  0
   -6.5905    3.7906  -23.6171 H   0  0  0  0  0  0
    5.4696    4.0528  -21.2700 H   0  0  0  0  0  0
    6.7412    3.0952  -20.3889 H   0  0  0  0  0  0
    6.2415    2.7983  -24.6380 H   0  0  0  0  0  0
    5.9541    4.3220  -23.7382 H   0  0  0  0  0  0
   -5.7769    3.8866  -25.9753 H   0  0  0  0  0  0
    2.1765    1.7610  -24.7031 H   0  0  0  0  0  0
    3.0436    1.3503  -22.8069 H   0  0  0  0  0  0
    4.2687    0.7406  -23.9837 H   0  0  0  0  0  0
    4.8161    0.0675  -21.6346 H   0  0  0  0  0  0
    7.6485    2.9415  -22.5523 H   0  0  0  0  0  0
    3.9825    2.5505  -20.7826 H   0  0  0  0  0  0
    5.2815    1.5667  -19.8993 H   0  0  0  0  0  0
   -1.6225    3.4840  -26.8674 H   0  0  0  0  0  0
    0.2825    2.0928  -20.7777 H   0  0  0  0  0  0
    7.0822    0.6964  -21.7622 H   0  0  0  0  0  0
   -3.0683    3.5917  -28.2934 H   0  0  0  0  0  0
    3.5470    7.4400  -20.7690 N   0  0  1  0  0  0
    7.4430    9.0210  -21.2590 N   0  0  3  0  0  0
    6.4340    8.3880  -20.6480 N   0  0  0  0  0  0
    7.0220   10.1940  -21.7440 N   0  0  0  0  0  0
    3.4910    7.3640  -22.2710 C   0  0  0  0  0  0
    5.3720    9.1440  -20.7490 C   0  0  0  0  0  0
    4.0040    8.7640  -20.2160 C   0  0  0  0  0  0
    8.8150    8.5120  -21.3750 C   0  0  0  0  0  0
    8.8800    6.9760  -21.3340 C   0  0  0  0  0  0
    5.7540   10.2950  -21.4480 C   0  0  0  0  0  0
    2.5641    7.2560  -20.3610 H   0  0  0  0  0  0
    4.4969    7.5300  -22.6840 H   0  0  0  0  0  0
    2.8451    8.1679  -22.6539 H   0  0  0  0  0  0
    4.0420    8.7100  -19.1180 H   0  0  0  0  0  0
    3.2769    9.5441  -20.4860 H   0  0  0  0  0  0
    9.4279    8.9249  -20.5602 H   0  0  0  0  0  0
    9.2613    8.8722  -22.3136 H   0  0  0  0  0  0
    9.9267    6.6501  -21.4240 H   0  0  0  0  0  0
    8.4650    6.6160  -20.3810 H   0  0  0  0  0  0
    8.2948    6.5619  -22.1683 H   0  0  0  0  0  0
    5.1958   11.1744  -21.7481 H   0  0  0  0  0  0
  1  2  2  0  0  0
  1  3  1  0  0  0
  1 34  1  0  0  0
  2  6  1  0  0  0
  2 35  1  0  0  0
  3  5  2  0  0  0
  3 27  1  0  0  0
  4  5  1  0  0  0
  4  6  2  0  0  0
  4 18  1  0  0  0
  5 24  1  0  0  0
  6 10  1  0  0  0
  7 10  2  0  0  0
  7 23  1  0  0  0
  7 33  1  0  0  0
  8 21  1  0  0  0
  8 22  1  0  0  0
  8 36  1  0  0  0
  8 37  1  0  0  0
  9 21  1  0  0  0
  9 31  1  0  0  0
  9 38  1  0  0  0
  9 39  1  0  0  0
 10 40  1  0  0  0
 11 12  1  0  0  0
 11 14  2  0  0  0
 11 15  1  0  0  0
 12 17  1  0  0  0
 12 28  2  0  0  0
 13 28  1  0  0  0
 13 29  2  0  0  0
 13 56  1  0  0  0
 14 29  1  0  0  0
 14 31  1  0  0  0
 15 30  2  0  0  0
 15 41  1  0  0  0
 16 17  2  0  0  0
 16 18  1  0  0  0
 16 30  1  0  0  0
 17 26  1  0  0  0
 18 23  2  0  0  0
 19 20  1  0  0  0
 19 31  1  0  0  0
 19 42  1  0  0  0
 19 43  1  0  0  0
 20 22  1  0  0  0
 20 32  1  0  0  0
 20 44  1  0  0  0
 21 32  1  0  0  0
 21 45  1  0  0  0
 22 46  1  0  0  0
 22 47  1  0  0  0
 23 48  1  0  0  0
 24 25  3  0  0  0
 25 49  1  0  0  0
 32 50  1  0  0  0
 33 51  1  0  0  0
 52 56  1  0  0  0
 52 58  1  0  0  0
 52 62  1  0  0  0
 53 54  1  0  0  0
 53 55  1  0  0  0
 53 59  1  0  0  0
 54 57  2  0  0  0
 55 61  2  0  0  0
 56 63  1  0  0  0
 56 64  1  0  0  0
 57 58  1  0  0  0
 57 61  1  0  0  0
 58 65  1  0  0  0
 58 66  1  0  0  0
 59 60  1  0  0  0
 59 67  1  0  0  0
 59 68  1  0  0  0
 60 69  1  0  0  0
 60 70  1  0  0  0
 60 71  1  0  0  0
 61 72  1  0  0  0
M  END
> <s_m_entry_id>
418

> <s_m_entry_name>
000000418.1

> <s_m_Source_Path>
/Users/zaksoul/Documents/2

> <s_m_Source_File>
000000418.mol2

> <i_m_Source_File_Index>
1

$$$$
No_0_442
                    3D
 Schrodinger Suite 2022-4.
 72 78  0  0  1  0            999 V2000
   -5.3520    3.2590  -22.1560 C   0  0  0  0  0  0
   -5.5990    3.4450  -23.4960 C   0  0  0  0  0  0
   -4.1130    3.0440  -21.7930 C   0  0  0  0  0  0
   -3.1850    3.2080  -23.9400 C   0  0  0  0  0  0
   -3.0440    2.9630  -22.5180 C   0  0  0  0  0  0
   -4.5300    3.4300  -24.4860 C   0  0  0  0  0  0
   -3.7350    3.4860  -26.6690 C   0  0  0  0  0  0
    5.9110    3.0380  -21.2210 C   0  0  0  0  0  0
    5.8170    3.1880  -23.7720 C   0  0  0  0  0  0
   -4.7600    3.5560  -25.8250 C   0  0  0  0  0  0
    2.0170    3.6150  -23.8600 C   0  0  0  0  0  0
    1.1560    4.6950  -23.5720 C   0  0  0  0  0  0
    2.9010    5.9450  -22.8530 C   0  0  0  0  0  0
    3.4050    3.8490  -23.5190 C   0  0  0  0  0  0
    1.5200    2.4840  -24.5360 C   0  0  0  0  0  0
   -0.6340    3.2290  -24.4630 C   0  0  0  0  0  0
   -0.1580    4.4620  -23.8490 C   0  0  0  0  0  0
   -2.0800    3.1900  -24.8450 C   0  0  0  0  0  0
    4.0840    1.3700  -23.2260 C   0  0  0  0  0  0
    5.0070    1.0390  -22.0630 C   0  0  2  0  0  0
    6.5600    2.6320  -22.5630 C   0  0  2  0  0  0
    4.9350    2.0340  -20.8920 C   0  0  0  0  0  0
   -2.3830    3.3460  -26.2780 C   0  0  0  0  0  0
   -1.6990    2.5900  -21.8950 C   0  0  0  0  0  0
   -0.6670    2.2730  -21.3710 C   0  0  0  0  0  0
   -1.0400    5.4780  -23.5160 F   0  0  0  0  0  0
   -3.9210    2.8020  -20.4080 F   0  0  0  0  0  0
    1.5850    5.8670  -23.0270 N   0  0  0  0  0  0
    3.8320    5.0120  -23.0600 N   0  0  0  0  0  0
    0.2230    2.3540  -24.8670 N   0  0  0  0  0  0
    4.3590    2.8320  -23.6830 N   0  0  0  0  0  0
    6.4200    1.1530  -22.5180 N   0  0  1  0  0  0
   -3.8810    3.5020  -28.0620 O   0  0  0  0  0  0
   -6.1690    3.2931  -21.4444 H   0  0  0  0  0  0
   -6.6130    3.6087  -23.8424 H   0  0  0  0  0  0
    5.4117    4.0114  -21.3360 H   0  0  0  0  0  0
    6.6819    3.0703  -20.4370 H   0  0  0  0  0  0
    6.2428    2.7612  -24.6921 H   0  0  0  0  0  0
    5.9250    4.2824  -23.7982 H   0  0  0  0  0  0
   -5.7689    3.7096  -26.1904 H   0  0  0  0  0  0
    2.1904    1.6771  -24.8090 H   0  0  0  0  0  0
    3.0374    1.2792  -22.9000 H   0  0  0  0  0  0
    4.2849    0.6814  -24.0600 H   0  0  0  0  0  0
    4.8082    0.0188  -21.7028 H   0  0  0  0  0  0
    7.6203    2.9238  -22.5882 H   0  0  0  0  0  0
    3.9356    2.4928  -20.8658 H   0  0  0  0  0  0
    5.2337    1.5254  -19.9635 H   0  0  0  0  0  0
   -1.5992    3.3540  -27.0267 H   0  0  0  0  0  0
    0.2409    1.9930  -20.9101 H   0  0  0  0  0  0
    7.0694    0.6726  -21.8012 H   0  0  0  0  0  0
   -3.0259    3.4426  -28.4717 H   0  0  0  0  0  0
    3.7890    7.2650  -20.9130 N   0  0  1  0  0  0
    7.3340    9.2710  -22.0640 N   0  0  3  0  0  0
    6.5410    8.4920  -21.3160 N   0  0  0  0  0  0
    6.7200   10.4270  -22.3330 N   0  0  0  0  0  0
    3.4090    7.2990  -22.3690 C   0  0  0  0  0  0
    5.4230    9.1400  -21.1170 C   0  0  0  0  0  0
    4.2430    8.5840  -20.3440 C   0  0  0  0  0  0
    8.6840    8.9150  -22.5160 C   0  0  0  0  0  0
    8.8850    7.3950  -22.6390 C   0  0  0  0  0  0
    5.5450   10.3750  -21.7660 C   0  0  0  0  0  0
    2.9384    6.9511  -20.3262 H   0  0  0  0  0  0
    4.2819    7.5980  -22.9679 H   0  0  0  0  0  0
    2.6297    8.0593  -22.5261 H   0  0  0  0  0  0
    4.5270    8.4490  -19.2899 H   0  0  0  0  0  0
    3.4115    9.3034  -20.3770 H   0  0  0  0  0  0
    9.4252    9.3261  -21.8148 H   0  0  0  0  0  0
    8.8810    9.3890  -23.4889 H   0  0  0  0  0  0
    9.9098    7.1861  -22.9799 H   0  0  0  0  0  0
    8.7220    6.9230  -21.6589 H   0  0  0  0  0  0
    8.1672    6.9871  -23.3658 H   0  0  0  0  0  0
    4.8630   11.2130  -21.8540 H   0  0  0  0  0  0
  1  2  2  0  0  0
  1  3  1  0  0  0
  1 34  1  0  0  0
  2  6  1  0  0  0
  2 35  1  0  0  0
  3  5  2  0  0  0
  3 27  1  0  0  0
  4  5  1  0  0  0
  4  6  2  0  0  0
  4 18  1  0  0  0
  5 24  1  0  0  0
  6 10  1  0  0  0
  7 10  2  0  0  0
  7 23  1  0  0  0
  7 33  1  0  0  0
  8 21  1  0  0  0
  8 22  1  0  0  0
  8 36  1  0  0  0
  8 37  1  0  0  0
  9 21  1  0  0  0
  9 31  1  0  0  0
  9 38  1  0  0  0
  9 39  1  0  0  0
 10 40  1  0  0  0
 11 12  1  0  0  0
 11 14  2  0  0  0
 11 15  1  0  0  0
 12 17  1  0  0  0
 12 28  2  0  0  0
 13 28  1  0  0  0
 13 29  2  0  0  0
 13 56  1  0  0  0
 14 29  1  0  0  0
 14 31  1  0  0  0
 15 30  2  0  0  0
 15 41  1  0  0  0
 16 17  2  0  0  0
 16 18  1  0  0  0
 16 30  1  0  0  0
 17 26  1  0  0  0
 18 23  2  0  0  0
 19 20  1  0  0  0
 19 31  1  0  0  0
 19 42  1  0  0  0
 19 43  1  0  0  0
 20 22  1  0  0  0
 20 32  1  0  0  0
 20 44  1  0  0  0
 21 32  1  0  0  0
 21 45  1  0  0  0
 22 46  1  0  0  0
 22 47  1  0  0  0
 23 48  1  0  0  0
 24 25  3  0  0  0
 25 49  1  0  0  0
 32 50  1  0  0  0
 33 51  1  0  0  0
 52 56  1  0  0  0
 52 58  1  0  0  0
 52 62  1  0  0  0
 53 54  1  0  0  0
 53 55  1  0  0  0
 53 59  1  0  0  0
 54 57  2  0  0  0
 55 61  2  0  0  0
 56 63  1  0  0  0
 56 64  1  0  0  0
 57 58  1  0  0  0
 57 61  1  0  0  0
 58 65  1  0  0  0
 58 66  1  0  0  0
 59 60  1  0  0  0
 59 67  1  0  0  0
 59 68  1  0  0  0
 60 69  1  0  0  0
 60 70  1  0  0  0
 60 71  1  0  0  0
 61 72  1  0  0  0
M  END
> <s_m_entry_id>
419

> <s_m_entry_name>
000000419.1

> <s_m_Source_Path>
/Users/zaksoul/Documents/2

> <s_m_Source_File>
000000419.mol2

> <i_m_Source_File_Index>
1

$$$$
No_0_443
                    3D
 Schrodinger Suite 2022-4.
 72 78  0  0  1  0            999 V2000
   -5.3840    3.5220  -21.8910 C   0  0  0  0  0  0
   -5.6580    3.6830  -23.2290 C   0  0  0  0  0  0
   -4.1420    3.2850  -21.5520 C   0  0  0  0  0  0
   -3.2630    3.3770  -23.7250 C   0  0  0  0  0  0
   -3.0930    3.1610  -22.3010 C   0  0  0  0  0  0
   -4.6150    3.6190  -24.2430 C   0  0  0  0  0  0
   -3.8710    3.6050  -26.4460 C   0  0  0  0  0  0
    5.8900    3.0490  -21.2180 C   0  0  0  0  0  0
    5.7370    3.1420  -23.7690 C   0  0  0  0  0  0
   -4.8740    3.7190  -25.5800 C   0  0  0  0  0  0
    1.9480    3.6590  -23.7770 C   0  0  0  0  0  0
    1.1200    4.7660  -23.4940 C   0  0  0  0  0  0
    2.9120    5.9890  -22.8470 C   0  0  0  0  0  0
    3.3490    3.8670  -23.4750 C   0  0  0  0  0  0
    1.4080    2.5250  -24.4140 C   0  0  0  0  0  0
   -0.7250    3.3240  -24.3080 C   0  0  0  0  0  0
   -0.2060    4.5590  -23.7350 C   0  0  0  0  0  0
   -2.1800    3.3110  -24.6550 C   0  0  0  0  0  0
    3.9760    1.3800  -23.1390 C   0  0  0  0  0  0
    4.9180    1.0540  -21.9910 C   0  0  2  0  0  0
    6.4960    2.5970  -22.5650 C   0  0  2  0  0  0
    4.8980    2.0770  -20.8430 C   0  0  0  0  0  0
   -2.5140    3.4410  -26.0840 C   0  0  0  0  0  0
   -1.7420    2.7700  -21.7010 C   0  0  0  0  0  0
   -0.7060    2.4400  -21.1950 C   0  0  0  0  0  0
   -1.0540    5.6040  -23.4050 F   0  0  0  0  0  0
   -3.9230    3.0700  -20.1670 F   0  0  0  0  0  0
    1.5900    5.9390  -22.9870 N   0  0  0  0  0  0
    3.8150    5.0300  -23.0530 N   0  0  0  0  0  0
    0.1010    2.4200  -24.7110 N   0  0  0  0  0  0
    4.2740    2.8230  -23.6370 N   0  0  0  0  0  0
    6.3220    1.1230  -22.4820 N   0  0  1  0  0  0
   -4.0510    3.5930  -27.8340 O   0  0  0  0  0  0
   -6.1832    3.5923  -21.1621 H   0  0  0  0  0  0
   -6.6758    3.8637  -23.5552 H   0  0  0  0  0  0
    5.4106    4.0310  -21.3442 H   0  0  0  0  0  0
    6.6800    3.0803  -20.4532 H   0  0  0  0  0  0
    6.1304    2.6830  -24.6880 H   0  0  0  0  0  0
    5.8712    4.2324  -23.8235 H   0  0  0  0  0  0
   -5.8876    3.8896  -25.9242 H   0  0  0  0  0  0
    2.0523    1.6961  -24.6840 H   0  0  0  0  0  0
    2.9356    1.3215  -22.7868 H   0  0  0  0  0  0
    4.1394    0.6678  -23.9612 H   0  0  0  0  0  0
    4.7042    0.0473  -21.6026 H   0  0  0  0  0  0
    7.5622    2.8615  -22.6215 H   0  0  0  0  0  0
    3.9108    2.5605  -20.8026 H   0  0  0  0  0  0
    5.2076    1.5829  -19.9102 H   0  0  0  0  0  0
   -1.7478    3.4129  -26.8502 H   0  0  0  0  0  0
    0.2058    2.1501  -20.7481 H   0  0  0  0  0  0
    6.9775    0.6439  -21.7698 H   0  0  0  0  0  0
   -3.2079    3.5030  -28.2625 H   0  0  0  0  0  0
    4.1340    7.2340  -21.0630 N   0  0  1  0  0  0
    7.0450    9.0540  -20.8210 N   0  0  0  0  0  0
    7.6850    9.7780  -21.7360 N   0  0  0  0  0  0
    6.8720   10.3280  -22.6060 N   0  0  0  0  0  0
    5.7520    9.1810  -21.1780 C   0  0  0  0  0  0
    3.4630    7.3410  -22.4070 C   0  0  0  0  0  0
    4.5870    8.5330  -20.4440 C   0  0  0  0  0  0
    7.7040    8.3480  -19.7130 C   0  0  0  0  0  0
    7.7490    6.8200  -19.8800 C   0  0  0  0  0  0
    5.6330    9.9720  -22.2820 C   0  0  0  0  0  0
    3.4532    6.7861  -20.3542 H   0  0  0  0  0  0
    4.1884    7.7012  -23.1514 H   0  0  0  0  0  0
    2.6412    8.0698  -22.3480 H   0  0  0  0  0  0
    4.8681    8.3599  -19.3947 H   0  0  0  0  0  0
    3.7414    9.2357  -20.4100 H   0  0  0  0  0  0
    7.1978    8.5971  -18.7687 H   0  0  0  0  0  0
    8.7279    8.7320  -19.5940 H   0  0  0  0  0  0
    8.2559    6.3711  -19.0131 H   0  0  0  0  0  0
    6.7239    6.4270  -19.9480 H   0  0  0  0  0  0
    8.3002    6.5659  -20.7974 H   0  0  0  0  0  0
    4.7955   10.3222  -22.8744 H   0  0  0  0  0  0
  1  2  2  0  0  0
  1  3  1  0  0  0
  1 34  1  0  0  0
  2  6  1  0  0  0
  2 35  1  0  0  0
  3  5  2  0  0  0
  3 27  1  0  0  0
  4  5  1  0  0  0
  4  6  2  0  0  0
  4 18  1  0  0  0
  5 24  1  0  0  0
  6 10  1  0  0  0
  7 10  2  0  0  0
  7 23  1  0  0  0
  7 33  1  0  0  0
  8 21  1  0  0  0
  8 22  1  0  0  0
  8 36  1  0  0  0
  8 37  1  0  0  0
  9 21  1  0  0  0
  9 31  1  0  0  0
  9 38  1  0  0  0
  9 39  1  0  0  0
 10 40  1  0  0  0
 11 12  1  0  0  0
 11 14  2  0  0  0
 11 15  1  0  0  0
 12 17  1  0  0  0
 12 28  2  0  0  0
 13 28  1  0  0  0
 13 29  2  0  0  0
 13 57  1  0  0  0
 14 29  1  0  0  0
 14 31  1  0  0  0
 15 30  2  0  0  0
 15 41  1  0  0  0
 16 17  2  0  0  0
 16 18  1  0  0  0
 16 30  1  0  0  0
 17 26  1  0  0  0
 18 23  2  0  0  0
 19 20  1  0  0  0
 19 31  1  0  0  0
 19 42  1  0  0  0
 19 43  1  0  0  0
 20 22  1  0  0  0
 20 32  1  0  0  0
 20 44  1  0  0  0
 21 32  1  0  0  0
 21 45  1  0  0  0
 22 46  1  0  0  0
 22 47  1  0  0  0
 23 48  1  0  0  0
 24 25  3  0  0  0
 25 49  1  0  0  0
 32 50  1  0  0  0
 33 51  1  0  0  0
 52 57  1  0  0  0
 52 58  1  0  0  0
 52 62  1  0  0  0
 53 54  1  0  0  0
 53 56  1  0  0  0
 53 59  1  0  0  0
 54 55  2  0  0  0
 55 61  1  0  0  0
 56 58  1  0  0  0
 56 61  2  0  0  0
 57 63  1  0  0  0
 57 64  1  0  0  0
 58 65  1  0  0  0
 58 66  1  0  0  0
 59 60  1  0  0  0
 59 67  1  0  0  0
 59 68  1  0  0  0
 60 69  1  0  0  0
 60 70  1  0  0  0
 60 71  1  0  0  0
 61 72  1  0  0  0
M  END
> <s_m_entry_id>
420

> <s_m_entry_name>
000000420.1

> <s_m_Source_Path>
/Users/zaksoul/Documents/2

> <s_m_Source_File>
000000420.mol2

> <i_m_Source_File_Index>
1

$$$$
No_0_444
                    3D
 Schrodinger Suite 2022-4.
 72 78  0  0  1  0            999 V2000
   -5.2300    3.5920  -22.0790 C   0  0  0  0  0  0
   -5.4670    3.7990  -23.4180 C   0  0  0  0  0  0
   -4.0000    3.3310  -21.7150 C   0  0  0  0  0  0
   -3.0620    3.4830  -23.8590 C   0  0  0  0  0  0
   -2.9320    3.2190  -22.4390 C   0  0  0  0  0  0
   -4.3970    3.7560  -24.4060 C   0  0  0  0  0  0
   -3.5940    3.8050  -26.5860 C   0  0  0  0  0  0
    6.0160    2.9710  -21.1220 C   0  0  0  0  0  0
    5.9330    3.1470  -23.6710 C   0  0  0  0  0  0
   -4.6190    3.9020  -25.7440 C   0  0  0  0  0  0
    2.1520    3.7070  -23.7630 C   0  0  0  0  0  0
    1.3270    4.8140  -23.4680 C   0  0  0  0  0  0
    3.1140    5.9950  -22.7330 C   0  0  0  0  0  0
    3.5450    3.8900  -23.4180 C   0  0  0  0  0  0
    1.6170    2.6010  -24.4510 C   0  0  0  0  0  0
   -0.5100    3.4190  -24.3760 C   0  0  0  0  0  0
    0.0070    4.6300  -23.7490 C   0  0  0  0  0  0
   -1.9550    3.4340  -24.7620 C   0  0  0  0  0  0
    4.1380    1.3860  -23.1460 C   0  0  0  0  0  0
    5.0450    1.0120  -21.9840 C   0  0  2  0  0  0
    6.6540    2.5550  -22.4650 C   0  0  2  0  0  0
    5.0050    1.9980  -20.8040 C   0  0  0  0  0  0
   -2.2490    3.6140  -26.1940 C   0  0  0  0  0  0
   -1.6030    2.7940  -21.8170 C   0  0  0  0  0  0
   -0.5840    2.4360  -21.2930 C   0  0  0  0  0  0
   -0.8390    5.6730  -23.4090 F   0  0  0  0  0  0
   -3.8200    3.0690  -20.3320 F   0  0  0  0  0  0
    1.7960    5.9650  -22.9100 N   0  0  0  0  0  0
    4.0120    5.0330  -22.9470 N   0  0  0  0  0  0
    0.3170    2.5190  -24.7860 N   0  0  0  0  0  0
    4.4640    2.8410  -23.5890 N   0  0  0  0  0  0
    6.4620    1.0820  -22.4350 N   0  0  1  0  0  0
   -3.7370    3.8380  -27.9790 O   0  0  0  0  0  0
   -6.0473    3.6482  -21.3691 H   0  0  0  0  0  0
   -6.4735    4.0019  -23.7656 H   0  0  0  0  0  0
    5.5508    3.9620  -21.2290 H   0  0  0  0  0  0
    6.7857    2.9690  -20.3362 H   0  0  0  0  0  0
    6.3465    2.7143  -24.5939 H   0  0  0  0  0  0
    6.0802    4.2370  -23.6871 H   0  0  0  0  0  0
   -5.6208    4.0947  -26.1104 H   0  0  0  0  0  0
    2.2595    1.7738  -24.7301 H   0  0  0  0  0  0
    3.0880    1.3285  -22.8232 H   0  0  0  0  0  0
    4.3157    0.6984  -23.9860 H   0  0  0  0  0  0
    4.8097   -0.0038  -21.6336 H   0  0  0  0  0  0
    7.7240    2.8094  -22.4852 H   0  0  0  0  0  0
    4.0223    2.4914  -20.7757 H   0  0  0  0  0  0
    5.2836    1.4711  -19.8794 H   0  0  0  0  0  0
   -1.4632    3.6020  -26.9406 H   0  0  0  0  0  0
    0.3129    2.1217  -20.8326 H   0  0  0  0  0  0
    7.0924    0.5724  -21.7213 H   0  0  0  0  0  0
   -2.8835    3.7529  -28.3874 H   0  0  0  0  0  0
    4.4890    7.1320  -20.9880 N   0  0  1  0  0  0
    7.3470    9.0460  -20.9020 N   0  0  0  0  0  0
    7.8560    9.8730  -21.8120 N   0  0  0  0  0  0
    6.9330   10.4600  -22.5340 N   0  0  0  0  0  0
    6.0190    9.1480  -21.1030 C   0  0  0  0  0  0
    3.6670    7.3270  -22.2350 C   0  0  0  0  0  0
    4.9660    8.3910  -20.3070 C   0  0  0  0  0  0
    8.1500    8.2740  -19.9420 C   0  0  0  0  0  0
    8.2250    6.7700  -20.2500 C   0  0  0  0  0  0
    5.7510   10.0260  -22.1100 C   0  0  0  0  0  0
    3.9070    6.5960  -20.2530 H   0  0  0  0  0  0
    4.2919    7.7799  -23.0188 H   0  0  0  0  0  0
    2.8336    8.0123  -22.0209 H   0  0  0  0  0  0
    5.3681    8.1389  -19.3147 H   0  0  0  0  0  0
    4.1067    9.0512  -20.1179 H   0  0  0  0  0  0
    7.7452    8.4189  -18.9295 H   0  0  0  0  0  0
    9.1679    8.6890  -19.9010 H   0  0  0  0  0  0
    8.8407    6.2692  -19.4883 H   0  0  0  0  0  0
    7.2118    6.3419  -20.2410 H   0  0  0  0  0  0
    8.6768    6.6201  -21.2416 H   0  0  0  0  0  0
    4.8410   10.3900  -22.5730 H   0  0  0  0  0  0
  1  2  2  0  0  0
  1  3  1  0  0  0
  1 34  1  0  0  0
  2  6  1  0  0  0
  2 35  1  0  0  0
  3  5  2  0  0  0
  3 27  1  0  0  0
  4  5  1  0  0  0
  4  6  2  0  0  0
  4 18  1  0  0  0
  5 24  1  0  0  0
  6 10  1  0  0  0
  7 10  2  0  0  0
  7 23  1  0  0  0
  7 33  1  0  0  0
  8 21  1  0  0  0
  8 22  1  0  0  0
  8 36  1  0  0  0
  8 37  1  0  0  0
  9 21  1  0  0  0
  9 31  1  0  0  0
  9 38  1  0  0  0
  9 39  1  0  0  0
 10 40  1  0  0  0
 11 12  1  0  0  0
 11 14  2  0  0  0
 11 15  1  0  0  0
 12 17  1  0  0  0
 12 28  2  0  0  0
 13 28  1  0  0  0
 13 29  2  0  0  0
 13 57  1  0  0  0
 14 29  1  0  0  0
 14 31  1  0  0  0
 15 30  2  0  0  0
 15 41  1  0  0  0
 16 17  2  0  0  0
 16 18  1  0  0  0
 16 30  1  0  0  0
 17 26  1  0  0  0
 18 23  2  0  0  0
 19 20  1  0  0  0
 19 31  1  0  0  0
 19 42  1  0  0  0
 19 43  1  0  0  0
 20 22  1  0  0  0
 20 32  1  0  0  0
 20 44  1  0  0  0
 21 32  1  0  0  0
 21 45  1  0  0  0
 22 46  1  0  0  0
 22 47  1  0  0  0
 23 48  1  0  0  0
 24 25  3  0  0  0
 25 49  1  0  0  0
 32 50  1  0  0  0
 33 51  1  0  0  0
 52 57  1  0  0  0
 52 58  1  0  0  0
 52 62  1  0  0  0
 53 54  1  0  0  0
 53 56  1  0  0  0
 53 59  1  0  0  0
 54 55  2  0  0  0
 55 61  1  0  0  0
 56 58  1  0  0  0
 56 61  2  0  0  0
 57 63  1  0  0  0
 57 64  1  0  0  0
 58 65  1  0  0  0
 58 66  1  0  0  0
 59 60  1  0  0  0
 59 67  1  0  0  0
 59 68  1  0  0  0
 60 69  1  0  0  0
 60 70  1  0  0  0
 60 71  1  0  0  0
 61 72  1  0  0  0
M  END
> <s_m_entry_id>
421

> <s_m_entry_name>
000000421.1

> <s_m_Source_Path>
/Users/zaksoul/Documents/2

> <s_m_Source_File>
000000421.mol2

> <i_m_Source_File_Index>
1

$$$$
No_0_445
                    3D
 Schrodinger Suite 2022-4.
 72 78  0  0  1  0            999 V2000
   -5.2960    3.4270  -22.0610 C   0  0  0  0  0  0
   -5.5300    3.6040  -23.4040 C   0  0  0  0  0  0
   -4.0620    3.2020  -21.6860 C   0  0  0  0  0  0
   -3.1150    3.3390  -23.8270 C   0  0  0  0  0  0
   -2.9880    3.1040  -22.4020 C   0  0  0  0  0  0
   -4.4540    3.5700  -24.3860 C   0  0  0  0  0  0
   -3.6400    3.6000  -26.5630 C   0  0  0  0  0  0
    5.9560    3.0970  -21.0320 C   0  0  0  0  0  0
    5.8840    3.2270  -23.5850 C   0  0  0  0  0  0
   -4.6710    3.6870  -25.7280 C   0  0  0  0  0  0
    2.0900    3.6920  -23.7070 C   0  0  0  0  0  0
    1.2380    4.7840  -23.4360 C   0  0  0  0  0  0
    2.9910    6.0210  -22.7120 C   0  0  0  0  0  0
    3.4770    3.9150  -23.3570 C   0  0  0  0  0  0
    1.5860    2.5610  -24.3780 C   0  0  0  0  0  0
   -0.5600    3.3280  -24.3290 C   0  0  0  0  0  0
   -0.0760    4.5620  -23.7210 C   0  0  0  0  0  0
   -2.0030    3.3020  -24.7230 C   0  0  0  0  0  0
    4.1280    1.4320  -23.0380 C   0  0  0  0  0  0
    5.0380    1.1010  -21.8650 C   0  0  2  0  0  0
    6.6110    2.6730  -22.3650 C   0  0  2  0  0  0
    4.9670    2.1060  -20.7030 C   0  0  0  0  0  0
   -2.2930    3.4480  -26.1600 C   0  0  0  0  0  0
   -1.6520    2.7220  -21.7650 C   0  0  0  0  0  0
   -0.6280    2.3980  -21.2300 C   0  0  0  0  0  0
   -0.9500    5.5900  -23.4040 F   0  0  0  0  0  0
   -3.8840    2.9690  -20.2970 F   0  0  0  0  0  0
    1.6750    5.9550  -22.8960 N   0  0  0  0  0  0
    3.9130    5.0770  -22.9040 N   0  0  0  0  0  0
    0.2910    2.4420  -24.7180 N   0  0  0  0  0  0
    4.4220    2.8860  -23.5050 N   0  0  0  0  0  0
    6.4560    1.1960  -22.3090 N   0  0  1  0  0  0
   -3.7750    3.6050  -27.9570 O   0  0  0  0  0  0
   -6.1187    3.4752  -21.3568 H   0  0  0  0  0  0
   -6.5389    3.7757  -23.7614 H   0  0  0  0  0  0
    5.4674    4.0743  -21.1592 H   0  0  0  0  0  0
    6.7208    3.1273  -20.2420 H   0  0  0  0  0  0
    6.3129    2.7870  -24.4974 H   0  0  0  0  0  0
    6.0041    4.3199  -23.6193 H   0  0  0  0  0  0
   -5.6754    3.8486  -26.1023 H   0  0  0  0  0  0
    2.2503    1.7451  -24.6389 H   0  0  0  0  0  0
    3.0779    1.3542  -22.7199 H   0  0  0  0  0  0
    4.3278    0.7339  -23.8643 H   0  0  0  0  0  0
    4.8261    0.0857  -21.4986 H   0  0  0  0  0  0
    7.6745    2.9535  -22.3842 H   0  0  0  0  0  0
    3.9722    2.5752  -20.6879 H   0  0  0  0  0  0
    5.2526    1.6025  -19.7676 H   0  0  0  0  0  0
   -1.5023    3.4420  -26.9015 H   0  0  0  0  0  0
    0.2733    2.1139  -20.7588 H   0  0  0  0  0  0
    7.0947    0.7156  -21.5826 H   0  0  0  0  0  0
   -2.9171    3.5338  -28.3587 H   0  0  0  0  0  0
    4.5010    7.2020  -21.1160 N   0  0  1  0  0  0
    7.2010    9.3260  -21.3230 N   0  0  0  0  0  0
    7.5230   10.2190  -22.2560 N   0  0  0  0  0  0
    6.4720   10.7570  -22.8260 N   0  0  0  0  0  0
    5.8540    9.3330  -21.3440 C   0  0  0  0  0  0
    3.5080    7.3740  -22.2350 C   0  0  0  0  0  0
    4.9730    8.4710  -20.4510 C   0  0  0  0  0  0
    8.1780    8.5880  -20.5100 C   0  0  0  0  0  0
    8.3190    7.1040  -20.8880 C   0  0  0  0  0  0
    5.3910   10.2190  -22.2700 C   0  0  0  0  0  0
    4.0623    6.5994  -20.3345 H   0  0  0  0  0  0
    3.9888    7.8988  -23.0737 H   0  0  0  0  0  0
    2.6638    7.9862  -21.8849 H   0  0  0  0  0  0
    5.5217    8.2191  -19.5315 H   0  0  0  0  0  0
    4.1021    9.0569  -20.1220 H   0  0  0  0  0  0
    7.9030    8.6680  -19.4479 H   0  0  0  0  0  0
    9.1598    9.0784  -20.5841 H   0  0  0  0  0  0
    9.0652    6.6279  -20.2349 H   0  0  0  0  0  0
    7.3490    6.6000  -20.7650 H   0  0  0  0  0  0
    8.6439    7.0220  -21.9357 H   0  0  0  0  0  0
    4.4036   10.5271  -22.5941 H   0  0  0  0  0  0
  1  2  2  0  0  0
  1  3  1  0  0  0
  1 34  1  0  0  0
  2  6  1  0  0  0
  2 35  1  0  0  0
  3  5  2  0  0  0
  3 27  1  0  0  0
  4  5  1  0  0  0
  4  6  2  0  0  0
  4 18  1  0  0  0
  5 24  1  0  0  0
  6 10  1  0  0  0
  7 10  2  0  0  0
  7 23  1  0  0  0
  7 33  1  0  0  0
  8 21  1  0  0  0
  8 22  1  0  0  0
  8 36  1  0  0  0
  8 37  1  0  0  0
  9 21  1  0  0  0
  9 31  1  0  0  0
  9 38  1  0  0  0
  9 39  1  0  0  0
 10 40  1  0  0  0
 11 12  1  0  0  0
 11 14  2  0  0  0
 11 15  1  0  0  0
 12 17  1  0  0  0
 12 28  2  0  0  0
 13 28  1  0  0  0
 13 29  2  0  0  0
 13 57  1  0  0  0
 14 29  1  0  0  0
 14 31  1  0  0  0
 15 30  2  0  0  0
 15 41  1  0  0  0
 16 17  2  0  0  0
 16 18  1  0  0  0
 16 30  1  0  0  0
 17 26  1  0  0  0
 18 23  2  0  0  0
 19 20  1  0  0  0
 19 31  1  0  0  0
 19 42  1  0  0  0
 19 43  1  0  0  0
 20 22  1  0  0  0
 20 32  1  0  0  0
 20 44  1  0  0  0
 21 32  1  0  0  0
 21 45  1  0  0  0
 22 46  1  0  0  0
 22 47  1  0  0  0
 23 48  1  0  0  0
 24 25  3  0  0  0
 25 49  1  0  0  0
 32 50  1  0  0  0
 33 51  1  0  0  0
 52 57  1  0  0  0
 52 58  1  0  0  0
 52 62  1  0  0  0
 53 54  1  0  0  0
 53 56  1  0  0  0
 53 59  1  0  0  0
 54 55  2  0  0  0
 55 61  1  0  0  0
 56 58  1  0  0  0
 56 61  2  0  0  0
 57 63  1  0  0  0
 57 64  1  0  0  0
 58 65  1  0  0  0
 58 66  1  0  0  0
 59 60  1  0  0  0
 59 67  1  0  0  0
 59 68  1  0  0  0
 60 69  1  0  0  0
 60 70  1  0  0  0
 60 71  1  0  0  0
 61 72  1  0  0  0
M  END
> <s_m_entry_id>
422

> <s_m_entry_name>
000000422.1

> <s_m_Source_Path>
/Users/zaksoul/Documents/2

> <s_m_Source_File>
000000422.mol2

> <i_m_Source_File_Index>
1

$$$$
No_0_446
                    3D
 Schrodinger Suite 2022-4.
 72 78  0  0  1  0            999 V2000
   -5.3460    3.3770  -22.1170 C   0  0  0  0  0  0
   -5.5660    3.5890  -23.4580 C   0  0  0  0  0  0
   -4.1180    3.1240  -21.7390 C   0  0  0  0  0  0
   -3.1530    3.2960  -23.8690 C   0  0  0  0  0  0
   -3.0400    3.0250  -22.4490 C   0  0  0  0  0  0
   -4.4830    3.5610  -24.4320 C   0  0  0  0  0  0
   -3.6530    3.6290  -26.6010 C   0  0  0  0  0  0
    5.8920    2.8440  -21.0160 C   0  0  0  0  0  0
    5.8410    3.0340  -23.5650 C   0  0  0  0  0  0
   -4.6890    3.7130  -25.7720 C   0  0  0  0  0  0
    2.0560    3.5630  -23.7040 C   0  0  0  0  0  0
    1.2190    4.6620  -23.4130 C   0  0  0  0  0  0
    2.9860    5.8530  -22.6480 C   0  0  0  0  0  0
    3.4440    3.7550  -23.3390 C   0  0  0  0  0  0
    1.5400    2.4560  -24.4050 C   0  0  0  0  0  0
   -0.5950    3.2560  -24.3530 C   0  0  0  0  0  0
   -0.0960    4.4680  -23.7130 C   0  0  0  0  0  0
   -2.0350    3.2620  -24.7570 C   0  0  0  0  0  0
    4.0530    1.2550  -23.0730 C   0  0  0  0  0  0
    4.9490    0.8830  -21.9020 C   0  0  2  0  0  0
    6.5500    2.4410  -22.3530 C   0  0  2  0  0  0
    4.8850    1.8610  -20.7170 C   0  0  0  0  0  0
   -2.3120    3.4470  -26.1920 C   0  0  0  0  0  0
   -1.7150    2.6070  -21.8120 C   0  0  0  0  0  0
   -0.7010    2.2550  -21.2770 C   0  0  0  0  0  0
   -0.9560    5.5020  -23.3780 F   0  0  0  0  0  0
   -3.9540    2.8560  -20.3550 F   0  0  0  0  0  0
    1.6710    5.8130  -22.8430 N   0  0  0  0  0  0
    3.8950    4.9000  -22.8550 N   0  0  0  0  0  0
    0.2450    2.3660  -24.7570 N   0  0  0  0  0  0
    4.3740    2.7160  -23.5040 N   0  0  0  0  0  0
    6.3710    0.9660  -22.3340 N   0  0  1  0  0  0
   -3.7770    3.6690  -27.9960 O   0  0  0  0  0  0
   -6.1730    3.4222  -21.4176 H   0  0  0  0  0  0
   -6.5696    3.7857  -23.8173 H   0  0  0  0  0  0
    5.4198    3.8317  -21.1229 H   0  0  0  0  0  0
    6.6509    2.8440  -20.2197 H   0  0  0  0  0  0
    6.2698    2.6103  -24.4851 H   0  0  0  0  0  0
    5.9792    4.1253  -23.5731 H   0  0  0  0  0  0
   -5.6880    3.8987  -26.1495 H   0  0  0  0  0  0
    2.1928    1.6355  -24.6802 H   0  0  0  0  0  0
    2.9991    1.1874  -22.7651 H   0  0  0  0  0  0
    4.2487    0.5740  -23.9144 H   0  0  0  0  0  0
    4.7180   -0.1370  -21.5610 H   0  0  0  0  0  0
    7.6178    2.7052  -22.3580 H   0  0  0  0  0  0
    3.8979    2.3460  -20.6989 H   0  0  0  0  0  0
    5.1556    1.3308  -19.7920 H   0  0  0  0  0  0
   -1.5165    3.4450  -26.9283 H   0  0  0  0  0  0
    0.1919    1.9450  -20.8061 H   0  0  0  0  0  0
    6.9963    0.4582  -21.6146 H   0  0  0  0  0  0
   -2.9177    3.5938  -28.3940 H   0  0  0  0  0  0
    4.7480    6.9790  -21.2870 N   0  0  1  0  0  0
    7.2090    9.3250  -21.8180 N   0  0  0  0  0  0
    7.2630   10.3340  -22.6850 N   0  0  0  0  0  0
    6.0820   10.8420  -22.9440 N   0  0  0  0  0  0
    5.8930    9.2250  -21.5460 C   0  0  0  0  0  0
    3.5210    7.1860  -22.1360 C   0  0  0  0  0  0
    5.2850    8.2060  -20.5930 C   0  0  0  0  0  0
    8.3830    8.5870  -21.3310 C   0  0  0  0  0  0
    8.5190    7.1680  -21.9060 C   0  0  0  0  0  0
    5.1860   10.1630  -22.2360 C   0  0  0  0  0  0
    4.5299    6.2648  -20.5068 H   0  0  0  0  0  0
    3.7711    7.8333  -22.9895 H   0  0  0  0  0  0
    2.7443    7.6878  -21.5402 H   0  0  0  0  0  0
    6.0394    7.9042  -19.8515 H   0  0  0  0  0  0
    4.4791    8.6819  -20.0151 H   0  0  0  0  0  0
    8.3500    8.5340  -20.2328 H   0  0  0  0  0  0
    9.2938    9.1609  -21.5570 H   0  0  0  0  0  0
    9.4180    6.6880  -21.4920 H   0  0  0  0  0  0
    7.6315    6.5763  -21.6372 H   0  0  0  0  0  0
    8.6040    7.2220  -23.0014 H   0  0  0  0  0  0
    4.1353   10.4219  -22.2990 H   0  0  0  0  0  0
  1  2  2  0  0  0
  1  3  1  0  0  0
  1 34  1  0  0  0
  2  6  1  0  0  0
  2 35  1  0  0  0
  3  5  2  0  0  0
  3 27  1  0  0  0
  4  5  1  0  0  0
  4  6  2  0  0  0
  4 18  1  0  0  0
  5 24  1  0  0  0
  6 10  1  0  0  0
  7 10  2  0  0  0
  7 23  1  0  0  0
  7 33  1  0  0  0
  8 21  1  0  0  0
  8 22  1  0  0  0
  8 36  1  0  0  0
  8 37  1  0  0  0
  9 21  1  0  0  0
  9 31  1  0  0  0
  9 38  1  0  0  0
  9 39  1  0  0  0
 10 40  1  0  0  0
 11 12  1  0  0  0
 11 14  2  0  0  0
 11 15  1  0  0  0
 12 17  1  0  0  0
 12 28  2  0  0  0
 13 28  1  0  0  0
 13 29  2  0  0  0
 13 57  1  0  0  0
 14 29  1  0  0  0
 14 31  1  0  0  0
 15 30  2  0  0  0
 15 41  1  0  0  0
 16 17  2  0  0  0
 16 18  1  0  0  0
 16 30  1  0  0  0
 17 26  1  0  0  0
 18 23  2  0  0  0
 19 20  1  0  0  0
 19 31  1  0  0  0
 19 42  1  0  0  0
 19 43  1  0  0  0
 20 22  1  0  0  0
 20 32  1  0  0  0
 20 44  1  0  0  0
 21 32  1  0  0  0
 21 45  1  0  0  0
 22 46  1  0  0  0
 22 47  1  0  0  0
 23 48  1  0  0  0
 24 25  3  0  0  0
 25 49  1  0  0  0
 32 50  1  0  0  0
 33 51  1  0  0  0
 52 57  1  0  0  0
 52 58  1  0  0  0
 52 62  1  0  0  0
 53 54  1  0  0  0
 53 56  1  0  0  0
 53 59  1  0  0  0
 54 55  2  0  0  0
 55 61  1  0  0  0
 56 58  1  0  0  0
 56 61  2  0  0  0
 57 63  1  0  0  0
 57 64  1  0  0  0
 58 65  1  0  0  0
 58 66  1  0  0  0
 59 60  1  0  0  0
 59 67  1  0  0  0
 59 68  1  0  0  0
 60 69  1  0  0  0
 60 70  1  0  0  0
 60 71  1  0  0  0
 61 72  1  0  0  0
M  END
> <s_m_entry_id>
423

> <s_m_entry_name>
000000423.1

> <s_m_Source_Path>
/Users/zaksoul/Documents/2

> <s_m_Source_File>
000000423.mol2

> <i_m_Source_File_Index>
1

$$$$
No_0_447
                    3D
 Schrodinger Suite 2022-4.
 68 74  0  0  1  0            999 V2000
   -5.1930    3.1540  -22.1320 C   0  0  0  0  0  0
   -5.4600    3.2810  -23.4740 C   0  0  0  0  0  0
   -3.9490    2.9570  -21.7770 C   0  0  0  0  0  0
   -3.0520    3.0280  -23.9430 C   0  0  0  0  0  0
   -2.8900    2.8460  -22.5140 C   0  0  0  0  0  0
   -4.4060    3.2240  -24.4790 C   0  0  0  0  0  0
   -3.6420    3.1850  -26.6740 C   0  0  0  0  0  0
    6.0830    2.9910  -21.3530 C   0  0  0  0  0  0
    5.9510    3.0280  -23.9070 C   0  0  0  0  0  0
   -4.6550    3.2900  -25.8190 C   0  0  0  0  0  0
    2.1500    3.4450  -23.9570 C   0  0  0  0  0  0
    1.2900    4.5360  -23.7050 C   0  0  0  0  0  0
    3.0440    5.8180  -23.0670 C   0  0  0  0  0  0
    3.5420    3.6960  -23.6480 C   0  0  0  0  0  0
    1.6450    2.2850  -24.5760 C   0  0  0  0  0  0
   -0.5090    3.0290  -24.5040 C   0  0  0  0  0  0
   -0.0270    4.2890  -23.9520 C   0  0  0  0  0  0
   -1.9600    2.9720  -24.8630 C   0  0  0  0  0  0
    4.2300    1.2340  -23.2550 C   0  0  0  0  0  0
    5.1700    0.9550  -22.0930 C   0  0  2  0  0  0
    6.7130    2.5270  -22.6850 C   0  0  2  0  0  0
    5.1130    2.0010  -20.9660 C   0  0  0  0  0  0
   -2.2850    3.0630  -26.2970 C   0  0  0  0  0  0
   -1.5350    2.5020  -21.8950 C   0  0  0  0  0  0
   -0.4950    2.2100  -21.3730 C   0  0  0  0  0  0
   -0.9050    5.3180  -23.6520 F   0  0  0  0  0  0
   -3.7360    2.7770  -20.3860 F   0  0  0  0  0  0
    1.7260    5.7310  -23.2180 N   0  0  0  0  0  0
    3.9730    4.8790  -23.2460 N   0  0  0  0  0  0
    0.3440    2.1390  -24.8810 N   0  0  0  0  0  0
    4.4960    2.6740  -23.7800 N   0  0  0  0  0  0
    6.5760    1.0510  -22.5730 N   0  0  1  0  0  0
   -3.8090    3.1390  -28.0630 O   0  0  0  0  0  0
   -5.9996    3.2182  -21.4107 H   0  0  0  0  0  0
   -6.4789    3.4286  -23.8133 H   0  0  0  0  0  0
    5.5792    3.9572  -21.5034 H   0  0  0  0  0  0
    6.8654    3.0586  -20.5827 H   0  0  0  0  0  0
    6.3638    2.5607  -24.8133 H   0  0  0  0  0  0
    6.0570    4.1203  -23.9827 H   0  0  0  0  0  0
   -5.6696    3.4265  -26.1753 H   0  0  0  0  0  0
    2.3128    1.4676  -24.8230 H   0  0  0  0  0  0
    3.1882    1.1553  -22.9108 H   0  0  0  0  0  0
    4.4196    0.5098  -24.0609 H   0  0  0  0  0  0
    4.9792   -0.0486  -21.6851 H   0  0  0  0  0  0
    7.7722    2.8188  -22.7385 H   0  0  0  0  0  0
    4.1133    2.4594  -20.9448 H   0  0  0  0  0  0
    5.4267    1.5339  -20.0208 H   0  0  0  0  0  0
   -1.5112    3.0399  -27.0558 H   0  0  0  0  0  0
    0.4201    1.9530  -20.9129 H   0  0  0  0  0  0
    7.2372    0.6038  -21.8455 H   0  0  0  0  0  0
   -2.9601    3.0628  -28.4825 H   0  0  0  0  0  0
    7.8760    9.5010  -20.6810 O   0  0  0  0  0  0
    3.8870    7.2390  -21.1810 N   0  3  0  0  0  0
    3.5560    7.1930  -22.6510 C   0  0  0  0  0  0
    5.7410    8.9670  -20.9630 C   0  0  0  0  0  0
    4.3020    8.5870  -20.6470 C   0  0  0  0  0  0
    6.3530    9.2020  -22.2220 C   0  0  0  0  0  0
    7.6210    9.5110  -21.9850 C   0  0  0  0  0  0
    6.7260    9.1720  -20.0900 C   0  0  0  0  0  0
    4.6098    6.5652  -20.9821 H   0  0  0  0  0  0
    3.0995    6.8988  -20.6517 H   0  0  0  0  0  0
    4.4532    7.4431  -23.2362 H   0  0  0  0  0  0
    2.7923    7.9517  -22.8769 H   0  0  0  0  0  0
    4.1501    8.6100  -19.5578 H   0  0  0  0  0  0
    3.6259    9.3601  -21.0410 H   0  0  0  0  0  0
    5.7700    9.1090  -23.1371 H   0  0  0  0  0  0
    8.2918    9.7289  -22.8147 H   0  0  0  0  0  0
    6.5390    9.0630  -19.0227 H   0  0  0  0  0  0
  1  2  2  0  0  0
  1  3  1  0  0  0
  1 34  1  0  0  0
  2  6  1  0  0  0
  2 35  1  0  0  0
  3  5  2  0  0  0
  3 27  1  0  0  0
  4  5  1  0  0  0
  4  6  2  0  0  0
  4 18  1  0  0  0
  5 24  1  0  0  0
  6 10  1  0  0  0
  7 10  2  0  0  0
  7 23  1  0  0  0
  7 33  1  0  0  0
  8 21  1  0  0  0
  8 22  1  0  0  0
  8 36  1  0  0  0
  8 37  1  0  0  0
  9 21  1  0  0  0
  9 31  1  0  0  0
  9 38  1  0  0  0
  9 39  1  0  0  0
 10 40  1  0  0  0
 11 12  1  0  0  0
 11 14  2  0  0  0
 11 15  1  0  0  0
 12 17  1  0  0  0
 12 28  2  0  0  0
 13 28  1  0  0  0
 13 29  2  0  0  0
 13 54  1  0  0  0
 14 29  1  0  0  0
 14 31  1  0  0  0
 15 30  2  0  0  0
 15 41  1  0  0  0
 16 17  2  0  0  0
 16 18  1  0  0  0
 16 30  1  0  0  0
 17 26  1  0  0  0
 18 23  2  0  0  0
 19 20  1  0  0  0
 19 31  1  0  0  0
 19 42  1  0  0  0
 19 43  1  0  0  0
 20 22  1  0  0  0
 20 32  1  0  0  0
 20 44  1  0  0  0
 21 32  1  0  0  0
 21 45  1  0  0  0
 22 46  1  0  0  0
 22 47  1  0  0  0
 23 48  1  0  0  0
 24 25  3  0  0  0
 25 49  1  0  0  0
 32 50  1  0  0  0
 33 51  1  0  0  0
 52 58  1  0  0  0
 52 59  1  0  0  0
 53 54  1  0  0  0
 53 56  1  0  0  0
 53 60  1  0  0  0
 53 61  1  0  0  0
 54 62  1  0  0  0
 54 63  1  0  0  0
 55 56  1  0  0  0
 55 57  1  0  0  0
 55 59  2  0  0  0
 56 64  1  0  0  0
 56 65  1  0  0  0
 57 58  2  0  0  0
 57 66  1  0  0  0
 58 67  1  0  0  0
 59 68  1  0  0  0
M  CHG  1  53   1
M  END
> <s_m_entry_id>
424

> <s_m_entry_name>
000000424.1

> <s_m_Source_Path>
/Users/zaksoul/Documents/2

> <s_m_Source_File>
000000424.mol2

> <i_m_Source_File_Index>
1

$$$$
No_0_448
                    3D
 Schrodinger Suite 2022-4.
 68 74  0  0  1  0            999 V2000
   -5.1890    3.4760  -22.2430 C   0  0  0  0  0  0
   -5.4350    3.6640  -23.5830 C   0  0  0  0  0  0
   -3.9500    3.2650  -21.8780 C   0  0  0  0  0  0
   -3.0200    3.4360  -24.0240 C   0  0  0  0  0  0
   -2.8800    3.1890  -22.6020 C   0  0  0  0  0  0
   -4.3650    3.6540  -24.5710 C   0  0  0  0  0  0
   -3.5660    3.7170  -26.7530 C   0  0  0  0  0  0
    6.0730    3.2920  -21.2910 C   0  0  0  0  0  0
    5.9820    3.4460  -23.8420 C   0  0  0  0  0  0
   -4.5930    3.7810  -25.9110 C   0  0  0  0  0  0
    2.1810    3.8600  -23.9350 C   0  0  0  0  0  0
    1.3160    4.9370  -23.6470 C   0  0  0  0  0  0
    3.0560    6.1910  -22.9230 C   0  0  0  0  0  0
    3.5670    4.0980  -23.5920 C   0  0  0  0  0  0
    1.6890    2.7290  -24.6140 C   0  0  0  0  0  0
   -0.4680    3.4660  -24.5430 C   0  0  0  0  0  0
    0.0030    4.7000  -23.9260 C   0  0  0  0  0  0
   -1.9130    3.4230  -24.9270 C   0  0  0  0  0  0
    4.2550    1.6210  -23.3010 C   0  0  0  0  0  0
    5.1770    1.2920  -22.1380 C   0  0  2  0  0  0
    6.7250    2.8910  -22.6320 C   0  0  2  0  0  0
    5.0990    2.2840  -20.9650 C   0  0  0  0  0  0
   -2.2140    3.5800  -26.3610 C   0  0  0  0  0  0
   -1.5340    2.8190  -21.9780 C   0  0  0  0  0  0
   -0.5020    2.5050  -21.4530 C   0  0  0  0  0  0
   -0.8820    5.7130  -23.5930 F   0  0  0  0  0  0
   -3.7600    3.0210  -20.4930 F   0  0  0  0  0  0
    1.7400    6.1090  -23.0990 N   0  0  0  0  0  0
    3.9900    5.2620  -23.1300 N   0  0  0  0  0  0
    0.3930    2.5950  -24.9460 N   0  0  0  0  0  0
    4.5250    3.0840  -23.7560 N   0  0  0  0  0  0
    6.5900    1.4110  -22.5900 N   0  0  1  0  0  0
   -3.7100    3.7340  -28.1460 O   0  0  0  0  0  0
   -6.0079    3.5061  -21.5334 H   0  0  0  0  0  0
   -6.4487    3.8256  -23.9313 H   0  0  0  0  0  0
    5.5696    4.2634  -21.4050 H   0  0  0  0  0  0
    6.8423    3.3253  -20.5055 H   0  0  0  0  0  0
    6.4110    3.0211  -24.7615 H   0  0  0  0  0  0
    6.0869    4.5407  -23.8662 H   0  0  0  0  0  0
   -5.6019    3.9326  -26.2774 H   0  0  0  0  0  0
    2.3627    1.9248  -24.8871 H   0  0  0  0  0  0
    3.2077    1.5262  -22.9781 H   0  0  0  0  0  0
    4.4588    0.9350  -24.1364 H   0  0  0  0  0  0
    4.9814    0.2704  -21.7800 H   0  0  0  0  0  0
    7.7845    3.1857  -22.6552 H   0  0  0  0  0  0
    4.0983    2.7400  -20.9398 H   0  0  0  0  0  0
    5.3989    1.7751  -20.0371 H   0  0  0  0  0  0
   -1.4287    3.5921  -27.1081 H   0  0  0  0  0  0
    0.4058    2.2281  -20.9901 H   0  0  0  0  0  0
    7.2404    0.9318  -21.8733 H   0  0  0  0  0  0
   -2.8542    3.6786  -28.5546 H   0  0  0  0  0  0
    8.0500    9.9860  -21.1180 O   0  0  0  0  0  0
    4.2020    7.4430  -21.0780 N   0  3  0  0  0  0
    3.5580    7.5460  -22.4360 C   0  0  0  0  0  0
    5.9450    9.2960  -21.0150 C   0  0  0  0  0  0
    4.6380    8.7480  -20.4590 C   0  0  0  0  0  0
    6.2470    9.7380  -22.3300 C   0  0  0  0  0  0
    7.5130   10.1320  -22.3250 C   0  0  0  0  0  0
    7.0820    9.4820  -20.3500 C   0  0  0  0  0  0
    4.9923    6.8196  -21.1310 H   0  0  0  0  0  0
    3.5750    6.9690  -20.4470 H   0  0  0  0  0  0
    4.2860    7.9480  -23.1560 H   0  0  0  0  0  0
    2.7164    8.2527  -22.3880 H   0  0  0  0  0  0
    4.7300    8.6230  -19.3700 H   0  0  0  0  0  0
    3.8436    9.4974  -20.5911 H   0  0  0  0  0  0
    5.4829    9.7040  -23.1051 H   0  0  0  0  0  0
    7.9682   10.5121  -23.2384 H   0  0  0  0  0  0
    7.1430    9.2270  -19.2930 H   0  0  0  0  0  0
  1  2  2  0  0  0
  1  3  1  0  0  0
  1 34  1  0  0  0
  2  6  1  0  0  0
  2 35  1  0  0  0
  3  5  2  0  0  0
  3 27  1  0  0  0
  4  5  1  0  0  0
  4  6  2  0  0  0
  4 18  1  0  0  0
  5 24  1  0  0  0
  6 10  1  0  0  0
  7 10  2  0  0  0
  7 23  1  0  0  0
  7 33  1  0  0  0
  8 21  1  0  0  0
  8 22  1  0  0  0
  8 36  1  0  0  0
  8 37  1  0  0  0
  9 21  1  0  0  0
  9 31  1  0  0  0
  9 38  1  0  0  0
  9 39  1  0  0  0
 10 40  1  0  0  0
 11 12  1  0  0  0
 11 14  2  0  0  0
 11 15  1  0  0  0
 12 17  1  0  0  0
 12 28  2  0  0  0
 13 28  1  0  0  0
 13 29  2  0  0  0
 13 54  1  0  0  0
 14 29  1  0  0  0
 14 31  1  0  0  0
 15 30  2  0  0  0
 15 41  1  0  0  0
 16 17  2  0  0  0
 16 18  1  0  0  0
 16 30  1  0  0  0
 17 26  1  0  0  0
 18 23  2  0  0  0
 19 20  1  0  0  0
 19 31  1  0  0  0
 19 42  1  0  0  0
 19 43  1  0  0  0
 20 22  1  0  0  0
 20 32  1  0  0  0
 20 44  1  0  0  0
 21 32  1  0  0  0
 21 45  1  0  0  0
 22 46  1  0  0  0
 22 47  1  0  0  0
 23 48  1  0  0  0
 24 25  3  0  0  0
 25 49  1  0  0  0
 32 50  1  0  0  0
 33 51  1  0  0  0
 52 58  1  0  0  0
 52 59  1  0  0  0
 53 54  1  0  0  0
 53 56  1  0  0  0
 53 60  1  0  0  0
 53 61  1  0  0  0
 54 62  1  0  0  0
 54 63  1  0  0  0
 55 56  1  0  0  0
 55 57  1  0  0  0
 55 59  2  0  0  0
 56 64  1  0  0  0
 56 65  1  0  0  0
 57 58  2  0  0  0
 57 66  1  0  0  0
 58 67  1  0  0  0
 59 68  1  0  0  0
M  CHG  1  53   1
M  END
> <s_m_entry_id>
425

> <s_m_entry_name>
000000425.1

> <s_m_Source_Path>
/Users/zaksoul/Documents/2

> <s_m_Source_File>
000000425.mol2

> <i_m_Source_File_Index>
1

$$$$
No_0_449
                    3D
 Schrodinger Suite 2022-4.
 68 74  0  0  1  0            999 V2000
   -5.2390    3.2860  -22.0390 C   0  0  0  0  0  0
   -5.4820    3.5380  -23.3680 C   0  0  0  0  0  0
   -4.0020    3.0430  -21.6850 C   0  0  0  0  0  0
   -3.0700    3.3010  -23.8210 C   0  0  0  0  0  0
   -2.9330    2.9870  -22.4120 C   0  0  0  0  0  0
   -4.4120    3.5600  -24.3570 C   0  0  0  0  0  0
   -3.6130    3.7120  -26.5350 C   0  0  0  0  0  0
    6.0210    2.9220  -21.1050 C   0  0  0  0  0  0
    5.9310    3.1930  -23.6470 C   0  0  0  0  0  0
   -4.6390    3.7510  -25.6900 C   0  0  0  0  0  0
    2.1360    3.6570  -23.7170 C   0  0  0  0  0  0
    1.2830    4.7300  -23.3800 C   0  0  0  0  0  0
    3.0390    5.9290  -22.6010 C   0  0  0  0  0  0
    3.5250    3.8620  -23.3650 C   0  0  0  0  0  0
    1.6290    2.5640  -24.4460 C   0  0  0  0  0  0
   -0.5180    3.3230  -24.3400 C   0  0  0  0  0  0
   -0.0320    4.5220  -23.6680 C   0  0  0  0  0  0
   -1.9640    3.3150  -24.7250 C   0  0  0  0  0  0
    4.1820    1.3670  -23.1880 C   0  0  0  0  0  0
    5.1000    0.9730  -22.0410 C   0  0  2  0  0  0
    6.6670    2.5740  -22.4640 C   0  0  2  0  0  0
    5.0350    1.9120  -20.8250 C   0  0  0  0  0  0
   -2.2640    3.5410  -26.1500 C   0  0  0  0  0  0
   -1.5920    2.5730  -21.8070 C   0  0  0  0  0  0
   -0.5640    2.2230  -21.2970 C   0  0  0  0  0  0
   -0.9050    5.5290  -23.2890 F   0  0  0  0  0  0
   -3.8140    2.7340  -20.3130 F   0  0  0  0  0  0
    1.7220    5.8710  -22.7790 N   0  0  0  0  0  0
    3.9620    4.9990  -22.8510 N   0  0  0  0  0  0
    0.3320    2.4610  -24.7840 N   0  0  0  0  0  0
    4.4700    2.8460  -23.5750 N   0  0  0  0  0  0
    6.5140    1.0960  -22.4890 N   0  0  1  0  0  0
   -3.7580    3.7950  -27.9250 O   0  0  0  0  0  0
   -6.0568    3.2940  -21.3275 H   0  0  0  0  0  0
   -6.4938    3.7267  -23.7083 H   0  0  0  0  0  0
    5.5296    3.9037  -21.1746 H   0  0  0  0  0  0
    6.7912    2.9099  -20.3197 H   0  0  0  0  0  0
    6.3542    2.8051  -24.5853 H   0  0  0  0  0  0
    6.0491    4.2863  -23.6208 H   0  0  0  0  0  0
   -5.6465    3.9306  -26.0473 H   0  0  0  0  0  0
    2.2924    1.7651  -24.7571 H   0  0  0  0  0  0
    3.1340    1.2702  -22.8682 H   0  0  0  0  0  0
    4.3768    0.7171  -24.0539 H   0  0  0  0  0  0
    4.8921   -0.0615  -21.7302 H   0  0  0  0  0  0
    7.7298    2.8574  -22.4741 H   0  0  0  0  0  0
    4.0398    2.3783  -20.7776 H   0  0  0  0  0  0
    5.3286    1.3581  -19.9211 H   0  0  0  0  0  0
   -1.4781    3.5781  -26.8957 H   0  0  0  0  0  0
    0.3410    1.9140  -20.8490 H   0  0  0  0  0  0
    7.1588    0.5774  -21.7950 H   0  0  0  0  0  0
   -2.9031    3.7475  -28.3366 H   0  0  0  0  0  0
    8.0500    9.9890  -21.5970 O   0  0  0  0  0  0
    4.5610    7.0420  -20.9490 N   0  3  0  0  0  0
    3.5580    7.2540  -22.0530 C   0  0  0  0  0  0
    6.1120    9.0560  -21.0530 C   0  0  0  0  0  0
    5.0560    8.2930  -20.2670 C   0  0  0  0  0  0
    6.0040    9.7030  -22.3120 C   0  0  0  0  0  0
    7.1880   10.2340  -22.5790 C   0  0  0  0  0  0
    7.3740    9.2790  -20.6920 C   0  0  0  0  0  0
    5.3483    6.5258  -21.3091 H   0  0  0  0  0  0
    4.1700    6.4199  -20.2589 H   0  0  0  0  0  0
    4.0242    7.8293  -22.8664 H   0  0  0  0  0  0
    2.7144    7.8477  -21.6712 H   0  0  0  0  0  0
    5.4558    8.0341  -19.2755 H   0  0  0  0  0  0
    4.2042    8.9578  -20.0610 H   0  0  0  0  0  0
    5.0583    9.6870  -22.8518 H   0  0  0  0  0  0
    7.3420   10.7822  -23.5073 H   0  0  0  0  0  0
    7.7459    8.8922  -19.7444 H   0  0  0  0  0  0
  1  2  2  0  0  0
  1  3  1  0  0  0
  1 34  1  0  0  0
  2  6  1  0  0  0
  2 35  1  0  0  0
  3  5  2  0  0  0
  3 27  1  0  0  0
  4  5  1  0  0  0
  4  6  2  0  0  0
  4 18  1  0  0  0
  5 24  1  0  0  0
  6 10  1  0  0  0
  7 10  2  0  0  0
  7 23  1  0  0  0
  7 33  1  0  0  0
  8 21  1  0  0  0
  8 22  1  0  0  0
  8 36  1  0  0  0
  8 37  1  0  0  0
  9 21  1  0  0  0
  9 31  1  0  0  0
  9 38  1  0  0  0
  9 39  1  0  0  0
 10 40  1  0  0  0
 11 12  1  0  0  0
 11 14  2  0  0  0
 11 15  1  0  0  0
 12 17  1  0  0  0
 12 28  2  0  0  0
 13 28  1  0  0  0
 13 29  2  0  0  0
 13 54  1  0  0  0
 14 29  1  0  0  0
 14 31  1  0  0  0
 15 30  2  0  0  0
 15 41  1  0  0  0
 16 17  2  0  0  0
 16 18  1  0  0  0
 16 30  1  0  0  0
 17 26  1  0  0  0
 18 23  2  0  0  0
 19 20  1  0  0  0
 19 31  1  0  0  0
 19 42  1  0  0  0
 19 43  1  0  0  0
 20 22  1  0  0  0
 20 32  1  0  0  0
 20 44  1  0  0  0
 21 32  1  0  0  0
 21 45  1  0  0  0
 22 46  1  0  0  0
 22 47  1  0  0  0
 23 48  1  0  0  0
 24 25  3  0  0  0
 25 49  1  0  0  0
 32 50  1  0  0  0
 33 51  1  0  0  0
 52 58  1  0  0  0
 52 59  1  0  0  0
 53 54  1  0  0  0
 53 56  1  0  0  0
 53 60  1  0  0  0
 53 61  1  0  0  0
 54 62  1  0  0  0
 54 63  1  0  0  0
 55 56  1  0  0  0
 55 57  1  0  0  0
 55 59  2  0  0  0
 56 64  1  0  0  0
 56 65  1  0  0  0
 57 58  2  0  0  0
 57 66  1  0  0  0
 58 67  1  0  0  0
 59 68  1  0  0  0
M  CHG  1  53   1
M  END
> <s_m_entry_id>
426

> <s_m_entry_name>
000000426.1

> <s_m_Source_Path>
/Users/zaksoul/Documents/2

> <s_m_Source_File>
000000426.mol2

> <i_m_Source_File_Index>
1

$$$$
No_0_450
                    3D
 Schrodinger Suite 2022-4.
 68 74  0  0  1  0            999 V2000
   -5.3850    3.4370  -21.8990 C   0  0  0  0  0  0
   -5.6530    3.6080  -23.2370 C   0  0  0  0  0  0
   -4.1440    3.2020  -21.5560 C   0  0  0  0  0  0
   -3.2550    3.3130  -23.7230 C   0  0  0  0  0  0
   -3.0910    3.0870  -22.3000 C   0  0  0  0  0  0
   -4.6050    3.5550  -24.2470 C   0  0  0  0  0  0
   -3.8510    3.5600  -26.4460 C   0  0  0  0  0  0
    5.8870    2.9930  -21.1760 C   0  0  0  0  0  0
    5.7460    3.1050  -23.7270 C   0  0  0  0  0  0
   -4.8580    3.6640  -25.5840 C   0  0  0  0  0  0
    1.9560    3.6110  -23.7490 C   0  0  0  0  0  0
    1.1230    4.7140  -23.4620 C   0  0  0  0  0  0
    2.9080    5.9370  -22.7970 C   0  0  0  0  0  0
    3.3540    3.8210  -23.4380 C   0  0  0  0  0  0
    1.4220    2.4800  -24.3970 C   0  0  0  0  0  0
   -0.7140    3.2710  -24.2950 C   0  0  0  0  0  0
   -0.2010    4.5040  -23.7100 C   0  0  0  0  0  0
   -2.1670    3.2570  -24.6490 C   0  0  0  0  0  0
    3.9870    1.3330  -23.1180 C   0  0  0  0  0  0
    4.9250    1.0010  -21.9680 C   0  0  2  0  0  0
    6.5010    2.5530  -22.5230 C   0  0  2  0  0  0
    4.8970    2.0150  -20.8120 C   0  0  0  0  0  0
   -2.4950    3.3970  -26.0780 C   0  0  0  0  0  0
   -1.7420    2.6950  -21.6980 C   0  0  0  0  0  0
   -0.7070    2.3650  -21.1880 C   0  0  0  0  0  0
   -1.0540    5.5440  -23.3770 F   0  0  0  0  0  0
   -3.9300    2.9780  -20.1710 F   0  0  0  0  0  0
    1.5870    5.8840  -22.9440 N   0  0  0  0  0  0
    3.8150    4.9820  -23.0060 N   0  0  0  0  0  0
    0.1160    2.3730  -24.7010 N   0  0  0  0  0  0
    4.2840    2.7810  -23.6040 N   0  0  0  0  0  0
    6.3310    1.0780  -22.4520 N   0  0  1  0  0  0
   -4.0240    3.5570  -27.8350 O   0  0  0  0  0  0
   -6.1874    3.5003  -21.1729 H   0  0  0  0  0  0
   -6.6697    3.7877  -23.5672 H   0  0  0  0  0  0
    5.4057    3.9747  -21.2971 H   0  0  0  0  0  0
    6.6731    3.0213  -20.4071 H   0  0  0  0  0  0
    6.1456    2.6540  -24.6473 H   0  0  0  0  0  0
    5.8772    4.1962  -23.7724 H   0  0  0  0  0  0
   -5.8708    3.8336  -25.9313 H   0  0  0  0  0  0
    2.0702    1.6552  -24.6699 H   0  0  0  0  0  0
    2.9449    1.2694  -22.7716 H   0  0  0  0  0  0
    4.1576    0.6275  -23.9446 H   0  0  0  0  0  0
    4.7121   -0.0089  -21.5876 H   0  0  0  0  0  0
    7.5666    2.8214  -22.5724 H   0  0  0  0  0  0
    3.9081    2.4953  -20.7737 H   0  0  0  0  0  0
    5.2029    1.5152  -19.8811 H   0  0  0  0  0  0
   -1.7256    3.3769  -26.8414 H   0  0  0  0  0  0
    0.2039    2.0740  -20.7400 H   0  0  0  0  0  0
    6.9843    0.5958  -21.7399 H   0  0  0  0  0  0
   -3.1788    3.4729  -28.2606 H   0  0  0  0  0  0
    7.7150   10.3510  -22.9080 O   0  0  0  0  0  0
    4.7110    7.1320  -21.5300 N   0  3  0  0  0  0
    3.4530    7.2870  -22.3440 C   0  0  0  0  0  0
    6.0440    9.2610  -21.9380 C   0  0  0  0  0  0
    5.2720    8.4050  -20.9450 C   0  0  0  0  0  0
    5.5800    9.9220  -23.1060 C   0  0  0  0  0  0
    6.6210   10.5470  -23.6370 C   0  0  0  0  0  0
    7.3370    9.5740  -21.8910 C   0  0  0  0  0  0
    5.4178    6.6851  -22.0928 H   0  0  0  0  0  0
    4.5490    6.4681  -20.7891 H   0  0  0  0  0  0
    3.6610    7.9120  -23.2250 H   0  0  0  0  0  0
    2.6913    7.8068  -21.7443 H   0  0  0  0  0  0
    5.9228    8.1581  -20.0933 H   0  0  0  0  0  0
    4.4540    8.9980  -20.5100 H   0  0  0  0  0  0
    4.5335    9.8430  -23.3969 H   0  0  0  0  0  0
    6.5010   11.1239  -24.5528 H   0  0  0  0  0  0
    7.9581    9.1990  -21.0789 H   0  0  0  0  0  0
  1  2  2  0  0  0
  1  3  1  0  0  0
  1 34  1  0  0  0
  2  6  1  0  0  0
  2 35  1  0  0  0
  3  5  2  0  0  0
  3 27  1  0  0  0
  4  5  1  0  0  0
  4  6  2  0  0  0
  4 18  1  0  0  0
  5 24  1  0  0  0
  6 10  1  0  0  0
  7 10  2  0  0  0
  7 23  1  0  0  0
  7 33  1  0  0  0
  8 21  1  0  0  0
  8 22  1  0  0  0
  8 36  1  0  0  0
  8 37  1  0  0  0
  9 21  1  0  0  0
  9 31  1  0  0  0
  9 38  1  0  0  0
  9 39  1  0  0  0
 10 40  1  0  0  0
 11 12  1  0  0  0
 11 14  2  0  0  0
 11 15  1  0  0  0
 12 17  1  0  0  0
 12 28  2  0  0  0
 13 28  1  0  0  0
 13 29  2  0  0  0
 13 54  1  0  0  0
 14 29  1  0  0  0
 14 31  1  0  0  0
 15 30  2  0  0  0
 15 41  1  0  0  0
 16 17  2  0  0  0
 16 18  1  0  0  0
 16 30  1  0  0  0
 17 26  1  0  0  0
 18 23  2  0  0  0
 19 20  1  0  0  0
 19 31  1  0  0  0
 19 42  1  0  0  0
 19 43  1  0  0  0
 20 22  1  0  0  0
 20 32  1  0  0  0
 20 44  1  0  0  0
 21 32  1  0  0  0
 21 45  1  0  0  0
 22 46  1  0  0  0
 22 47  1  0  0  0
 23 48  1  0  0  0
 24 25  3  0  0  0
 25 49  1  0  0  0
 32 50  1  0  0  0
 33 51  1  0  0  0
 52 58  1  0  0  0
 52 59  1  0  0  0
 53 54  1  0  0  0
 53 56  1  0  0  0
 53 60  1  0  0  0
 53 61  1  0  0  0
 54 62  1  0  0  0
 54 63  1  0  0  0
 55 56  1  0  0  0
 55 57  1  0  0  0
 55 59  2  0  0  0
 56 64  1  0  0  0
 56 65  1  0  0  0
 57 58  2  0  0  0
 57 66  1  0  0  0
 58 67  1  0  0  0
 59 68  1  0  0  0
M  CHG  1  53   1
M  END
> <s_m_entry_id>
427

> <s_m_entry_name>
000000427.1

> <s_m_Source_Path>
/Users/zaksoul/Documents/2

> <s_m_Source_File>
000000427.mol2

> <i_m_Source_File_Index>
1

$$$$
No_0_451
                    3D
 Schrodinger Suite 2022-4.
 68 74  0  0  1  0            999 V2000
   -5.3700    3.0140  -22.1930 C   0  0  0  0  0  0
   -5.6180    3.2610  -23.5220 C   0  0  0  0  0  0
   -4.1290    2.8020  -21.8370 C   0  0  0  0  0  0
   -3.2010    3.0850  -23.9720 C   0  0  0  0  0  0
   -3.0570    2.7730  -22.5630 C   0  0  0  0  0  0
   -4.5480    3.3110  -24.5100 C   0  0  0  0  0  0
   -3.7510    3.4850  -26.6860 C   0  0  0  0  0  0
    5.8930    2.9270  -21.2450 C   0  0  0  0  0  0
    5.8000    3.1980  -23.7860 C   0  0  0  0  0  0
   -4.7780    3.4980  -25.8420 C   0  0  0  0  0  0
    1.9950    3.5690  -23.8610 C   0  0  0  0  0  0
    1.1160    4.6200  -23.5240 C   0  0  0  0  0  0
    2.8400    5.8610  -22.7410 C   0  0  0  0  0  0
    3.3780    3.8080  -23.5070 C   0  0  0  0  0  0
    1.5160    2.4640  -24.5920 C   0  0  0  0  0  0
   -0.6500    3.1700  -24.4880 C   0  0  0  0  0  0
   -0.1940    4.3800  -23.8140 C   0  0  0  0  0  0
   -2.0940    3.1270  -24.8750 C   0  0  0  0  0  0
    4.0960    1.3290  -23.3320 C   0  0  0  0  0  0
    5.0220    0.9560  -22.1850 C   0  0  2  0  0  0
    6.5500    2.5960  -22.6030 C   0  0  2  0  0  0
    4.9330    1.8920  -20.9680 C   0  0  0  0  0  0
   -2.3970    3.3470  -26.2990 C   0  0  0  0  0  0
   -1.7070    2.3910  -21.9570 C   0  0  0  0  0  0
   -0.6720    2.0650  -21.4460 C   0  0  0  0  0  0
   -1.0920    5.3650  -23.4350 F   0  0  0  0  0  0
   -3.9350    2.4960  -20.4650 F   0  0  0  0  0  0
    1.5260    5.7700  -22.9210 N   0  0  0  0  0  0
    3.7860    4.9540  -22.9910 N   0  0  0  0  0  0
    0.2220    2.3300  -24.9320 N   0  0  0  0  0  0
    4.3480    2.8150  -23.7170 N   0  0  0  0  0  0
    6.4330    1.1150  -22.6310 N   0  0  1  0  0  0
   -3.8960    3.5660  -28.0770 O   0  0  0  0  0  0
   -6.1887    3.0010  -21.4826 H   0  0  0  0  0  0
   -6.6336    3.4256  -23.8632 H   0  0  0  0  0  0
    5.3779    3.8965  -21.3137 H   0  0  0  0  0  0
    6.6622    2.9331  -20.4587 H   0  0  0  0  0  0
    6.2339    2.8226  -24.7245 H   0  0  0  0  0  0
    5.8918    4.2938  -23.7588 H   0  0  0  0  0  0
   -5.7888    3.6536  -26.2014 H   0  0  0  0  0  0
    2.1994    1.6822  -24.9031 H   0  0  0  0  0  0
    3.0502    1.2058  -23.0140 H   0  0  0  0  0  0
    4.3080    0.6849  -24.1982 H   0  0  0  0  0  0
    4.8393   -0.0835  -21.8752 H   0  0  0  0  0  0
    7.6057    2.9048  -22.6121 H   0  0  0  0  0  0
    3.9263    2.3328  -20.9206 H   0  0  0  0  0  0
    5.2377    1.3442  -20.0641 H   0  0  0  0  0  0
   -1.6122    3.4042  -27.0446 H   0  0  0  0  0  0
    0.2400    1.7790  -20.9970 H   0  0  0  0  0  0
    7.0893    0.6105  -21.9373 H   0  0  0  0  0  0
   -3.0392    3.5403  -28.4866 H   0  0  0  0  0  0
    7.0200   10.8620  -23.0790 O   0  0  0  0  0  0
    4.7400    7.1050  -21.6790 N   0  3  0  0  0  0
    3.3260    7.1980  -22.1910 C   0  0  0  0  0  0
    5.7220    9.4320  -21.9890 C   0  0  0  0  0  0
    5.2770    8.3490  -21.0160 C   0  0  0  0  0  0
    4.9500   10.1770  -22.9190 C   0  0  0  0  0  0
    5.7800   11.0060  -23.5350 C   0  0  0  0  0  0
    6.9540    9.9090  -22.1480 C   0  0  0  0  0  0
    5.3513    6.8399  -22.4354 H   0  0  0  0  0  0
    4.8120    6.3298  -21.0388 H   0  0  0  0  0  0
    3.2720    7.9602  -22.9822 H   0  0  0  0  0  0
    2.6612    7.5209  -21.3763 H   0  0  0  0  0  0
    6.1191    8.0790  -20.3619 H   0  0  0  0  0  0
    4.5148    8.7601  -20.3378 H   0  0  0  0  0  0
    3.8793    9.9980  -23.0050 H   0  0  0  0  0  0
    5.4050   11.6810  -24.3029 H   0  0  0  0  0  0
    7.7723    9.5143  -21.5475 H   0  0  0  0  0  0
  1  2  2  0  0  0
  1  3  1  0  0  0
  1 34  1  0  0  0
  2  6  1  0  0  0
  2 35  1  0  0  0
  3  5  2  0  0  0
  3 27  1  0  0  0
  4  5  1  0  0  0
  4  6  2  0  0  0
  4 18  1  0  0  0
  5 24  1  0  0  0
  6 10  1  0  0  0
  7 10  2  0  0  0
  7 23  1  0  0  0
  7 33  1  0  0  0
  8 21  1  0  0  0
  8 22  1  0  0  0
  8 36  1  0  0  0
  8 37  1  0  0  0
  9 21  1  0  0  0
  9 31  1  0  0  0
  9 38  1  0  0  0
  9 39  1  0  0  0
 10 40  1  0  0  0
 11 12  1  0  0  0
 11 14  2  0  0  0
 11 15  1  0  0  0
 12 17  1  0  0  0
 12 28  2  0  0  0
 13 28  1  0  0  0
 13 29  2  0  0  0
 13 54  1  0  0  0
 14 29  1  0  0  0
 14 31  1  0  0  0
 15 30  2  0  0  0
 15 41  1  0  0  0
 16 17  2  0  0  0
 16 18  1  0  0  0
 16 30  1  0  0  0
 17 26  1  0  0  0
 18 23  2  0  0  0
 19 20  1  0  0  0
 19 31  1  0  0  0
 19 42  1  0  0  0
 19 43  1  0  0  0
 20 22  1  0  0  0
 20 32  1  0  0  0
 20 44  1  0  0  0
 21 32  1  0  0  0
 21 45  1  0  0  0
 22 46  1  0  0  0
 22 47  1  0  0  0
 23 48  1  0  0  0
 24 25  3  0  0  0
 25 49  1  0  0  0
 32 50  1  0  0  0
 33 51  1  0  0  0
 52 58  1  0  0  0
 52 59  1  0  0  0
 53 54  1  0  0  0
 53 56  1  0  0  0
 53 60  1  0  0  0
 53 61  1  0  0  0
 54 62  1  0  0  0
 54 63  1  0  0  0
 55 56  1  0  0  0
 55 57  1  0  0  0
 55 59  2  0  0  0
 56 64  1  0  0  0
 56 65  1  0  0  0
 57 58  2  0  0  0
 57 66  1  0  0  0
 58 67  1  0  0  0
 59 68  1  0  0  0
M  CHG  1  53   1
M  END
> <s_m_entry_id>
428

> <s_m_entry_name>
000000428.1

> <s_m_Source_Path>
/Users/zaksoul/Documents/2

> <s_m_Source_File>
000000428.mol2

> <i_m_Source_File_Index>
1

$$$$
No_0_452
                    3D
 Schrodinger Suite 2022-4.
 68 74  0  0  1  0            999 V2000
   -5.2450    3.4800  -21.8360 C   0  0  0  0  0  0
   -5.5010    3.6360  -23.1780 C   0  0  0  0  0  0
   -4.0040    3.2730  -21.4770 C   0  0  0  0  0  0
   -3.0910    3.3890  -23.6350 C   0  0  0  0  0  0
   -2.9400    3.1750  -22.2080 C   0  0  0  0  0  0
   -4.4400    3.5980  -24.1750 C   0  0  0  0  0  0
   -3.6600    3.6050  -26.3650 C   0  0  0  0  0  0
    6.0240    3.2790  -20.9780 C   0  0  0  0  0  0
    5.9110    3.3710  -23.5310 C   0  0  0  0  0  0
   -4.6800    3.6930  -25.5160 C   0  0  0  0  0  0
    2.1120    3.7960  -23.6010 C   0  0  0  0  0  0
    1.2520    4.8830  -23.3320 C   0  0  0  0  0  0
    3.0030    6.1480  -22.6540 C   0  0  0  0  0  0
    3.5010    4.0380  -23.2760 C   0  0  0  0  0  0
    1.6090    2.6500  -24.2480 C   0  0  0  0  0  0
   -0.5440    3.3970  -24.1760 C   0  0  0  0  0  0
   -0.0640    4.6440  -23.5940 C   0  0  0  0  0  0
   -1.9920    3.3500  -24.5470 C   0  0  0  0  0  0
    4.1830    1.5660  -22.9310 C   0  0  0  0  0  0
    5.1140    1.2610  -21.7680 C   0  0  2  0  0  0
    6.6630    2.8420  -22.3150 C   0  0  2  0  0  0
    5.0500    2.2830  -20.6190 C   0  0  0  0  0  0
   -2.3060    3.4730  -25.9810 C   0  0  0  0  0  0
   -1.5900    2.8170  -21.5870 C   0  0  0  0  0  0
   -0.5550    2.5110  -21.0630 C   0  0  0  0  0  0
   -0.9430    5.6680  -23.2780 F   0  0  0  0  0  0
   -3.8020    3.0630  -20.0880 F   0  0  0  0  0  0
    1.6860    6.0660  -22.8160 N   0  0  0  0  0  0
    3.9320    5.2110  -22.8460 N   0  0  0  0  0  0
    0.3100    2.5130  -24.5660 N   0  0  0  0  0  0
    4.4550    3.0170  -23.4230 N   0  0  0  0  0  0
    6.5230    1.3650  -22.2350 N   0  0  1  0  0  0
   -3.8170    3.5890  -27.7570 O   0  0  0  0  0  0
   -6.0573    3.5312  -21.1201 H   0  0  0  0  0  0
   -6.5173    3.7925  -23.5211 H   0  0  0  0  0  0
    5.5232    4.2493  -21.1113 H   0  0  0  0  0  0
    6.8010    3.3284  -20.2010 H   0  0  0  0  0  0
    6.3305    2.9223  -24.4435 H   0  0  0  0  0  0
    6.0200    4.4644  -23.5825 H   0  0  0  0  0  0
   -5.6918    3.8395  -25.8764 H   0  0  0  0  0  0
    2.2775    1.8369  -24.5070 H   0  0  0  0  0  0
    3.1386    1.4822  -22.5960 H   0  0  0  0  0  0
    4.3768    0.8584  -23.7506 H   0  0  0  0  0  0
    4.9181    0.2493  -21.3833 H   0  0  0  0  0  0
    7.7232    3.1325  -22.3543 H   0  0  0  0  0  0
    4.0507    2.7423  -20.5958 H   0  0  0  0  0  0
    5.3558    1.7956  -19.6815 H   0  0  0  0  0  0
   -1.5271    3.4640  -26.7348 H   0  0  0  0  0  0
    0.3566    2.2431  -20.6022 H   0  0  0  0  0  0
    7.1782    0.9011  -21.5125 H   0  0  0  0  0  0
   -2.9647    3.5197  -28.1708 H   0  0  0  0  0  0
    6.6330   11.4370  -23.8610 O   0  0  0  0  0  0
    5.0120    7.5180  -22.0450 N   0  3  0  0  0  0
    3.5140    7.5130  -22.2040 C   0  0  0  0  0  0
    5.7320    9.9110  -22.5270 C   0  0  0  0  0  0
    5.6070    8.7930  -21.5010 C   0  0  0  0  0  0
    4.7120   10.6050  -23.2290 C   0  0  0  0  0  0
    5.3130   11.4950  -24.0060 C   0  0  0  0  0  0
    6.8560   10.4750  -22.9630 C   0  0  0  0  0  0
    5.4419    7.3021  -22.9308 H   0  0  0  0  0  0
    5.2881    6.7458  -21.4589 H   0  0  0  0  0  0
    3.2219    8.2743  -22.9423 H   0  0  0  0  0  0
    3.0427    7.7831  -21.2475 H   0  0  0  0  0  0
    6.5972    8.5800  -21.0719 H   0  0  0  0  0  0
    5.0027    9.1442  -20.6516 H   0  0  0  0  0  0
    3.6666   10.3499  -23.0619 H   0  0  0  0  0  0
    4.7208   12.1462  -24.6472 H   0  0  0  0  0  0
    7.8190   10.1360  -22.5840 H   0  0  0  0  0  0
  1  2  2  0  0  0
  1  3  1  0  0  0
  1 34  1  0  0  0
  2  6  1  0  0  0
  2 35  1  0  0  0
  3  5  2  0  0  0
  3 27  1  0  0  0
  4  5  1  0  0  0
  4  6  2  0  0  0
  4 18  1  0  0  0
  5 24  1  0  0  0
  6 10  1  0  0  0
  7 10  2  0  0  0
  7 23  1  0  0  0
  7 33  1  0  0  0
  8 21  1  0  0  0
  8 22  1  0  0  0
  8 36  1  0  0  0
  8 37  1  0  0  0
  9 21  1  0  0  0
  9 31  1  0  0  0
  9 38  1  0  0  0
  9 39  1  0  0  0
 10 40  1  0  0  0
 11 12  1  0  0  0
 11 14  2  0  0  0
 11 15  1  0  0  0
 12 17  1  0  0  0
 12 28  2  0  0  0
 13 28  1  0  0  0
 13 29  2  0  0  0
 13 54  1  0  0  0
 14 29  1  0  0  0
 14 31  1  0  0  0
 15 30  2  0  0  0
 15 41  1  0  0  0
 16 17  2  0  0  0
 16 18  1  0  0  0
 16 30  1  0  0  0
 17 26  1  0  0  0
 18 23  2  0  0  0
 19 20  1  0  0  0
 19 31  1  0  0  0
 19 42  1  0  0  0
 19 43  1  0  0  0
 20 22  1  0  0  0
 20 32  1  0  0  0
 20 44  1  0  0  0
 21 32  1  0  0  0
 21 45  1  0  0  0
 22 46  1  0  0  0
 22 47  1  0  0  0
 23 48  1  0  0  0
 24 25  3  0  0  0
 25 49  1  0  0  0
 32 50  1  0  0  0
 33 51  1  0  0  0
 52 58  1  0  0  0
 52 59  1  0  0  0
 53 54  1  0  0  0
 53 56  1  0  0  0
 53 60  1  0  0  0
 53 61  1  0  0  0
 54 62  1  0  0  0
 54 63  1  0  0  0
 55 56  1  0  0  0
 55 57  1  0  0  0
 55 59  2  0  0  0
 56 64  1  0  0  0
 56 65  1  0  0  0
 57 58  2  0  0  0
 57 66  1  0  0  0
 58 67  1  0  0  0
 59 68  1  0  0  0
M  CHG  1  53   1
M  END
> <s_m_entry_id>
429

> <s_m_entry_name>
000000429.1

> <s_m_Source_Path>
/Users/zaksoul/Documents/2

> <s_m_Source_File>
000000429.mol2

> <i_m_Source_File_Index>
1

$$$$
No_0_453
                    3D
 Schrodinger Suite 2022-4.
 67 73  0  0  1  0            999 V2000
   -5.1060    3.6130  -22.0090 C   0  0  0  0  0  0
   -5.3790    3.7570  -23.3490 C   0  0  0  0  0  0
   -3.8620    3.3890  -21.6660 C   0  0  0  0  0  0
   -2.9810    3.4650  -23.8380 C   0  0  0  0  0  0
   -2.8110    3.2650  -22.4110 C   0  0  0  0  0  0
   -4.3340    3.6910  -24.3610 C   0  0  0  0  0  0
   -3.5870    3.6590  -26.5620 C   0  0  0  0  0  0
    6.1710    3.2330  -21.3160 C   0  0  0  0  0  0
    6.0210    3.2980  -23.8680 C   0  0  0  0  0  0
   -4.5920    3.7750  -25.6990 C   0  0  0  0  0  0
    2.2280    3.7860  -23.8860 C   0  0  0  0  0  0
    1.3910    4.8900  -23.6170 C   0  0  0  0  0  0
    3.1730    6.1330  -22.9800 C   0  0  0  0  0  0
    3.6260    4.0070  -23.5840 C   0  0  0  0  0  0
    1.6970    2.6410  -24.5120 C   0  0  0  0  0  0
   -0.4420    3.4240  -24.4170 C   0  0  0  0  0  0
    0.0670    4.6700  -23.8560 C   0  0  0  0  0  0
   -1.8960    3.3970  -24.7660 C   0  0  0  0  0  0
    4.2720    1.5290  -23.2210 C   0  0  0  0  0  0
    5.2150    1.2220  -22.0680 C   0  0  2  0  0  0
    6.7820    2.7710  -22.6560 C   0  0  2  0  0  0
    5.1860    2.2570  -20.9310 C   0  0  0  0  0  0
   -2.2290    3.5090  -26.1960 C   0  0  0  0  0  0
   -1.4590    2.8910  -21.8060 C   0  0  0  0  0  0
   -0.4210    2.5740  -21.2940 C   0  0  0  0  0  0
   -0.7900    5.7110  -23.5400 F   0  0  0  0  0  0
   -3.6430    3.1910  -20.2780 F   0  0  0  0  0  0
    1.8520    6.0710  -23.1220 N   0  0  0  0  0  0
    4.0830    5.1780  -23.1750 N   0  0  0  0  0  0
    0.3910    2.5220  -24.8090 N   0  0  0  0  0  0
    4.5600    2.9690  -23.7340 N   0  0  0  0  0  0
    6.6190    1.2970  -22.5580 N   0  0  1  0  0  0
   -3.7650    3.6300  -27.9510 O   0  0  0  0  0  0
   -5.9061    3.6853  -21.2812 H   0  0  0  0  0  0
   -6.3978    3.9266  -23.6782 H   0  0  0  0  0  0
    5.6845    4.2101  -21.4523 H   0  0  0  0  0  0
    6.9592    3.2784  -20.5500 H   0  0  0  0  0  0
    6.4187    2.8317  -24.7815 H   0  0  0  0  0  0
    6.1472    4.3888  -23.9336 H   0  0  0  0  0  0
   -5.6066    3.9336  -26.0462 H   0  0  0  0  0  0
    2.3482    1.8143  -24.7719 H   0  0  0  0  0  0
    3.2315    1.4664  -22.8698 H   0  0  0  0  0  0
    4.4425    0.8095  -24.0354 H   0  0  0  0  0  0
    5.0081    0.2179  -21.6694 H   0  0  0  0  0  0
    7.8461    3.0436  -22.7146 H   0  0  0  0  0  0
    4.1950    2.7333  -20.8977 H   0  0  0  0  0  0
    5.4979    1.7756  -19.9924 H   0  0  0  0  0  0
   -1.4623    3.4789  -26.9617 H   0  0  0  0  0  0
    0.4930    2.2960  -20.8440 H   0  0  0  0  0  0
    7.2764    0.8299  -21.8397 H   0  0  0  0  0  0
   -2.9203    3.5429  -28.3768 H   0  0  0  0  0  0
    8.0110    8.8050  -20.6900 O   0  0  0  0  0  0
    3.7130    7.6440  -21.0550 N   0  3  0  0  0  0
    6.4030    9.5580  -21.8730 N   0  0  0  0  0  0
    4.3170    8.9240  -20.5400 C   0  0  0  0  0  0
    3.7130    7.4940  -22.5530 C   0  0  0  0  0  0
    5.8150    8.9830  -20.7810 C   0  0  0  0  0  0
    6.8240    8.5210  -20.0540 C   0  0  0  0  0  0
    7.7030    9.4160  -21.7560 C   0  0  0  0  0  0
    2.7691    7.5580  -20.7120 H   0  0  0  0  0  0
    4.1920    6.8591  -20.6420 H   0  0  0  0  0  0
    4.1161    9.0160  -19.4624 H   0  0  0  0  0  0
    3.8330    9.7811  -21.0310 H   0  0  0  0  0  0
    4.7375    7.6171  -22.9342 H   0  0  0  0  0  0
    3.0972    8.2878  -23.0009 H   0  0  0  0  0  0
    6.6280    8.0090  -19.1130 H   0  0  0  0  0  0
    8.3647    9.8068  -22.5276 H   0  0  0  0  0  0
  1  2  2  0  0  0
  1  3  1  0  0  0
  1 34  1  0  0  0
  2  6  1  0  0  0
  2 35  1  0  0  0
  3  5  2  0  0  0
  3 27  1  0  0  0
  4  5  1  0  0  0
  4  6  2  0  0  0
  4 18  1  0  0  0
  5 24  1  0  0  0
  6 10  1  0  0  0
  7 10  2  0  0  0
  7 23  1  0  0  0
  7 33  1  0  0  0
  8 21  1  0  0  0
  8 22  1  0  0  0
  8 36  1  0  0  0
  8 37  1  0  0  0
  9 21  1  0  0  0
  9 31  1  0  0  0
  9 38  1  0  0  0
  9 39  1  0  0  0
 10 40  1  0  0  0
 11 12  1  0  0  0
 11 14  2  0  0  0
 11 15  1  0  0  0
 12 17  1  0  0  0
 12 28  2  0  0  0
 13 28  1  0  0  0
 13 29  2  0  0  0
 13 56  1  0  0  0
 14 29  1  0  0  0
 14 31  1  0  0  0
 15 30  2  0  0  0
 15 41  1  0  0  0
 16 17  2  0  0  0
 16 18  1  0  0  0
 16 30  1  0  0  0
 17 26  1  0  0  0
 18 23  2  0  0  0
 19 20  1  0  0  0
 19 31  1  0  0  0
 19 42  1  0  0  0
 19 43  1  0  0  0
 20 22  1  0  0  0
 20 32  1  0  0  0
 20 44  1  0  0  0
 21 32  1  0  0  0
 21 45  1  0  0  0
 22 46  1  0  0  0
 22 47  1  0  0  0
 23 48  1  0  0  0
 24 25  3  0  0  0
 25 49  1  0  0  0
 32 50  1  0  0  0
 33 51  1  0  0  0
 52 58  1  0  0  0
 52 59  1  0  0  0
 53 55  1  0  0  0
 53 56  1  0  0  0
 53 60  1  0  0  0
 53 61  1  0  0  0
 54 57  1  0  0  0
 54 59  2  0  0  0
 55 57  1  0  0  0
 55 62  1  0  0  0
 55 63  1  0  0  0
 56 64  1  0  0  0
 56 65  1  0  0  0
 57 58  2  0  0  0
 58 66  1  0  0  0
 59 67  1  0  0  0
M  CHG  1  53   1
M  END
> <s_m_entry_id>
430

> <s_m_entry_name>
000000430.1

> <s_m_Source_Path>
/Users/zaksoul/Documents/2

> <s_m_Source_File>
000000430.mol2

> <i_m_Source_File_Index>
1

$$$$
No_0_454
                    3D
 Schrodinger Suite 2022-4.
 67 73  0  0  1  0            999 V2000
   -5.2180    3.4450  -22.0350 C   0  0  0  0  0  0
   -5.4950    3.6040  -23.3720 C   0  0  0  0  0  0
   -3.9700    3.2460  -21.6940 C   0  0  0  0  0  0
   -3.0890    3.3750  -23.8640 C   0  0  0  0  0  0
   -2.9160    3.1580  -22.4400 C   0  0  0  0  0  0
   -4.4470    3.5770  -24.3850 C   0  0  0  0  0  0
   -3.6990    3.5960  -26.5850 C   0  0  0  0  0  0
    6.0640    3.3200  -21.3370 C   0  0  0  0  0  0
    5.9140    3.4190  -23.8880 C   0  0  0  0  0  0
   -4.7070    3.6750  -25.7210 C   0  0  0  0  0  0
    2.1110    3.8180  -23.9030 C   0  0  0  0  0  0
    1.2480    4.8980  -23.6180 C   0  0  0  0  0  0
    2.9990    6.1730  -22.9600 C   0  0  0  0  0  0
    3.5030    4.0680  -23.5960 C   0  0  0  0  0  0
    1.6070    2.6710  -24.5460 C   0  0  0  0  0  0
   -0.5500    3.4020  -24.4410 C   0  0  0  0  0  0
   -0.0700    4.6510  -23.8620 C   0  0  0  0  0  0
   -2.0030    3.3460  -24.7920 C   0  0  0  0  0  0
    4.2060    1.6000  -23.2700 C   0  0  0  0  0  0
    5.1560    1.2980  -22.1210 C   0  0  2  0  0  0
    6.6860    2.8920  -22.6840 C   0  0  2  0  0  0
    5.1020    2.3150  -20.9680 C   0  0  0  0  0  0
   -2.3380    3.4720  -26.2210 C   0  0  0  0  0  0
   -1.5550    2.8060  -21.8400 C   0  0  0  0  0  0
   -0.5110    2.5070  -21.3320 C   0  0  0  0  0  0
   -0.9520    5.6670  -23.5300 F   0  0  0  0  0  0
   -3.7470    3.0320  -20.3090 F   0  0  0  0  0  0
    1.6800    6.0830  -23.1040 N   0  0  0  0  0  0
    3.9320    5.2430  -23.1690 N   0  0  0  0  0  0
    0.3040    2.5260  -24.8460 N   0  0  0  0  0  0
    4.4610    3.0540  -23.7610 N   0  0  0  0  0  0
    6.5580    1.4130  -22.6080 N   0  0  1  0  0  0
   -3.8750    3.5830  -27.9750 O   0  0  0  0  0  0
   -6.0201    3.4882  -21.3071 H   0  0  0  0  0  0
   -6.5171    3.7546  -23.7003 H   0  0  0  0  0  0
    5.5543    4.2870  -21.4601 H   0  0  0  0  0  0
    6.8510    3.3725  -20.5702 H   0  0  0  0  0  0
    6.3226    2.9760  -24.8082 H   0  0  0  0  0  0
    6.0139    4.5133  -23.9375 H   0  0  0  0  0  0
   -5.7245    3.8156  -26.0675 H   0  0  0  0  0  0
    2.2776    1.8639  -24.8180 H   0  0  0  0  0  0
    3.1673    1.5081  -22.9197 H   0  0  0  0  0  0
    4.3938    0.8971  -24.0951 H   0  0  0  0  0  0
    4.9723    0.2839  -21.7365 H   0  0  0  0  0  0
    7.7436    3.1897  -22.7375 H   0  0  0  0  0  0
    4.1003    2.7679  -20.9287 H   0  0  0  0  0  0
    5.4241    1.8273  -20.0361 H   0  0  0  0  0  0
   -1.5700    3.4710  -26.9860 H   0  0  0  0  0  0
    0.4087    2.2431  -20.8852 H   0  0  0  0  0  0
    7.2261    0.9512  -21.8961 H   0  0  0  0  0  0
   -3.0285    3.5216  -28.4017 H   0  0  0  0  0  0
    7.9970    9.1350  -21.5300 O   0  0  0  0  0  0
    3.8480    7.5500  -21.0470 N   0  3  0  0  0  0
    6.0970    9.8140  -22.2250 N   0  0  0  0  0  0
    4.4460    8.8360  -20.5370 C   0  0  0  0  0  0
    3.5070    7.5400  -22.5140 C   0  0  0  0  0  0
    5.8330    9.0800  -21.1010 C   0  0  0  0  0  0
    7.0210    8.6660  -20.6800 C   0  0  0  0  0  0
    7.3950    9.8050  -22.4220 C   0  0  0  0  0  0
    3.0222    7.3310  -20.5121 H   0  0  0  0  0  0
    4.4761    6.7879  -20.8450 H   0  0  0  0  0  0
    4.4970    8.8060  -19.4386 H   0  0  0  0  0  0
    3.7894    9.6766  -20.8059 H   0  0  0  0  0  0
    4.3991    7.8080  -23.0991 H   0  0  0  0  0  0
    2.7379    8.3001  -22.7160 H   0  0  0  0  0  0
    7.0970    8.0512  -19.7843 H   0  0  0  0  0  0
    7.8200   10.3350  -23.2731 H   0  0  0  0  0  0
  1  2  2  0  0  0
  1  3  1  0  0  0
  1 34  1  0  0  0
  2  6  1  0  0  0
  2 35  1  0  0  0
  3  5  2  0  0  0
  3 27  1  0  0  0
  4  5  1  0  0  0
  4  6  2  0  0  0
  4 18  1  0  0  0
  5 24  1  0  0  0
  6 10  1  0  0  0
  7 10  2  0  0  0
  7 23  1  0  0  0
  7 33  1  0  0  0
  8 21  1  0  0  0
  8 22  1  0  0  0
  8 36  1  0  0  0
  8 37  1  0  0  0
  9 21  1  0  0  0
  9 31  1  0  0  0
  9 38  1  0  0  0
  9 39  1  0  0  0
 10 40  1  0  0  0
 11 12  1  0  0  0
 11 14  2  0  0  0
 11 15  1  0  0  0
 12 17  1  0  0  0
 12 28  2  0  0  0
 13 28  1  0  0  0
 13 29  2  0  0  0
 13 56  1  0  0  0
 14 29  1  0  0  0
 14 31  1  0  0  0
 15 30  2  0  0  0
 15 41  1  0  0  0
 16 17  2  0  0  0
 16 18  1  0  0  0
 16 30  1  0  0  0
 17 26  1  0  0  0
 18 23  2  0  0  0
 19 20  1  0  0  0
 19 31  1  0  0  0
 19 42  1  0  0  0
 19 43  1  0  0  0
 20 22  1  0  0  0
 20 32  1  0  0  0
 20 44  1  0  0  0
 21 32  1  0  0  0
 21 45  1  0  0  0
 22 46  1  0  0  0
 22 47  1  0  0  0
 23 48  1  0  0  0
 24 25  3  0  0  0
 25 49  1  0  0  0
 32 50  1  0  0  0
 33 51  1  0  0  0
 52 58  1  0  0  0
 52 59  1  0  0  0
 53 55  1  0  0  0
 53 56  1  0  0  0
 53 60  1  0  0  0
 53 61  1  0  0  0
 54 57  1  0  0  0
 54 59  2  0  0  0
 55 57  1  0  0  0
 55 62  1  0  0  0
 55 63  1  0  0  0
 56 64  1  0  0  0
 56 65  1  0  0  0
 57 58  2  0  0  0
 58 66  1  0  0  0
 59 67  1  0  0  0
M  CHG  1  53   1
M  END
> <s_m_entry_id>
431

> <s_m_entry_name>
000000431.1

> <s_m_Source_Path>
/Users/zaksoul/Documents/2

> <s_m_Source_File>
000000431.mol2

> <i_m_Source_File_Index>
1

$$$$
No_0_455
                    3D
 Schrodinger Suite 2022-4.
 67 73  0  0  1  0            999 V2000
   -5.2720    3.7190  -21.9390 C   0  0  0  0  0  0
   -5.5140    3.8860  -23.2820 C   0  0  0  0  0  0
   -4.0410    3.4640  -21.5740 C   0  0  0  0  0  0
   -3.1130    3.5460  -23.7260 C   0  0  0  0  0  0
   -2.9780    3.3260  -22.2990 C   0  0  0  0  0  0
   -4.4500    3.8090  -24.2740 C   0  0  0  0  0  0
   -3.6590    3.7870  -26.4590 C   0  0  0  0  0  0
    5.9770    3.0820  -21.0210 C   0  0  0  0  0  0
    5.8810    3.1800  -23.5740 C   0  0  0  0  0  0
   -4.6780    3.9140  -25.6150 C   0  0  0  0  0  0
    2.1010    3.7530  -23.6640 C   0  0  0  0  0  0
    1.2830    4.8710  -23.3980 C   0  0  0  0  0  0
    3.0780    6.0670  -22.7090 C   0  0  0  0  0  0
    3.4980    3.9400  -23.3310 C   0  0  0  0  0  0
    1.5580    2.6280  -24.3150 C   0  0  0  0  0  0
   -0.5650    3.4570  -24.2540 C   0  0  0  0  0  0
   -0.0400    4.6840  -23.6670 C   0  0  0  0  0  0
   -2.0120    3.4660  -24.6320 C   0  0  0  0  0  0
    4.0810    1.4430  -22.9860 C   0  0  0  0  0  0
    4.9930    1.1020  -21.8180 C   0  0  2  0  0  0
    6.6050    2.6220  -22.3540 C   0  0  2  0  0  0
    4.9630    2.1230  -20.6690 C   0  0  0  0  0  0
   -2.3120    3.6030  -26.0680 C   0  0  0  0  0  0
   -1.6460    2.9140  -21.6710 C   0  0  0  0  0  0
   -0.6260    2.5690  -21.1420 C   0  0  0  0  0  0
   -0.8800    5.7400  -23.3550 F   0  0  0  0  0  0
   -3.8550    3.2440  -20.1840 F   0  0  0  0  0  0
    1.7590    6.0360  -22.8780 N   0  0  0  0  0  0
    3.9710    5.0950  -22.8970 N   0  0  0  0  0  0
    0.2570    2.5410  -24.6400 N   0  0  0  0  0  0
    4.4110    2.8830  -23.4750 N   0  0  0  0  0  0
    6.4080    1.1510  -22.2780 N   0  0  1  0  0  0
   -3.8080    3.7790  -27.8520 O   0  0  0  0  0  0
   -6.0854    3.7993  -21.2270 H   0  0  0  0  0  0
   -6.5217    4.0817  -23.6303 H   0  0  0  0  0  0
    5.5148    4.0711  -21.1552 H   0  0  0  0  0  0
    6.7502    3.1002  -20.2388 H   0  0  0  0  0  0
    6.2878    2.7177  -24.4855 H   0  0  0  0  0  0
    6.0323    4.2684  -23.6234 H   0  0  0  0  0  0
   -5.6813    4.0996  -25.9812 H   0  0  0  0  0  0
    2.1961    1.7902  -24.5719 H   0  0  0  0  0  0
    3.0323    1.3996  -22.6569 H   0  0  0  0  0  0
    4.2527    0.7301  -23.8059 H   0  0  0  0  0  0
    4.7569    0.0980  -21.4356 H   0  0  0  0  0  0
    7.6759    2.8711  -22.3883 H   0  0  0  0  0  0
    3.9821    2.6205  -20.6498 H   0  0  0  0  0  0
    5.2446    1.6234  -19.7303 H   0  0  0  0  0  0
   -1.5301    3.5649  -26.8178 H   0  0  0  0  0  0
    0.2715    2.2638  -20.6767 H   0  0  0  0  0  0
    7.0407    0.6615  -21.5524 H   0  0  0  0  0  0
   -2.9569    3.6781  -28.2617 H   0  0  0  0  0  0
    8.1420    9.2420  -22.4430 O   0  0  0  0  0  0
    4.4090    7.2810  -20.9670 N   0  3  0  0  0  0
    6.0940    9.8390  -22.4460 N   0  0  0  0  0  0
    5.0780    8.5450  -20.4910 C   0  0  0  0  0  0
    3.6390    7.4110  -22.2540 C   0  0  0  0  0  0
    6.2160    8.9630  -21.4030 C   0  0  0  0  0  0
    7.4930    8.6010  -21.4120 C   0  0  0  0  0  0
    7.2700    9.9580  -23.0180 C   0  0  0  0  0  0
    3.7960    6.9360  -20.2450 H   0  0  0  0  0  0
    5.1002    6.5538  -21.0640 H   0  0  0  0  0  0
    5.4622    8.3929  -19.4715 H   0  0  0  0  0  0
    4.3348    9.3542  -20.4380 H   0  0  0  0  0  0
    4.2983    7.8152  -23.0363 H   0  0  0  0  0  0
    2.8128    8.1242  -22.1170 H   0  0  0  0  0  0
    7.8639    7.8962  -20.6692 H   0  0  0  0  0  0
    7.3930   10.6138  -23.8787 H   0  0  0  0  0  0
  1  2  2  0  0  0
  1  3  1  0  0  0
  1 34  1  0  0  0
  2  6  1  0  0  0
  2 35  1  0  0  0
  3  5  2  0  0  0
  3 27  1  0  0  0
  4  5  1  0  0  0
  4  6  2  0  0  0
  4 18  1  0  0  0
  5 24  1  0  0  0
  6 10  1  0  0  0
  7 10  2  0  0  0
  7 23  1  0  0  0
  7 33  1  0  0  0
  8 21  1  0  0  0
  8 22  1  0  0  0
  8 36  1  0  0  0
  8 37  1  0  0  0
  9 21  1  0  0  0
  9 31  1  0  0  0
  9 38  1  0  0  0
  9 39  1  0  0  0
 10 40  1  0  0  0
 11 12  1  0  0  0
 11 14  2  0  0  0
 11 15  1  0  0  0
 12 17  1  0  0  0
 12 28  2  0  0  0
 13 28  1  0  0  0
 13 29  2  0  0  0
 13 56  1  0  0  0
 14 29  1  0  0  0
 14 31  1  0  0  0
 15 30  2  0  0  0
 15 41  1  0  0  0
 16 17  2  0  0  0
 16 18  1  0  0  0
 16 30  1  0  0  0
 17 26  1  0  0  0
 18 23  2  0  0  0
 19 20  1  0  0  0
 19 31  1  0  0  0
 19 42  1  0  0  0
 19 43  1  0  0  0
 20 22  1  0  0  0
 20 32  1  0  0  0
 20 44  1  0  0  0
 21 32  1  0  0  0
 21 45  1  0  0  0
 22 46  1  0  0  0
 22 47  1  0  0  0
 23 48  1  0  0  0
 24 25  3  0  0  0
 25 49  1  0  0  0
 32 50  1  0  0  0
 33 51  1  0  0  0
 52 58  1  0  0  0
 52 59  1  0  0  0
 53 55  1  0  0  0
 53 56  1  0  0  0
 53 60  1  0  0  0
 53 61  1  0  0  0
 54 57  1  0  0  0
 54 59  2  0  0  0
 55 57  1  0  0  0
 55 62  1  0  0  0
 55 63  1  0  0  0
 56 64  1  0  0  0
 56 65  1  0  0  0
 57 58  2  0  0  0
 58 66  1  0  0  0
 59 67  1  0  0  0
M  CHG  1  53   1
M  END
> <s_m_entry_id>
432

> <s_m_entry_name>
000000432.1

> <s_m_Source_Path>
/Users/zaksoul/Documents/2

> <s_m_Source_File>
000000432.mol2

> <i_m_Source_File_Index>
1

$$$$
No_0_456
                    3D
 Schrodinger Suite 2022-4.
 67 73  0  0  1  0            999 V2000
   -5.1990    3.2980  -22.2950 C   0  0  0  0  0  0
   -5.4350    3.4760  -23.6370 C   0  0  0  0  0  0
   -3.9620    3.0910  -21.9200 C   0  0  0  0  0  0
   -3.0170    3.2510  -24.0600 C   0  0  0  0  0  0
   -2.8870    3.0130  -22.6350 C   0  0  0  0  0  0
   -4.3590    3.4630  -24.6180 C   0  0  0  0  0  0
   -3.5450    3.5120  -26.7950 C   0  0  0  0  0  0
    6.0560    3.1440  -21.2630 C   0  0  0  0  0  0
    5.9830    3.2800  -23.8150 C   0  0  0  0  0  0
   -4.5780    3.5800  -25.9600 C   0  0  0  0  0  0
    2.1820    3.6860  -23.9370 C   0  0  0  0  0  0
    1.3120    4.7630  -23.6620 C   0  0  0  0  0  0
    3.0450    6.0260  -22.9340 C   0  0  0  0  0  0
    3.5650    3.9290  -23.5860 C   0  0  0  0  0  0
    1.6970    2.5490  -24.6120 C   0  0  0  0  0  0
   -0.4620    3.2820  -24.5610 C   0  0  0  0  0  0
    0.0020    4.5220  -23.9490 C   0  0  0  0  0  0
   -1.9040    3.2340  -24.9550 C   0  0  0  0  0  0
    4.2560    1.4560  -23.2740 C   0  0  0  0  0  0
    5.1700    1.1350  -22.1020 C   0  0  2  0  0  0
    6.7180    2.7350  -22.5960 C   0  0  2  0  0  0
    5.0830    2.1360  -20.9370 C   0  0  0  0  0  0
   -2.1950    3.3810  -26.3920 C   0  0  0  0  0  0
   -1.5450    2.6500  -22.0000 C   0  0  0  0  0  0
   -0.5160    2.3410  -21.4650 C   0  0  0  0  0  0
   -0.8870    5.5350  -23.6290 F   0  0  0  0  0  0
   -3.7810    2.8570  -20.5320 F   0  0  0  0  0  0
    1.7310    5.9390  -23.1190 N   0  0  0  0  0  0
    3.9830    5.0970  -23.1280 N   0  0  0  0  0  0
    0.4030    2.4110  -24.9530 N   0  0  0  0  0  0
    4.5270    2.9170  -23.7360 N   0  0  0  0  0  0
    6.5860    1.2550  -22.5460 N   0  0  1  0  0  0
   -3.6790    3.5210  -28.1890 O   0  0  0  0  0  0
   -6.0225    3.3311  -21.5909 H   0  0  0  0  0  0
   -6.4466    3.6336  -23.9933 H   0  0  0  0  0  0
    5.5523    4.1141  -21.3862 H   0  0  0  0  0  0
    6.8196    3.1833  -20.4722 H   0  0  0  0  0  0
    6.4190    2.8511  -24.7293 H   0  0  0  0  0  0
    6.0859    4.3748  -23.8453 H   0  0  0  0  0  0
   -5.5846    3.7275  -26.3343 H   0  0  0  0  0  0
    2.3740    1.7444  -24.8752 H   0  0  0  0  0  0
    3.2067    1.3601  -22.9582 H   0  0  0  0  0  0
    4.4669    0.7649  -24.1034 H   0  0  0  0  0  0
    4.9742    0.1154  -21.7386 H   0  0  0  0  0  0
    7.7771    3.0316  -22.6142 H   0  0  0  0  0  0
    4.0808    2.5892  -20.9209 H   0  0  0  0  0  0
    5.3766    1.6335  -20.0036 H   0  0  0  0  0  0
   -1.4048    3.3900  -27.1340 H   0  0  0  0  0  0
    0.3895    2.0689  -20.9947 H   0  0  0  0  0  0
    7.2319    0.7823  -21.8209 H   0  0  0  0  0  0
   -2.8200    3.4646  -28.5908 H   0  0  0  0  0  0
    7.7330    9.7320  -23.2180 O   0  0  0  0  0  0
    4.5380    7.2440  -21.3320 N   0  3  0  0  0  0
    5.6680   10.0870  -22.8180 N   0  0  0  0  0  0
    5.1510    8.5350  -20.8550 C   0  0  0  0  0  0
    3.5410    7.3850  -22.4520 C   0  0  0  0  0  0
    6.0610    9.1530  -21.9010 C   0  0  0  0  0  0
    7.3450    8.9420  -22.1600 C   0  0  0  0  0  0
    6.7050   10.3860  -23.5660 C   0  0  0  0  0  0
    4.1010    6.7750  -20.5541 H   0  0  0  0  0  0
    5.2703    6.6118  -21.6151 H   0  0  0  0  0  0
    5.7249    8.3490  -19.9352 H   0  0  0  0  0  0
    4.3528    9.2472  -20.5989 H   0  0  0  0  0  0
    4.0061    7.9231  -23.2911 H   0  0  0  0  0  0
    2.6858    7.9852  -22.1079 H   0  0  0  0  0  0
    7.9108    8.2282  -21.5632 H   0  0  0  0  0  0
    6.6060   11.1181  -24.3661 H   0  0  0  0  0  0
  1  2  2  0  0  0
  1  3  1  0  0  0
  1 34  1  0  0  0
  2  6  1  0  0  0
  2 35  1  0  0  0
  3  5  2  0  0  0
  3 27  1  0  0  0
  4  5  1  0  0  0
  4  6  2  0  0  0
  4 18  1  0  0  0
  5 24  1  0  0  0
  6 10  1  0  0  0
  7 10  2  0  0  0
  7 23  1  0  0  0
  7 33  1  0  0  0
  8 21  1  0  0  0
  8 22  1  0  0  0
  8 36  1  0  0  0
  8 37  1  0  0  0
  9 21  1  0  0  0
  9 31  1  0  0  0
  9 38  1  0  0  0
  9 39  1  0  0  0
 10 40  1  0  0  0
 11 12  1  0  0  0
 11 14  2  0  0  0
 11 15  1  0  0  0
 12 17  1  0  0  0
 12 28  2  0  0  0
 13 28  1  0  0  0
 13 29  2  0  0  0
 13 56  1  0  0  0
 14 29  1  0  0  0
 14 31  1  0  0  0
 15 30  2  0  0  0
 15 41  1  0  0  0
 16 17  2  0  0  0
 16 18  1  0  0  0
 16 30  1  0  0  0
 17 26  1  0  0  0
 18 23  2  0  0  0
 19 20  1  0  0  0
 19 31  1  0  0  0
 19 42  1  0  0  0
 19 43  1  0  0  0
 20 22  1  0  0  0
 20 32  1  0  0  0
 20 44  1  0  0  0
 21 32  1  0  0  0
 21 45  1  0  0  0
 22 46  1  0  0  0
 22 47  1  0  0  0
 23 48  1  0  0  0
 24 25  3  0  0  0
 25 49  1  0  0  0
 32 50  1  0  0  0
 33 51  1  0  0  0
 52 58  1  0  0  0
 52 59  1  0  0  0
 53 55  1  0  0  0
 53 56  1  0  0  0
 53 60  1  0  0  0
 53 61  1  0  0  0
 54 57  1  0  0  0
 54 59  2  0  0  0
 55 57  1  0  0  0
 55 62  1  0  0  0
 55 63  1  0  0  0
 56 64  1  0  0  0
 56 65  1  0  0  0
 57 58  2  0  0  0
 58 66  1  0  0  0
 59 67  1  0  0  0
M  CHG  1  53   1
M  END
> <s_m_entry_id>
433

> <s_m_entry_name>
000000433.1

> <s_m_Source_Path>
/Users/zaksoul/Documents/2

> <s_m_Source_File>
000000433.mol2

> <i_m_Source_File_Index>
1

$$$$
No_0_457
                    3D
 Schrodinger Suite 2022-4.
 67 73  0  0  1  0            999 V2000
   -5.2600    3.4820  -22.0860 C   0  0  0  0  0  0
   -5.4870    3.6670  -23.4290 C   0  0  0  0  0  0
   -4.0280    3.2530  -21.7050 C   0  0  0  0  0  0
   -3.0710    3.3990  -23.8410 C   0  0  0  0  0  0
   -2.9510    3.1570  -22.4160 C   0  0  0  0  0  0
   -4.4060    3.6360  -24.4050 C   0  0  0  0  0  0
   -3.5810    3.6750  -26.5780 C   0  0  0  0  0  0
    5.9870    3.1280  -21.0030 C   0  0  0  0  0  0
    5.9270    3.2700  -23.5560 C   0  0  0  0  0  0
   -4.6170    3.7600  -25.7480 C   0  0  0  0  0  0
    2.1350    3.7430  -23.6940 C   0  0  0  0  0  0
    1.2830    4.8350  -23.4210 C   0  0  0  0  0  0
    3.0340    6.0650  -22.6830 C   0  0  0  0  0  0
    3.5200    3.9610  -23.3360 C   0  0  0  0  0  0
    1.6320    2.6160  -24.3730 C   0  0  0  0  0  0
   -0.5130    3.3870  -24.3310 C   0  0  0  0  0  0
   -0.0300    4.6170  -23.7150 C   0  0  0  0  0  0
   -1.9540    3.3650  -24.7320 C   0  0  0  0  0  0
    4.1660    1.4760  -23.0260 C   0  0  0  0  0  0
    5.0690    1.1370  -21.8500 C   0  0  2  0  0  0
    6.6480    2.7100  -22.3350 C   0  0  2  0  0  0
    4.9940    2.1370  -20.6840 C   0  0  0  0  0  0
   -2.2360    3.5190  -26.1690 C   0  0  0  0  0  0
   -1.6180    2.7700  -21.7750 C   0  0  0  0  0  0
   -0.5980    2.4420  -21.2370 C   0  0  0  0  0  0
   -0.9030    5.6450  -23.3970 F   0  0  0  0  0  0
   -3.8580    3.0130  -20.3170 F   0  0  0  0  0  0
    1.7200    6.0030  -22.8740 N   0  0  0  0  0  0
    3.9560    5.1210  -22.8750 N   0  0  0  0  0  0
    0.3380    2.5010  -24.7200 N   0  0  0  0  0  0
    4.4640    2.9320  -23.4840 N   0  0  0  0  0  0
    6.4890    1.2330  -22.2870 N   0  0  1  0  0  0
   -3.7100    3.6880  -27.9730 O   0  0  0  0  0  0
   -6.0860    3.5282  -21.3855 H   0  0  0  0  0  0
   -6.4942    3.8417  -23.7895 H   0  0  0  0  0  0
    5.5007    4.1067  -21.1281 H   0  0  0  0  0  0
    6.7478    3.1532  -20.2089 H   0  0  0  0  0  0
    6.3601    2.8348  -24.4687 H   0  0  0  0  0  0
    6.0491    4.3629  -23.5832 H   0  0  0  0  0  0
   -5.6193    3.9247  -26.1266 H   0  0  0  0  0  0
    2.2962    1.8003  -24.6349 H   0  0  0  0  0  0
    3.1139    1.3983  -22.7143 H   0  0  0  0  0  0
    4.3687    0.7821  -23.8551 H   0  0  0  0  0  0
    4.8530    0.1204  -21.4896 H   0  0  0  0  0  0
    7.7121    2.9886  -22.3471 H   0  0  0  0  0  0
    4.0001    2.6082  -20.6719 H   0  0  0  0  0  0
    5.2745    1.6285  -19.7498 H   0  0  0  0  0  0
   -1.4419    3.5160  -26.9069 H   0  0  0  0  0  0
    0.3005    2.1532  -20.7633 H   0  0  0  0  0  0
    7.1235    0.7472  -21.5605 H   0  0  0  0  0  0
   -2.8502    3.6168  -28.3707 H   0  0  0  0  0  0
    7.3230   10.1240  -23.6500 O   0  0  0  0  0  0
    4.7840    7.2600  -21.3460 N   0  3  0  0  0  0
    5.3870   10.2900  -22.7680 N   0  0  0  0  0  0
    5.4190    8.5510  -20.8960 C   0  0  0  0  0  0
    3.5520    7.4150  -22.1970 C   0  0  0  0  0  0
    6.0300    9.3170  -22.0550 C   0  0  0  0  0  0
    7.2310    9.2240  -22.6130 C   0  0  0  0  0  0
    6.2080   10.7240  -23.6960 C   0  0  0  0  0  0
    4.5632    6.6984  -20.5386 H   0  0  0  0  0  0
    5.4661    6.7089  -21.8431 H   0  0  0  0  0  0
    6.1965    8.3349  -20.1485 H   0  0  0  0  0  0
    4.6621    9.1779  -20.4020 H   0  0  0  0  0  0
    3.7831    8.0522  -23.0633 H   0  0  0  0  0  0
    2.7661    7.9199  -21.6161 H   0  0  0  0  0  0
    7.9570    8.5100  -22.2270 H   0  0  0  0  0  0
    5.8891   11.5076  -24.3817 H   0  0  0  0  0  0
  1  2  2  0  0  0
  1  3  1  0  0  0
  1 34  1  0  0  0
  2  6  1  0  0  0
  2 35  1  0  0  0
  3  5  2  0  0  0
  3 27  1  0  0  0
  4  5  1  0  0  0
  4  6  2  0  0  0
  4 18  1  0  0  0
  5 24  1  0  0  0
  6 10  1  0  0  0
  7 10  2  0  0  0
  7 23  1  0  0  0
  7 33  1  0  0  0
  8 21  1  0  0  0
  8 22  1  0  0  0
  8 36  1  0  0  0
  8 37  1  0  0  0
  9 21  1  0  0  0
  9 31  1  0  0  0
  9 38  1  0  0  0
  9 39  1  0  0  0
 10 40  1  0  0  0
 11 12  1  0  0  0
 11 14  2  0  0  0
 11 15  1  0  0  0
 12 17  1  0  0  0
 12 28  2  0  0  0
 13 28  1  0  0  0
 13 29  2  0  0  0
 13 56  1  0  0  0
 14 29  1  0  0  0
 14 31  1  0  0  0
 15 30  2  0  0  0
 15 41  1  0  0  0
 16 17  2  0  0  0
 16 18  1  0  0  0
 16 30  1  0  0  0
 17 26  1  0  0  0
 18 23  2  0  0  0
 19 20  1  0  0  0
 19 31  1  0  0  0
 19 42  1  0  0  0
 19 43  1  0  0  0
 20 22  1  0  0  0
 20 32  1  0  0  0
 20 44  1  0  0  0
 21 32  1  0  0  0
 21 45  1  0  0  0
 22 46  1  0  0  0
 22 47  1  0  0  0
 23 48  1  0  0  0
 24 25  3  0  0  0
 25 49  1  0  0  0
 32 50  1  0  0  0
 33 51  1  0  0  0
 52 58  1  0  0  0
 52 59  1  0  0  0
 53 55  1  0  0  0
 53 56  1  0  0  0
 53 60  1  0  0  0
 53 61  1  0  0  0
 54 57  1  0  0  0
 54 59  2  0  0  0
 55 57  1  0  0  0
 55 62  1  0  0  0
 55 63  1  0  0  0
 56 64  1  0  0  0
 56 65  1  0  0  0
 57 58  2  0  0  0
 58 66  1  0  0  0
 59 67  1  0  0  0
M  CHG  1  53   1
M  END
> <s_m_entry_id>
434

> <s_m_entry_name>
000000434.1

> <s_m_Source_Path>
/Users/zaksoul/Documents/2

> <s_m_Source_File>
000000434.mol2

> <i_m_Source_File_Index>
1

$$$$
No_0_458
                    3D
 Schrodinger Suite 2022-4.
 68 74  0  0  1  0            999 V2000
   -5.1170    3.5120  -22.2330 C   0  0  0  0  0  0
   -5.3760    3.6810  -23.5720 C   0  0  0  0  0  0
   -3.8760    3.2900  -21.8800 C   0  0  0  0  0  0
   -2.9700    3.4140  -24.0390 C   0  0  0  0  0  0
   -2.8160    3.1880  -22.6150 C   0  0  0  0  0  0
   -4.3190    3.6410  -24.5740 C   0  0  0  0  0  0
   -3.5470    3.6570  -26.7660 C   0  0  0  0  0  0
    6.1530    3.1950  -21.4170 C   0  0  0  0  0  0
    6.0320    3.3080  -23.9690 C   0  0  0  0  0  0
   -4.5620    3.7490  -25.9120 C   0  0  0  0  0  0
    2.2360    3.7710  -24.0220 C   0  0  0  0  0  0
    1.3890    4.8640  -23.7410 C   0  0  0  0  0  0
    3.1540    6.1060  -23.0590 C   0  0  0  0  0  0
    3.6300    3.9960  -23.7000 C   0  0  0  0  0  0
    1.7200    2.6350  -24.6750 C   0  0  0  0  0  0
   -0.4250    3.4010  -24.5900 C   0  0  0  0  0  0
    0.0690    4.6390  -24.0000 C   0  0  0  0  0  0
   -1.8750    3.3710  -24.9560 C   0  0  0  0  0  0
    4.2880    1.5160  -23.3770 C   0  0  0  0  0  0
    5.2200    1.1930  -22.2190 C   0  0  2  0  0  0
    6.7830    2.7630  -22.7590 C   0  0  2  0  0  0
    5.1710    2.2050  -21.0630 C   0  0  0  0  0  0
   -2.1930    3.5090  -26.3880 C   0  0  0  0  0  0
   -1.4670    2.8110  -22.0020 C   0  0  0  0  0  0
   -0.4330    2.4920  -21.4840 C   0  0  0  0  0  0
   -0.7980    5.6690  -23.6730 F   0  0  0  0  0  0
   -3.6710    3.0670  -20.4940 F   0  0  0  0  0  0
    1.8350    6.0380  -23.2180 N   0  0  0  0  0  0
    4.0730    5.1620  -23.2620 N   0  0  0  0  0  0
    0.4190    2.5130  -24.9900 N   0  0  0  0  0  0
    4.5720    2.9670  -23.8590 N   0  0  0  0  0  0
    6.6290    1.2860  -22.6910 N   0  0  1  0  0  0
   -3.7090    3.6530  -28.1570 O   0  0  0  0  0  0
   -5.9259    3.5652  -21.5134 H   0  0  0  0  0  0
   -6.3921    3.8495  -23.9100 H   0  0  0  0  0  0
    5.6614    4.1712  -21.5412 H   0  0  0  0  0  0
    6.9329    3.2313  -20.6421 H   0  0  0  0  0  0
    6.4439    2.8628  -24.8867 H   0  0  0  0  0  0
    6.1511    4.4007  -24.0124 H   0  0  0  0  0  0
   -5.5735    3.9075  -26.2682 H   0  0  0  0  0  0
    2.3802    1.8183  -24.9439 H   0  0  0  0  0  0
    3.2441    1.4393  -23.0388 H   0  0  0  0  0  0
    4.4727    0.8127  -24.2024 H   0  0  0  0  0  0
    5.0162    0.1800  -21.8417 H   0  0  0  0  0  0
    7.8458    3.0436  -22.8004 H   0  0  0  0  0  0
    4.1765    2.6740  -21.0317 H   0  0  0  0  0  0
    5.4747    1.7085  -20.1296 H   0  0  0  0  0  0
   -1.4166    3.4980  -27.1444 H   0  0  0  0  0  0
    0.4774    2.2109  -21.0288 H   0  0  0  0  0  0
    7.2823    0.8102  -21.9746 H   0  0  0  0  0  0
   -2.8593    3.5798  -28.5754 H   0  0  0  0  0  0
    3.3310    7.7270  -21.1590 N   0  0  1  0  0  0
    6.2180    8.3100  -20.0390 N   0  0  0  0  0  0
    6.0310    9.8940  -21.5140 N   0  0  0  0  0  0
    3.8610    9.0190  -20.5930 C   0  0  0  0  0  0
    3.6800    7.4620  -22.6010 C   0  0  0  0  0  0
    5.3710    9.0870  -20.7020 C   0  0  0  0  0  0
    7.4750    8.6620  -20.4860 C   0  0  0  0  0  0
    7.3690    9.6330  -21.3880 C   0  0  0  0  0  0
    3.7240    6.8960  -20.5920 H   0  0  0  0  0  0
    5.8612    7.6253  -19.3573 H   0  0  0  0  0  0
    5.5180   10.5690  -22.0990 H   0  0  0  0  0  0
    3.5662    9.1039  -19.5367 H   0  0  0  0  0  0
    3.4162    9.8667  -21.1348 H   0  0  0  0  0  0
    4.7726    7.4920  -22.7251 H   0  0  0  0  0  0
    3.2511    8.2538  -23.2328 H   0  0  0  0  0  0
    8.3510    8.1580  -20.0940 H   0  0  0  0  0  0
    8.0883   10.1912  -21.9762 H   0  0  0  0  0  0
  1  2  2  0  0  0
  1  3  1  0  0  0
  1 34  1  0  0  0
  2  6  1  0  0  0
  2 35  1  0  0  0
  3  5  2  0  0  0
  3 27  1  0  0  0
  4  5  1  0  0  0
  4  6  2  0  0  0
  4 18  1  0  0  0
  5 24  1  0  0  0
  6 10  1  0  0  0
  7 10  2  0  0  0
  7 23  1  0  0  0
  7 33  1  0  0  0
  8 21  1  0  0  0
  8 22  1  0  0  0
  8 36  1  0  0  0
  8 37  1  0  0  0
  9 21  1  0  0  0
  9 31  1  0  0  0
  9 38  1  0  0  0
  9 39  1  0  0  0
 10 40  1  0  0  0
 11 12  2  0  0  0
 11 14  1  0  0  0
 11 15  1  0  0  0
 12 17  1  0  0  0
 12 28  1  0  0  0
 13 28  2  0  0  0
 13 29  1  0  0  0
 13 56  1  0  0  0
 14 29  2  0  0  0
 14 31  1  0  0  0
 15 30  2  0  0  0
 15 41  1  0  0  0
 16 17  2  0  0  0
 16 18  1  0  0  0
 16 30  1  0  0  0
 17 26  1  0  0  0
 18 23  2  0  0  0
 19 20  1  0  0  0
 19 31  1  0  0  0
 19 42  1  0  0  0
 19 43  1  0  0  0
 20 22  1  0  0  0
 20 32  1  0  0  0
 20 44  1  0  0  0
 21 32  1  0  0  0
 21 45  1  0  0  0
 22 46  1  0  0  0
 22 47  1  0  0  0
 23 48  1  0  0  0
 24 25  3  0  0  0
 25 49  1  0  0  0
 32 50  1  0  0  0
 33 51  1  0  0  0
 52 55  1  0  0  0
 52 56  1  0  0  0
 52 60  1  0  0  0
 53 57  1  0  0  0
 53 58  1  0  0  0
 53 61  1  0  0  0
 54 57  1  0  0  0
 54 59  1  0  0  0
 54 62  1  0  0  0
 55 57  1  0  0  0
 55 63  1  0  0  0
 55 64  1  0  0  0
 56 65  1  0  0  0
 56 66  1  0  0  0
 58 59  2  0  0  0
 58 67  1  0  0  0
 59 68  1  0  0  0
M  END
> <s_m_entry_id>
435

> <s_m_entry_name>
000000435.1

> <s_m_Source_Path>
/Users/zaksoul/Documents/2

> <s_m_Source_File>
000000435.mol2

> <i_m_Source_File_Index>
1

$$$$
No_0_459
                    3D
 Schrodinger Suite 2022-4.
 68 74  0  0  1  0            999 V2000
   -5.3490    3.4500  -22.0450 C   0  0  0  0  0  0
   -5.6060    3.6460  -23.3810 C   0  0  0  0  0  0
   -4.1100    3.2160  -21.6950 C   0  0  0  0  0  0
   -3.2010    3.3750  -23.8510 C   0  0  0  0  0  0
   -3.0490    3.1220  -22.4310 C   0  0  0  0  0  0
   -4.5480    3.6190  -24.3820 C   0  0  0  0  0  0
   -3.7740    3.6720  -26.5730 C   0  0  0  0  0  0
    5.9190    3.0610  -21.2250 C   0  0  0  0  0  0
    5.8000    3.2220  -23.7750 C   0  0  0  0  0  0
   -4.7900    3.7530  -25.7190 C   0  0  0  0  0  0
    2.0070    3.7050  -23.8220 C   0  0  0  0  0  0
    1.1650    4.7970  -23.5220 C   0  0  0  0  0  0
    2.9360    6.0170  -22.8150 C   0  0  0  0  0  0
    3.4010    3.9170  -23.4950 C   0  0  0  0  0  0
    1.4860    2.5840  -24.4970 C   0  0  0  0  0  0
   -0.6560    3.3600  -24.4000 C   0  0  0  0  0  0
   -0.1550    4.5840  -23.7860 C   0  0  0  0  0  0
   -2.1050    3.3440  -24.7670 C   0  0  0  0  0  0
    4.0470    1.4280  -23.2180 C   0  0  0  0  0  0
    4.9760    1.0780  -22.0660 C   0  0  2  0  0  0
    6.5470    2.6510  -22.5750 C   0  0  2  0  0  0
    4.9310    2.0700  -20.8900 C   0  0  0  0  0  0
   -2.4210    3.5100  -26.1970 C   0  0  0  0  0  0
   -1.7030    2.7270  -21.8240 C   0  0  0  0  0  0
   -0.6710    2.3920  -21.3120 C   0  0  0  0  0  0
   -1.0180    5.6120  -23.4410 F   0  0  0  0  0  0
   -3.9080    2.9650  -20.3130 F   0  0  0  0  0  0
    1.6170    5.9590  -22.9760 N   0  0  0  0  0  0
    3.8510    5.0720  -23.0350 N   0  0  0  0  0  0
    0.1840    2.4750  -24.8150 N   0  0  0  0  0  0
    4.3390    2.8870  -23.6720 N   0  0  0  0  0  0
    6.3860    1.1740  -22.5350 N   0  0  1  0  0  0
   -3.9350    3.6950  -27.9640 O   0  0  0  0  0  0
   -6.1582    3.4942  -21.3251 H   0  0  0  0  0  0
   -6.6208    3.8257  -23.7172 H   0  0  0  0  0  0
    5.4314    4.0413  -21.3310 H   0  0  0  0  0  0
    6.6977    3.0782  -20.4483 H   0  0  0  0  0  0
    6.2107    2.7921  -24.7004 H   0  0  0  0  0  0
    5.9251    4.3146  -23.7972 H   0  0  0  0  0  0
   -5.8001    3.9237  -26.0734 H   0  0  0  0  0  0
    2.1424    1.7691  -24.7800 H   0  0  0  0  0  0
    3.0025    1.3503  -22.8819 H   0  0  0  0  0  0
    4.2287    0.7397  -24.0566 H   0  0  0  0  0  0
    4.7660    0.0594  -21.7076 H   0  0  0  0  0  0
    7.6114    2.9264  -22.6093 H   0  0  0  0  0  0
    3.9388    2.5434  -20.8516 H   0  0  0  0  0  0
    5.2317    1.5533  -19.9666 H   0  0  0  0  0  0
   -1.6440    3.5100  -26.9529 H   0  0  0  0  0  0
    0.2373    2.0979  -20.8608 H   0  0  0  0  0  0
    7.0356    0.6814  -21.8266 H   0  0  0  0  0  0
   -3.0850    3.6257  -28.3826 H   0  0  0  0  0  0
    3.4480    7.4500  -20.8270 N   0  0  1  0  0  0
    6.4740    8.1690  -20.3220 N   0  0  0  0  0  0
    5.8510    9.8700  -21.5220 N   0  0  0  0  0  0
    4.0130    8.7210  -20.2470 C   0  0  0  0  0  0
    3.4680    7.3620  -22.3310 C   0  0  0  0  0  0
    5.4500    8.9310  -20.6830 C   0  0  0  0  0  0
    7.5680    8.6730  -20.9950 C   0  0  0  0  0  0
    7.1950    9.7160  -21.7300 C   0  0  0  0  0  0
    4.0133    6.6045  -20.4638 H   0  0  0  0  0  0
    6.3290    7.3918  -19.6618 H   0  0  0  0  0  0
    5.1749   10.5521  -21.8941 H   0  0  0  0  0  0
    3.9670    8.6750  -19.1489 H   0  0  0  0  0  0
    3.4028    9.5762  -20.5731 H   0  0  0  0  0  0
    4.4979    7.5000  -22.6920 H   0  0  0  0  0  0
    2.8552    8.1717  -22.7539 H   0  0  0  0  0  0
    8.5408    8.2111  -20.8710 H   0  0  0  0  0  0
    7.7219   10.3908  -22.3949 H   0  0  0  0  0  0
  1  2  2  0  0  0
  1  3  1  0  0  0
  1 34  1  0  0  0
  2  6  1  0  0  0
  2 35  1  0  0  0
  3  5  2  0  0  0
  3 27  1  0  0  0
  4  5  1  0  0  0
  4  6  2  0  0  0
  4 18  1  0  0  0
  5 24  1  0  0  0
  6 10  1  0  0  0
  7 10  2  0  0  0
  7 23  1  0  0  0
  7 33  1  0  0  0
  8 21  1  0  0  0
  8 22  1  0  0  0
  8 36  1  0  0  0
  8 37  1  0  0  0
  9 21  1  0  0  0
  9 31  1  0  0  0
  9 38  1  0  0  0
  9 39  1  0  0  0
 10 40  1  0  0  0
 11 12  2  0  0  0
 11 14  1  0  0  0
 11 15  1  0  0  0
 12 17  1  0  0  0
 12 28  1  0  0  0
 13 28  2  0  0  0
 13 29  1  0  0  0
 13 56  1  0  0  0
 14 29  2  0  0  0
 14 31  1  0  0  0
 15 30  2  0  0  0
 15 41  1  0  0  0
 16 17  2  0  0  0
 16 18  1  0  0  0
 16 30  1  0  0  0
 17 26  1  0  0  0
 18 23  2  0  0  0
 19 20  1  0  0  0
 19 31  1  0  0  0
 19 42  1  0  0  0
 19 43  1  0  0  0
 20 22  1  0  0  0
 20 32  1  0  0  0
 20 44  1  0  0  0
 21 32  1  0  0  0
 21 45  1  0  0  0
 22 46  1  0  0  0
 22 47  1  0  0  0
 23 48  1  0  0  0
 24 25  3  0  0  0
 25 49  1  0  0  0
 32 50  1  0  0  0
 33 51  1  0  0  0
 52 55  1  0  0  0
 52 56  1  0  0  0
 52 60  1  0  0  0
 53 57  1  0  0  0
 53 58  1  0  0  0
 53 61  1  0  0  0
 54 57  1  0  0  0
 54 59  1  0  0  0
 54 62  1  0  0  0
 55 57  1  0  0  0
 55 63  1  0  0  0
 55 64  1  0  0  0
 56 65  1  0  0  0
 56 66  1  0  0  0
 58 59  2  0  0  0
 58 67  1  0  0  0
 59 68  1  0  0  0
M  END
> <s_m_entry_id>
436

> <s_m_entry_name>
000000436.1

> <s_m_Source_Path>
/Users/zaksoul/Documents/2

> <s_m_Source_File>
000000436.mol2

> <i_m_Source_File_Index>
1

$$$$
No_0_460
                    3D
 Schrodinger Suite 2022-4.
 68 74  0  0  1  0            999 V2000
   -5.2270    3.4620  -22.2710 C   0  0  0  0  0  0
   -5.4500    3.6330  -23.6170 C   0  0  0  0  0  0
   -3.9970    3.2350  -21.8860 C   0  0  0  0  0  0
   -3.0340    3.3580  -24.0210 C   0  0  0  0  0  0
   -2.9170    3.1300  -22.5930 C   0  0  0  0  0  0
   -4.3670    3.5900  -24.5900 C   0  0  0  0  0  0
   -3.5370    3.6050  -26.7610 C   0  0  0  0  0  0
    6.0170    3.1040  -21.1580 C   0  0  0  0  0  0
    5.9630    3.2200  -23.7120 C   0  0  0  0  0  0
   -4.5740    3.7000  -25.9350 C   0  0  0  0  0  0
    2.1720    3.6960  -23.8650 C   0  0  0  0  0  0
    1.3210    4.7920  -23.6050 C   0  0  0  0  0  0
    3.0720    6.0280  -22.8760 C   0  0  0  0  0  0
    3.5570    3.9160  -23.5060 C   0  0  0  0  0  0
    1.6700    2.5630  -24.5330 C   0  0  0  0  0  0
   -0.4750    3.3370  -24.5040 C   0  0  0  0  0  0
    0.0080    4.5720  -23.8990 C   0  0  0  0  0  0
   -1.9150    3.3120  -24.9080 C   0  0  0  0  0  0
    4.1980    1.4330  -23.1680 C   0  0  0  0  0  0
    5.0980    1.1060  -21.9870 C   0  0  2  0  0  0
    6.6800    2.6710  -22.4840 C   0  0  2  0  0  0
    5.0220    2.1180  -20.8310 C   0  0  0  0  0  0
   -2.1940    3.4520  -26.3480 C   0  0  0  0  0  0
   -1.5870    2.7480  -21.9450 C   0  0  0  0  0  0
   -0.5680    2.4240  -21.4000 C   0  0  0  0  0  0
   -0.8640    5.6050  -23.5950 F   0  0  0  0  0  0
   -3.8290    3.0100  -20.4950 F   0  0  0  0  0  0
    1.7580    5.9650  -23.0690 N   0  0  0  0  0  0
    3.9930    5.0800  -23.0560 N   0  0  0  0  0  0
    0.3760    2.4460  -24.8820 N   0  0  0  0  0  0
    4.5000    2.8840  -23.6410 N   0  0  0  0  0  0
    6.5190    1.1950  -22.4210 N   0  0  1  0  0  0
   -3.6620    3.6040  -28.1560 O   0  0  0  0  0  0
   -6.0546    3.5162  -21.5730 H   0  0  0  0  0  0
   -6.4558    3.8057  -23.9824 H   0  0  0  0  0  0
    5.5317    4.0817  -21.2942 H   0  0  0  0  0  0
    6.7761    3.1363  -20.3626 H   0  0  0  0  0  0
    6.3977    2.7742  -24.6188 H   0  0  0  0  0  0
    6.0872    4.3123  -23.7514 H   0  0  0  0  0  0
   -5.5753    3.8625  -26.3172 H   0  0  0  0  0  0
    2.3332    1.7433  -24.7848 H   0  0  0  0  0  0
    3.1451    1.3603  -22.8581 H   0  0  0  0  0  0
    4.4019    0.7305  -23.9896 H   0  0  0  0  0  0
    4.8801    0.0933  -21.6168 H   0  0  0  0  0  0
    7.7446    2.9475  -22.4961 H   0  0  0  0  0  0
    4.0285    2.5901  -20.8260 H   0  0  0  0  0  0
    5.2996    1.6183  -19.8912 H   0  0  0  0  0  0
   -1.3980    3.4400  -27.0838 H   0  0  0  0  0  0
    0.3289    2.1390  -20.9210 H   0  0  0  0  0  0
    7.1512    0.7157  -21.6882 H   0  0  0  0  0  0
   -2.8018    3.5278  -28.5519 H   0  0  0  0  0  0
    3.8760    7.3720  -20.9230 N   0  0  1  0  0  0
    6.8780    8.3280  -20.9810 N   0  0  0  0  0  0
    5.8930   10.0380  -21.8910 N   0  0  0  0  0  0
    4.4520    8.6500  -20.3680 C   0  0  0  0  0  0
    3.5900    7.3810  -22.4030 C   0  0  0  0  0  0
    5.7470    9.0160  -21.0670 C   0  0  0  0  0  0
    7.7670    8.9700  -21.8180 C   0  0  0  0  0  0
    7.1730   10.0190  -22.3770 C   0  0  0  0  0  0
    4.5663    6.5596  -20.7499 H   0  0  0  0  0  0
    6.9320    7.5004  -20.3703 H   0  0  0  0  0  0
    5.1047   10.6782  -22.0631 H   0  0  0  0  0  0
    4.6381    8.5299  -19.2905 H   0  0  0  0  0  0
    3.7241    9.4649  -20.4950 H   0  0  0  0  0  0
    4.5097    7.6339  -22.9508 H   0  0  0  0  0  0
    2.8441    8.1579  -22.6270 H   0  0  0  0  0  0
    8.7765    8.5912  -21.9299 H   0  0  0  0  0  0
    7.4981   10.7791  -23.0781 H   0  0  0  0  0  0
  1  2  2  0  0  0
  1  3  1  0  0  0
  1 34  1  0  0  0
  2  6  1  0  0  0
  2 35  1  0  0  0
  3  5  2  0  0  0
  3 27  1  0  0  0
  4  5  1  0  0  0
  4  6  2  0  0  0
  4 18  1  0  0  0
  5 24  1  0  0  0
  6 10  1  0  0  0
  7 10  2  0  0  0
  7 23  1  0  0  0
  7 33  1  0  0  0
  8 21  1  0  0  0
  8 22  1  0  0  0
  8 36  1  0  0  0
  8 37  1  0  0  0
  9 21  1  0  0  0
  9 31  1  0  0  0
  9 38  1  0  0  0
  9 39  1  0  0  0
 10 40  1  0  0  0
 11 12  2  0  0  0
 11 14  1  0  0  0
 11 15  1  0  0  0
 12 17  1  0  0  0
 12 28  1  0  0  0
 13 28  2  0  0  0
 13 29  1  0  0  0
 13 56  1  0  0  0
 14 29  2  0  0  0
 14 31  1  0  0  0
 15 30  2  0  0  0
 15 41  1  0  0  0
 16 17  2  0  0  0
 16 18  1  0  0  0
 16 30  1  0  0  0
 17 26  1  0  0  0
 18 23  2  0  0  0
 19 20  1  0  0  0
 19 31  1  0  0  0
 19 42  1  0  0  0
 19 43  1  0  0  0
 20 22  1  0  0  0
 20 32  1  0  0  0
 20 44  1  0  0  0
 21 32  1  0  0  0
 21 45  1  0  0  0
 22 46  1  0  0  0
 22 47  1  0  0  0
 23 48  1  0  0  0
 24 25  3  0  0  0
 25 49  1  0  0  0
 32 50  1  0  0  0
 33 51  1  0  0  0
 52 55  1  0  0  0
 52 56  1  0  0  0
 52 60  1  0  0  0
 53 57  1  0  0  0
 53 58  1  0  0  0
 53 61  1  0  0  0
 54 57  1  0  0  0
 54 59  1  0  0  0
 54 62  1  0  0  0
 55 57  1  0  0  0
 55 63  1  0  0  0
 55 64  1  0  0  0
 56 65  1  0  0  0
 56 66  1  0  0  0
 58 59  2  0  0  0
 58 67  1  0  0  0
 59 68  1  0  0  0
M  END
> <s_m_entry_id>
437

> <s_m_entry_name>
000000437.1

> <s_m_Source_Path>
/Users/zaksoul/Documents/2

> <s_m_Source_File>
000000437.mol2

> <i_m_Source_File_Index>
1

$$$$
No_0_461
                    3D
 Schrodinger Suite 2022-4.
 68 74  0  0  1  0            999 V2000
   -5.1940    3.5850  -22.2000 C   0  0  0  0  0  0
   -5.4010    3.7760  -23.5460 C   0  0  0  0  0  0
   -3.9740    3.3220  -21.8070 C   0  0  0  0  0  0
   -2.9890    3.4440  -23.9320 C   0  0  0  0  0  0
   -2.8910    3.1970  -22.5060 C   0  0  0  0  0  0
   -4.3110    3.7170  -24.5100 C   0  0  0  0  0  0
   -3.4620    3.7340  -26.6740 C   0  0  0  0  0  0
    6.0260    2.9240  -20.9950 C   0  0  0  0  0  0
    5.9980    3.0700  -23.5480 C   0  0  0  0  0  0
   -4.5040    3.8470  -25.8550 C   0  0  0  0  0  0
    2.2220    3.6450  -23.7270 C   0  0  0  0  0  0
    1.3970    4.7600  -23.4630 C   0  0  0  0  0  0
    3.1730    5.9420  -22.7050 C   0  0  0  0  0  0
    3.6090    3.8260  -23.3540 C   0  0  0  0  0  0
    1.6960    2.5330  -24.4130 C   0  0  0  0  0  0
   -0.4280    3.3620  -24.3930 C   0  0  0  0  0  0
    0.0820    4.5780  -23.7710 C   0  0  0  0  0  0
   -1.8640    3.3790  -24.8100 C   0  0  0  0  0  0
    4.1830    1.3230  -23.0390 C   0  0  0  0  0  0
    5.0640    0.9600  -21.8540 C   0  0  2  0  0  0
    6.6900    2.4890  -22.3190 C   0  0  2  0  0  0
    5.0030    1.9600  -20.6870 C   0  0  0  0  0  0
   -2.1260    3.5420  -26.2500 C   0  0  0  0  0  0
   -1.5770    2.7730  -21.8500 C   0  0  0  0  0  0
   -0.5720    2.4170  -21.3010 C   0  0  0  0  0  0
   -0.7660    5.6290  -23.4610 F   0  0  0  0  0  0
   -3.8250    3.0770  -20.4170 F   0  0  0  0  0  0
    1.8590    5.9150  -22.9100 N   0  0  0  0  0  0
    4.0710    4.9730  -22.8870 N   0  0  0  0  0  0
    0.4040    2.4530  -24.7740 N   0  0  0  0  0  0
    4.5260    2.7710  -23.4930 N   0  0  0  0  0  0
    6.4900    1.0170  -22.2750 N   0  0  1  0  0  0
   -3.5740    3.7520  -28.0690 O   0  0  0  0  0  0
   -6.0260    3.6532  -21.5085 H   0  0  0  0  0  0
   -6.3991    3.9786  -23.9172 H   0  0  0  0  0  0
    5.5679    3.9158  -21.1231 H   0  0  0  0  0  0
    6.7782    2.9280  -20.1924 H   0  0  0  0  0  0
    6.4288    2.6230  -24.4561 H   0  0  0  0  0  0
    6.1504    4.1591  -23.5732 H   0  0  0  0  0  0
   -5.4970    4.0398  -26.2446 H   0  0  0  0  0  0
    2.3413    1.7001  -24.6679 H   0  0  0  0  0  0
    3.1258    1.2745  -22.7391 H   0  0  0  0  0  0
    4.3758    0.6245  -23.8666 H   0  0  0  0  0  0
    4.8169   -0.0507  -21.4969 H   0  0  0  0  0  0
    7.7614    2.7384  -22.3200 H   0  0  0  0  0  0
    4.0220    2.4576  -20.6860 H   0  0  0  0  0  0
    5.2594    1.4432  -19.7504 H   0  0  0  0  0  0
   -1.3249    3.5169  -26.9798 H   0  0  0  0  0  0
    0.3129    2.1040  -20.8171 H   0  0  0  0  0  0
    7.1032    0.5138  -21.5421 H   0  0  0  0  0  0
   -2.7125    3.6579  -28.4582 H   0  0  0  0  0  0
    4.3940    7.1310  -20.8710 N   0  0  1  0  0  0
    7.2110    8.3500  -21.5830 N   0  0  0  0  0  0
    5.9230   10.0560  -21.9770 N   0  0  0  0  0  0
    5.0250    8.3860  -20.3250 C   0  0  0  0  0  0
    3.7220    7.2760  -22.2110 C   0  0  0  0  0  0
    6.0610    8.9400  -21.2820 C   0  0  0  0  0  0
    7.8050    9.1570  -22.5320 C   0  0  0  0  0  0
    7.0240   10.2030  -22.7770 C   0  0  0  0  0  0
    5.1506    6.3694  -20.9891 H   0  0  0  0  0  0
    7.4740    7.4689  -21.1189 H   0  0  0  0  0  0
    5.0820   10.6380  -21.8550 H   0  0  0  0  0  0
    5.4999    8.1671  -19.3572 H   0  0  0  0  0  0
    4.2454    9.1426  -20.1521 H   0  0  0  0  0  0
    4.4442    7.6681  -22.9422 H   0  0  0  0  0  0
    2.9002    8.0029  -22.1320 H   0  0  0  0  0  0
    8.7669    8.8830  -22.9500 H   0  0  0  0  0  0
    7.1050   11.0616  -23.4337 H   0  0  0  0  0  0
  1  2  2  0  0  0
  1  3  1  0  0  0
  1 34  1  0  0  0
  2  6  1  0  0  0
  2 35  1  0  0  0
  3  5  2  0  0  0
  3 27  1  0  0  0
  4  5  1  0  0  0
  4  6  2  0  0  0
  4 18  1  0  0  0
  5 24  1  0  0  0
  6 10  1  0  0  0
  7 10  2  0  0  0
  7 23  1  0  0  0
  7 33  1  0  0  0
  8 21  1  0  0  0
  8 22  1  0  0  0
  8 36  1  0  0  0
  8 37  1  0  0  0
  9 21  1  0  0  0
  9 31  1  0  0  0
  9 38  1  0  0  0
  9 39  1  0  0  0
 10 40  1  0  0  0
 11 12  2  0  0  0
 11 14  1  0  0  0
 11 15  1  0  0  0
 12 17  1  0  0  0
 12 28  1  0  0  0
 13 28  2  0  0  0
 13 29  1  0  0  0
 13 56  1  0  0  0
 14 29  2  0  0  0
 14 31  1  0  0  0
 15 30  2  0  0  0
 15 41  1  0  0  0
 16 17  2  0  0  0
 16 18  1  0  0  0
 16 30  1  0  0  0
 17 26  1  0  0  0
 18 23  2  0  0  0
 19 20  1  0  0  0
 19 31  1  0  0  0
 19 42  1  0  0  0
 19 43  1  0  0  0
 20 22  1  0  0  0
 20 32  1  0  0  0
 20 44  1  0  0  0
 21 32  1  0  0  0
 21 45  1  0  0  0
 22 46  1  0  0  0
 22 47  1  0  0  0
 23 48  1  0  0  0
 24 25  3  0  0  0
 25 49  1  0  0  0
 32 50  1  0  0  0
 33 51  1  0  0  0
 52 55  1  0  0  0
 52 56  1  0  0  0
 52 60  1  0  0  0
 53 57  1  0  0  0
 53 58  1  0  0  0
 53 61  1  0  0  0
 54 57  1  0  0  0
 54 59  1  0  0  0
 54 62  1  0  0  0
 55 57  1  0  0  0
 55 63  1  0  0  0
 55 64  1  0  0  0
 56 65  1  0  0  0
 56 66  1  0  0  0
 58 59  2  0  0  0
 58 67  1  0  0  0
 59 68  1  0  0  0
M  END
> <s_m_entry_id>
438

> <s_m_entry_name>
000000438.1

> <s_m_Source_Path>
/Users/zaksoul/Documents/2

> <s_m_Source_File>
000000438.mol2

> <i_m_Source_File_Index>
1

$$$$
No_0_462
                    3D
 Schrodinger Suite 2022-4.
 68 74  0  0  1  0            999 V2000
   -5.3740    3.4830  -22.0330 C   0  0  0  0  0  0
   -5.6180    3.6490  -23.3750 C   0  0  0  0  0  0
   -4.1400    3.2440  -21.6660 C   0  0  0  0  0  0
   -3.2120    3.3430  -23.8180 C   0  0  0  0  0  0
   -3.0750    3.1210  -22.3910 C   0  0  0  0  0  0
   -4.5520    3.5880  -24.3660 C   0  0  0  0  0  0
   -3.7580    3.5810  -26.5510 C   0  0  0  0  0  0
    5.8810    2.9960  -21.1050 C   0  0  0  0  0  0
    5.7870    3.0980  -23.6580 C   0  0  0  0  0  0
   -4.7800    3.6930  -25.7080 C   0  0  0  0  0  0
    1.9990    3.6190  -23.7500 C   0  0  0  0  0  0
    1.1660    4.7270  -23.4830 C   0  0  0  0  0  0
    2.9440    5.9450  -22.7900 C   0  0  0  0  0  0
    3.3930    3.8250  -23.4160 C   0  0  0  0  0  0
    1.4720    2.4880  -24.4040 C   0  0  0  0  0  0
   -0.6620    3.2880  -24.3430 C   0  0  0  0  0  0
   -0.1540    4.5210  -23.7540 C   0  0  0  0  0  0
   -2.1090    3.2790  -24.7230 C   0  0  0  0  0  0
    4.0100    1.3360  -23.0750 C   0  0  0  0  0  0
    4.9250    1.0040  -21.9060 C   0  0  2  0  0  0
    6.5170    2.5480  -22.4390 C   0  0  2  0  0  0
    4.8800    2.0230  -20.7550 C   0  0  0  0  0  0
   -2.4100    3.4140  -26.1590 C   0  0  0  0  0  0
   -1.7380    2.7270  -21.7630 C   0  0  0  0  0  0
   -0.7140    2.3940  -21.2330 C   0  0  0  0  0  0
   -1.0090    5.5660  -23.4400 F   0  0  0  0  0  0
   -3.9530    3.0240  -20.2770 F   0  0  0  0  0  0
    1.6260    5.8970  -22.9610 N   0  0  0  0  0  0
    3.8500    4.9850  -22.9800 N   0  0  0  0  0  0
    0.1720    2.3850  -24.7300 N   0  0  0  0  0  0
    4.3210    2.7810  -23.5600 N   0  0  0  0  0  0
    6.3400    1.0740  -22.3650 N   0  0  1  0  0  0
   -3.9060    3.5740  -27.9440 O   0  0  0  0  0  0
   -6.1889    3.5512  -21.3214 H   0  0  0  0  0  0
   -6.6278    3.8317  -23.7243 H   0  0  0  0  0  0
    5.4056    3.9790  -21.2382 H   0  0  0  0  0  0
    6.6535    3.0232  -20.3224 H   0  0  0  0  0  0
    6.2008    2.6418  -24.5694 H   0  0  0  0  0  0
    5.9232    4.1885  -23.7054 H   0  0  0  0  0  0
   -5.7855    3.8656  -26.0743 H   0  0  0  0  0  0
    2.1217    1.6595  -24.6621 H   0  0  0  0  0  0
    2.9616    1.2775  -22.7471 H   0  0  0  0  0  0
    4.1917    0.6264  -23.8956 H   0  0  0  0  0  0
    4.7020   -0.0041  -21.5266 H   0  0  0  0  0  0
    7.5846    2.8114  -22.4703 H   0  0  0  0  0  0
    3.8927    2.5076  -20.7368 H   0  0  0  0  0  0
    5.1677    1.5253  -19.8172 H   0  0  0  0  0  0
   -1.6268    3.3879  -26.9080 H   0  0  0  0  0  0
    0.1875    2.1008  -20.7677 H   0  0  0  0  0  0
    6.9783    0.5907  -21.6401 H   0  0  0  0  0  0
   -3.0532    3.4849  -28.3531 H   0  0  0  0  0  0
    4.4890    7.1350  -21.2200 N   0  0  1  0  0  0
    6.9160    8.6830  -22.5000 N   0  0  0  0  0  0
    5.4310   10.2670  -22.4090 N   0  0  0  0  0  0
    5.1300    8.4110  -20.7390 C   0  0  0  0  0  0
    3.4860    7.2950  -22.3330 C   0  0  0  0  0  0
    5.8360    9.1300  -21.8720 C   0  0  0  0  0  0
    7.1770    9.6060  -23.4920 C   0  0  0  0  0  0
    6.2740   10.5800  -23.4420 C   0  0  0  0  0  0
    5.2510    6.4650  -21.5900 H   0  0  0  0  0  0
    7.3629    7.8062  -22.1961 H   0  0  0  0  0  0
    4.6040   10.7500  -22.0300 H   0  0  0  0  0  0
    5.8543    8.1809  -19.9437 H   0  0  0  0  0  0
    4.3598    9.0701  -20.3119 H   0  0  0  0  0  0
    3.9611    7.8062  -23.1833 H   0  0  0  0  0  0
    2.6536    7.9255  -21.9873 H   0  0  0  0  0  0
    8.0196    9.4621  -24.1587 H   0  0  0  0  0  0
    6.1109   11.4823  -24.0202 H   0  0  0  0  0  0
  1  2  2  0  0  0
  1  3  1  0  0  0
  1 34  1  0  0  0
  2  6  1  0  0  0
  2 35  1  0  0  0
  3  5  2  0  0  0
  3 27  1  0  0  0
  4  5  1  0  0  0
  4  6  2  0  0  0
  4 18  1  0  0  0
  5 24  1  0  0  0
  6 10  1  0  0  0
  7 10  2  0  0  0
  7 23  1  0  0  0
  7 33  1  0  0  0
  8 21  1  0  0  0
  8 22  1  0  0  0
  8 36  1  0  0  0
  8 37  1  0  0  0
  9 21  1  0  0  0
  9 31  1  0  0  0
  9 38  1  0  0  0
  9 39  1  0  0  0
 10 40  1  0  0  0
 11 12  2  0  0  0
 11 14  1  0  0  0
 11 15  1  0  0  0
 12 17  1  0  0  0
 12 28  1  0  0  0
 13 28  2  0  0  0
 13 29  1  0  0  0
 13 56  1  0  0  0
 14 29  2  0  0  0
 14 31  1  0  0  0
 15 30  2  0  0  0
 15 41  1  0  0  0
 16 17  2  0  0  0
 16 18  1  0  0  0
 16 30  1  0  0  0
 17 26  1  0  0  0
 18 23  2  0  0  0
 19 20  1  0  0  0
 19 31  1  0  0  0
 19 42  1  0  0  0
 19 43  1  0  0  0
 20 22  1  0  0  0
 20 32  1  0  0  0
 20 44  1  0  0  0
 21 32  1  0  0  0
 21 45  1  0  0  0
 22 46  1  0  0  0
 22 47  1  0  0  0
 23 48  1  0  0  0
 24 25  3  0  0  0
 25 49  1  0  0  0
 32 50  1  0  0  0
 33 51  1  0  0  0
 52 55  1  0  0  0
 52 56  1  0  0  0
 52 60  1  0  0  0
 53 57  1  0  0  0
 53 58  1  0  0  0
 53 61  1  0  0  0
 54 57  1  0  0  0
 54 59  1  0  0  0
 54 62  1  0  0  0
 55 57  1  0  0  0
 55 63  1  0  0  0
 55 64  1  0  0  0
 56 65  1  0  0  0
 56 66  1  0  0  0
 58 59  2  0  0  0
 58 67  1  0  0  0
 59 68  1  0  0  0
M  END
> <s_m_entry_id>
439

> <s_m_entry_name>
000000439.1

> <s_m_Source_Path>
/Users/zaksoul/Documents/2

> <s_m_Source_File>
000000439.mol2

> <i_m_Source_File_Index>
1

$$$$
No_0_463
                    3D
 Schrodinger Suite 2022-4.
 68 74  0  0  1  0            999 V2000
   -5.2170    3.2550  -22.0350 C   0  0  0  0  0  0
   -5.4610    3.4430  -23.3740 C   0  0  0  0  0  0
   -3.9790    3.0370  -21.6690 C   0  0  0  0  0  0
   -3.0470    3.2020  -23.8150 C   0  0  0  0  0  0
   -2.9090    2.9550  -22.3930 C   0  0  0  0  0  0
   -4.3910    3.4270  -24.3630 C   0  0  0  0  0  0
   -3.5910    3.4840  -26.5450 C   0  0  0  0  0  0
    6.0440    3.0150  -21.0800 C   0  0  0  0  0  0
    5.9540    3.1670  -23.6310 C   0  0  0  0  0  0
   -4.6180    3.5540  -25.7020 C   0  0  0  0  0  0
    2.1560    3.6000  -23.7250 C   0  0  0  0  0  0
    1.2960    4.6820  -23.4380 C   0  0  0  0  0  0
    3.0420    5.9280  -22.7150 C   0  0  0  0  0  0
    3.5430    3.8320  -23.3820 C   0  0  0  0  0  0
    1.6570    2.4710  -24.4030 C   0  0  0  0  0  0
   -0.4950    3.2190  -24.3330 C   0  0  0  0  0  0
   -0.0180    4.4510  -23.7170 C   0  0  0  0  0  0
   -1.9400    3.1830  -24.7180 C   0  0  0  0  0  0
    4.2180    1.3520  -23.0890 C   0  0  0  0  0  0
    5.1380    1.0180  -21.9250 C   0  0  2  0  0  0
    6.6940    2.6090  -22.4210 C   0  0  2  0  0  0
    5.0650    2.0120  -20.7540 C   0  0  0  0  0  0
   -2.2410    3.3400  -26.1510 C   0  0  0  0  0  0
   -1.5650    2.5790  -21.7680 C   0  0  0  0  0  0
   -0.5350    2.2600  -21.2420 C   0  0  0  0  0  0
   -0.8990    5.4690  -23.3850 F   0  0  0  0  0  0
   -3.7900    2.7940  -20.2840 F   0  0  0  0  0  0
    1.7260    5.8520  -22.8910 N   0  0  0  0  0  0
    3.9720    4.9940  -22.9210 N   0  0  0  0  0  0
    0.3610    2.3440  -24.7360 N   0  0  0  0  0  0
    4.4960    2.8130  -23.5450 N   0  0  0  0  0  0
    6.5520    1.1300  -22.3780 N   0  0  1  0  0  0
   -3.7360    3.5010  -27.9370 O   0  0  0  0  0  0
   -6.0349    3.2891  -21.3245 H   0  0  0  0  0  0
   -6.4737    3.6086  -23.7233 H   0  0  0  0  0  0
    5.5455    3.9888  -21.1950 H   0  0  0  0  0  0
    6.8134    3.0453  -20.2944 H   0  0  0  0  0  0
    6.3809    2.7401  -24.5505 H   0  0  0  0  0  0
    6.0650    4.2611  -23.6562 H   0  0  0  0  0  0
   -5.6262    3.7105  -26.0682 H   0  0  0  0  0  0
    2.3269    1.6637  -24.6758 H   0  0  0  0  0  0
    3.1703    1.2622  -22.7660 H   0  0  0  0  0  0
    4.4188    0.6639  -23.9234 H   0  0  0  0  0  0
    4.9371   -0.0024  -21.5667 H   0  0  0  0  0  0
    7.7549    2.8987  -22.4442 H   0  0  0  0  0  0
    4.0663    2.4725  -20.7288 H   0  0  0  0  0  0
    5.3617    1.5023  -19.8255 H   0  0  0  0  0  0
   -1.4557    3.3480  -26.8982 H   0  0  0  0  0  0
    0.3720    1.9790  -20.7800 H   0  0  0  0  0  0
    7.1994    0.6485  -21.6600 H   0  0  0  0  0  0
   -2.8804    3.4407  -28.3455 H   0  0  0  0  0  0
    4.7950    7.1300  -21.3920 N   0  0  1  0  0  0
    6.7080    9.0660  -22.9790 N   0  0  0  0  0  0
    5.1480   10.4520  -22.3720 N   0  0  0  0  0  0
    5.4120    8.4200  -20.9140 C   0  0  0  0  0  0
    3.5510    7.2810  -22.2280 C   0  0  0  0  0  0
    5.7680    9.3220  -22.0790 C   0  0  0  0  0  0
    6.6470   10.1060  -23.8850 C   0  0  0  0  0  0
    5.6960   10.9580  -23.5190 C   0  0  0  0  0  0
    5.5084    6.5927  -21.9993 H   0  0  0  0  0  0
    7.2912    8.2218  -22.8890 H   0  0  0  0  0  0
    4.3911   10.7960  -21.7640 H   0  0  0  0  0  0
    6.3180    8.1980  -20.3310 H   0  0  0  0  0  0
    4.7053    8.9398  -20.2503 H   0  0  0  0  0  0
    3.7681    7.9232  -23.0943 H   0  0  0  0  0  0
    2.7677    7.7742  -21.6337 H   0  0  0  0  0  0
    7.3220   10.1250  -24.7330 H   0  0  0  0  0  0
    5.3232   11.8875  -23.9338 H   0  0  0  0  0  0
  1  2  2  0  0  0
  1  3  1  0  0  0
  1 34  1  0  0  0
  2  6  1  0  0  0
  2 35  1  0  0  0
  3  5  2  0  0  0
  3 27  1  0  0  0
  4  5  1  0  0  0
  4  6  2  0  0  0
  4 18  1  0  0  0
  5 24  1  0  0  0
  6 10  1  0  0  0
  7 10  2  0  0  0
  7 23  1  0  0  0
  7 33  1  0  0  0
  8 21  1  0  0  0
  8 22  1  0  0  0
  8 36  1  0  0  0
  8 37  1  0  0  0
  9 21  1  0  0  0
  9 31  1  0  0  0
  9 38  1  0  0  0
  9 39  1  0  0  0
 10 40  1  0  0  0
 11 12  2  0  0  0
 11 14  1  0  0  0
 11 15  1  0  0  0
 12 17  1  0  0  0
 12 28  1  0  0  0
 13 28  2  0  0  0
 13 29  1  0  0  0
 13 56  1  0  0  0
 14 29  2  0  0  0
 14 31  1  0  0  0
 15 30  2  0  0  0
 15 41  1  0  0  0
 16 17  2  0  0  0
 16 18  1  0  0  0
 16 30  1  0  0  0
 17 26  1  0  0  0
 18 23  2  0  0  0
 19 20  1  0  0  0
 19 31  1  0  0  0
 19 42  1  0  0  0
 19 43  1  0  0  0
 20 22  1  0  0  0
 20 32  1  0  0  0
 20 44  1  0  0  0
 21 32  1  0  0  0
 21 45  1  0  0  0
 22 46  1  0  0  0
 22 47  1  0  0  0
 23 48  1  0  0  0
 24 25  3  0  0  0
 25 49  1  0  0  0
 32 50  1  0  0  0
 33 51  1  0  0  0
 52 55  1  0  0  0
 52 56  1  0  0  0
 52 60  1  0  0  0
 53 57  1  0  0  0
 53 58  1  0  0  0
 53 61  1  0  0  0
 54 57  1  0  0  0
 54 59  1  0  0  0
 54 62  1  0  0  0
 55 57  1  0  0  0
 55 63  1  0  0  0
 55 64  1  0  0  0
 56 65  1  0  0  0
 56 66  1  0  0  0
 58 59  2  0  0  0
 58 67  1  0  0  0
 59 68  1  0  0  0
M  END
> <s_m_entry_id>
440

> <s_m_entry_name>
000000440.1

> <s_m_Source_Path>
/Users/zaksoul/Documents/2

> <s_m_Source_File>
000000440.mol2

> <i_m_Source_File_Index>
1

$$$$
No_0_464
                    3D
 Schrodinger Suite 2022-4.
 68 74  0  0  1  0            999 V2000
   -5.3840    3.4270  -22.0030 C   0  0  0  0  0  0
   -5.6190    3.6260  -23.3430 C   0  0  0  0  0  0
   -4.1500    3.1940  -21.6330 C   0  0  0  0  0  0
   -3.2060    3.3640  -23.7730 C   0  0  0  0  0  0
   -3.0770    3.1060  -22.3520 C   0  0  0  0  0  0
   -4.5440    3.6060  -24.3260 C   0  0  0  0  0  0
   -3.7330    3.6680  -26.5040 C   0  0  0  0  0  0
    5.8690    3.0640  -20.9940 C   0  0  0  0  0  0
    5.7940    3.2340  -23.5440 C   0  0  0  0  0  0
   -4.7640    3.7440  -25.6660 C   0  0  0  0  0  0
    2.0000    3.7070  -23.6550 C   0  0  0  0  0  0
    1.1500    4.7960  -23.3650 C   0  0  0  0  0  0
    2.9060    6.0190  -22.6240 C   0  0  0  0  0  0
    3.3880    3.9220  -23.3030 C   0  0  0  0  0  0
    1.4940    2.5870  -24.3420 C   0  0  0  0  0  0
   -0.6510    3.3570  -24.2780 C   0  0  0  0  0  0
   -0.1650    4.5810  -23.6520 C   0  0  0  0  0  0
   -2.0950    3.3390  -24.6710 C   0  0  0  0  0  0
    4.0360    1.4330  -23.0230 C   0  0  0  0  0  0
    4.9460    1.0820  -21.8570 C   0  0  2  0  0  0
    6.5220    2.6610  -22.3340 C   0  0  2  0  0  0
    4.8780    2.0690  -20.6790 C   0  0  0  0  0  0
   -2.3860    3.5090  -26.1050 C   0  0  0  0  0  0
   -1.7410    2.7120  -21.7230 C   0  0  0  0  0  0
   -0.7170    2.3790  -21.1940 C   0  0  0  0  0  0
   -1.0360    5.6050  -23.3180 F   0  0  0  0  0  0
   -3.9710    2.9400  -20.2490 F   0  0  0  0  0  0
    1.5900    5.9580  -22.8080 N   0  0  0  0  0  0
    3.8260    5.0770  -22.8320 N   0  0  0  0  0  0
    0.1980    2.4760  -24.6830 N   0  0  0  0  0  0
    4.3310    2.8950  -23.4680 N   0  0  0  0  0  0
    6.3640    1.1830  -22.3020 N   0  0  1  0  0  0
   -3.8700    3.6960  -27.8970 O   0  0  0  0  0  0
   -6.2060    3.4651  -21.2974 H   0  0  0  0  0  0
   -6.6285    3.8046  -23.6952 H   0  0  0  0  0  0
    5.3816    4.0439  -21.1050 H   0  0  0  0  0  0
    6.6350    3.0812  -20.2048 H   0  0  0  0  0  0
    6.2208    2.8082  -24.4641 H   0  0  0  0  0  0
    5.9151    4.3272  -23.5612 H   0  0  0  0  0  0
   -5.7686    3.9128  -26.0367 H   0  0  0  0  0  0
    2.1568    1.7746  -24.6172 H   0  0  0  0  0  0
    2.9857    1.3523  -22.7062 H   0  0  0  0  0  0
    4.2338    0.7489  -23.8614 H   0  0  0  0  0  0
    4.7330    0.0616  -21.5058 H   0  0  0  0  0  0
    7.5860    2.9396  -22.3502 H   0  0  0  0  0  0
    3.8843    2.5401  -20.6558 H   0  0  0  0  0  0
    5.1647    1.5502  -19.7524 H   0  0  0  0  0  0
   -1.5963    3.5130  -26.8476 H   0  0  0  0  0  0
    0.1845    2.0851  -20.7292 H   0  0  0  0  0  0
    7.0027    0.6898  -21.5842 H   0  0  0  0  0  0
   -3.0131    3.6297  -28.3017 H   0  0  0  0  0  0
    4.8340    7.2470  -21.6050 N   0  0  1  0  0  0
    6.2110    9.4650  -23.3680 N   0  0  0  0  0  0
    4.7460   10.6570  -22.2940 N   0  0  0  0  0  0
    5.4620    8.5380  -21.1450 C   0  0  0  0  0  0
    3.4260    7.3630  -22.1270 C   0  0  0  0  0  0
    5.4860    9.5630  -22.2620 C   0  0  0  0  0  0
    5.8810   10.5690  -24.1280 C   0  0  0  0  0  0
    4.9860   11.3050  -23.4760 C   0  0  0  0  0  0
    5.4229    6.8250  -22.4059 H   0  0  0  0  0  0
    6.8509    8.6681  -23.4960 H   0  0  0  0  0  0
    4.1268   10.8841  -21.5028 H   0  0  0  0  0  0
    6.4893    8.3439  -20.8029 H   0  0  0  0  0  0
    4.8929    8.9381  -20.2929 H   0  0  0  0  0  0
    3.3990    8.0932  -22.9492 H   0  0  0  0  0  0
    2.7694    7.7368  -21.3275 H   0  0  0  0  0  0
    6.3423   10.7181  -25.0976 H   0  0  0  0  0  0
    4.4706   12.2317  -23.7012 H   0  0  0  0  0  0
  1  2  2  0  0  0
  1  3  1  0  0  0
  1 34  1  0  0  0
  2  6  1  0  0  0
  2 35  1  0  0  0
  3  5  2  0  0  0
  3 27  1  0  0  0
  4  5  1  0  0  0
  4  6  2  0  0  0
  4 18  1  0  0  0
  5 24  1  0  0  0
  6 10  1  0  0  0
  7 10  2  0  0  0
  7 23  1  0  0  0
  7 33  1  0  0  0
  8 21  1  0  0  0
  8 22  1  0  0  0
  8 36  1  0  0  0
  8 37  1  0  0  0
  9 21  1  0  0  0
  9 31  1  0  0  0
  9 38  1  0  0  0
  9 39  1  0  0  0
 10 40  1  0  0  0
 11 12  2  0  0  0
 11 14  1  0  0  0
 11 15  1  0  0  0
 12 17  1  0  0  0
 12 28  1  0  0  0
 13 28  2  0  0  0
 13 29  1  0  0  0
 13 56  1  0  0  0
 14 29  2  0  0  0
 14 31  1  0  0  0
 15 30  2  0  0  0
 15 41  1  0  0  0
 16 17  2  0  0  0
 16 18  1  0  0  0
 16 30  1  0  0  0
 17 26  1  0  0  0
 18 23  2  0  0  0
 19 20  1  0  0  0
 19 31  1  0  0  0
 19 42  1  0  0  0
 19 43  1  0  0  0
 20 22  1  0  0  0
 20 32  1  0  0  0
 20 44  1  0  0  0
 21 32  1  0  0  0
 21 45  1  0  0  0
 22 46  1  0  0  0
 22 47  1  0  0  0
 23 48  1  0  0  0
 24 25  3  0  0  0
 25 49  1  0  0  0
 32 50  1  0  0  0
 33 51  1  0  0  0
 52 55  1  0  0  0
 52 56  1  0  0  0
 52 60  1  0  0  0
 53 57  1  0  0  0
 53 58  1  0  0  0
 53 61  1  0  0  0
 54 57  1  0  0  0
 54 59  1  0  0  0
 54 62  1  0  0  0
 55 57  1  0  0  0
 55 63  1  0  0  0
 55 64  1  0  0  0
 56 65  1  0  0  0
 56 66  1  0  0  0
 58 59  2  0  0  0
 58 67  1  0  0  0
 59 68  1  0  0  0
M  END
> <s_m_entry_id>
441

> <s_m_entry_name>
000000441.1

> <s_m_Source_Path>
/Users/zaksoul/Documents/2

> <s_m_Source_File>
000000441.mol2

> <i_m_Source_File_Index>
1

$$$$
No_0_465
                    3D
 Schrodinger Suite 2022-4.
 68 74  0  0  1  0            999 V2000
   -5.1730    3.3900  -22.1170 C   0  0  0  0  0  0
   -5.4120    3.5640  -23.4600 C   0  0  0  0  0  0
   -3.9350    3.1910  -21.7430 C   0  0  0  0  0  0
   -2.9930    3.3510  -23.8850 C   0  0  0  0  0  0
   -2.8600    3.1160  -22.4600 C   0  0  0  0  0  0
   -4.3360    3.5540  -24.4420 C   0  0  0  0  0  0
   -3.5250    3.6040  -26.6200 C   0  0  0  0  0  0
    6.0840    3.2980  -21.0990 C   0  0  0  0  0  0
    6.0070    3.4290  -23.6510 C   0  0  0  0  0  0
   -4.5580    3.6680  -25.7840 C   0  0  0  0  0  0
    2.2040    3.8140  -23.7700 C   0  0  0  0  0  0
    1.3290    4.8870  -23.4960 C   0  0  0  0  0  0
    3.0560    6.1600  -22.7730 C   0  0  0  0  0  0
    3.5860    4.0650  -23.4210 C   0  0  0  0  0  0
    1.7240    2.6730  -24.4410 C   0  0  0  0  0  0
   -0.4390    3.3950  -24.3890 C   0  0  0  0  0  0
    0.0190    4.6380  -23.7810 C   0  0  0  0  0  0
   -1.8810    3.3380  -24.7820 C   0  0  0  0  0  0
    4.2900    1.5960  -23.1050 C   0  0  0  0  0  0
    5.2080    1.2830  -21.9330 C   0  0  2  0  0  0
    6.7470    2.8890  -22.4320 C   0  0  2  0  0  0
    5.1160    2.2850  -20.7700 C   0  0  0  0  0  0
   -2.1750    3.4800  -26.2180 C   0  0  0  0  0  0
   -1.5150    2.7620  -21.8250 C   0  0  0  0  0  0
   -0.4840    2.4600  -21.2920 C   0  0  0  0  0  0
   -0.8750    5.6470  -23.4620 F   0  0  0  0  0  0
   -3.7510    2.9600  -20.3550 F   0  0  0  0  0  0
    1.7420    6.0660  -22.9560 N   0  0  0  0  0  0
    3.9980    5.2360  -22.9660 N   0  0  0  0  0  0
    0.4310    2.5270  -24.7810 N   0  0  0  0  0  0
    4.5530    3.0570  -23.5700 N   0  0  0  0  0  0
    6.6220    1.4090  -22.3790 N   0  0  1  0  0  0
   -3.6620    3.6080  -28.0140 O   0  0  0  0  0  0
   -5.9961    3.4201  -21.4123 H   0  0  0  0  0  0
   -6.4248    3.7156  -23.8153 H   0  0  0  0  0  0
    5.5744    4.2648  -21.2241 H   0  0  0  0  0  0
    6.8484    3.3434  -20.3093 H   0  0  0  0  0  0
    6.4437    2.9994  -24.5647 H   0  0  0  0  0  0
    6.1039    4.5242  -23.6843 H   0  0  0  0  0  0
   -5.5659    3.8085  -26.1574 H   0  0  0  0  0  0
    2.4049    1.8716  -24.7041 H   0  0  0  0  0  0
    3.2419    1.4961  -22.7862 H   0  0  0  0  0  0
    4.5040    0.9037  -23.9326 H   0  0  0  0  0  0
    5.0173    0.2631  -21.5678 H   0  0  0  0  0  0
    7.8043    3.1917  -22.4522 H   0  0  0  0  0  0
    4.1116    2.7332  -20.7538 H   0  0  0  0  0  0
    5.4137    1.7866  -19.8357 H   0  0  0  0  0  0
   -1.3853    3.4920  -26.9605 H   0  0  0  0  0  0
    0.4233    2.1939  -20.8218 H   0  0  0  0  0  0
    7.2718    0.9409  -21.6544 H   0  0  0  0  0  0
   -2.8032    3.5556  -28.4167 H   0  0  0  0  0  0
    5.0410    7.5370  -22.1150 N   0  0  1  0  0  0
    5.7480    9.9970  -23.9510 N   0  0  0  0  0  0
    4.4640   10.9500  -22.4790 N   0  0  0  0  0  0
    5.6300    8.8610  -21.7020 C   0  0  0  0  0  0
    3.5450    7.5230  -22.2940 C   0  0  0  0  0  0
    5.2940    9.9470  -22.7060 C   0  0  0  0  0  0
    5.1440   11.1000  -24.5220 C   0  0  0  0  0  0
    4.3590   11.6890  -23.6260 C   0  0  0  0  0  0
    5.4648    7.2322  -23.0605 H   0  0  0  0  0  0
    6.4143    9.2867  -24.2862 H   0  0  0  0  0  0
    4.0280   11.0580  -21.5521 H   0  0  0  0  0  0
    6.7227    8.7660  -21.6180 H   0  0  0  0  0  0
    5.2400    9.1430  -20.7129 H   0  0  0  0  0  0
    3.2570    8.2929  -23.0249 H   0  0  0  0  0  0
    3.0590    7.7720  -21.3391 H   0  0  0  0  0  0
    5.3500   11.3569  -25.5548 H   0  0  0  0  0  0
    3.7181   12.5629  -23.6510 H   0  0  0  0  0  0
  1  2  2  0  0  0
  1  3  1  0  0  0
  1 34  1  0  0  0
  2  6  1  0  0  0
  2 35  1  0  0  0
  3  5  2  0  0  0
  3 27  1  0  0  0
  4  5  1  0  0  0
  4  6  2  0  0  0
  4 18  1  0  0  0
  5 24  1  0  0  0
  6 10  1  0  0  0
  7 10  2  0  0  0
  7 23  1  0  0  0
  7 33  1  0  0  0
  8 21  1  0  0  0
  8 22  1  0  0  0
  8 36  1  0  0  0
  8 37  1  0  0  0
  9 21  1  0  0  0
  9 31  1  0  0  0
  9 38  1  0  0  0
  9 39  1  0  0  0
 10 40  1  0  0  0
 11 12  2  0  0  0
 11 14  1  0  0  0
 11 15  1  0  0  0
 12 17  1  0  0  0
 12 28  1  0  0  0
 13 28  2  0  0  0
 13 29  1  0  0  0
 13 56  1  0  0  0
 14 29  2  0  0  0
 14 31  1  0  0  0
 15 30  2  0  0  0
 15 41  1  0  0  0
 16 17  2  0  0  0
 16 18  1  0  0  0
 16 30  1  0  0  0
 17 26  1  0  0  0
 18 23  2  0  0  0
 19 20  1  0  0  0
 19 31  1  0  0  0
 19 42  1  0  0  0
 19 43  1  0  0  0
 20 22  1  0  0  0
 20 32  1  0  0  0
 20 44  1  0  0  0
 21 32  1  0  0  0
 21 45  1  0  0  0
 22 46  1  0  0  0
 22 47  1  0  0  0
 23 48  1  0  0  0
 24 25  3  0  0  0
 25 49  1  0  0  0
 32 50  1  0  0  0
 33 51  1  0  0  0
 52 55  1  0  0  0
 52 56  1  0  0  0
 52 60  1  0  0  0
 53 57  1  0  0  0
 53 58  1  0  0  0
 53 61  1  0  0  0
 54 57  1  0  0  0
 54 59  1  0  0  0
 54 62  1  0  0  0
 55 57  1  0  0  0
 55 63  1  0  0  0
 55 64  1  0  0  0
 56 65  1  0  0  0
 56 66  1  0  0  0
 58 59  2  0  0  0
 58 67  1  0  0  0
 59 68  1  0  0  0
M  END
> <s_m_entry_id>
442

> <s_m_entry_name>
000000442.1

> <s_m_Source_Path>
/Users/zaksoul/Documents/2

> <s_m_Source_File>
000000442.mol2

> <i_m_Source_File_Index>
1

$$$$
No_0_466
                    3D
 Schrodinger Suite 2022-4.
 70 76  0  0  1  0            999 V2000
   -5.1510    3.5410  -22.1140 C   0  0  0  0  0  0
   -5.3940    3.6860  -23.4600 C   0  0  0  0  0  0
   -3.9130    3.3400  -21.7410 C   0  0  0  0  0  0
   -2.9790    3.4430  -23.8890 C   0  0  0  0  0  0
   -2.8410    3.2400  -22.4600 C   0  0  0  0  0  0
   -4.3230    3.6450  -24.4460 C   0  0  0  0  0  0
   -3.5200    3.6370  -26.6270 C   0  0  0  0  0  0
    6.1090    3.3770  -21.1380 C   0  0  0  0  0  0
    6.0230    3.4500  -23.6930 C   0  0  0  0  0  0
   -4.5480    3.7290  -25.7890 C   0  0  0  0  0  0
    2.2230    3.8650  -23.8050 C   0  0  0  0  0  0
    1.3570    4.9510  -23.5520 C   0  0  0  0  0  0
    3.0980    6.2260  -22.8660 C   0  0  0  0  0  0
    3.6080    4.1120  -23.4670 C   0  0  0  0  0  0
    1.7300    2.7130  -24.4480 C   0  0  0  0  0  0
   -0.4260    3.4540  -24.4040 C   0  0  0  0  0  0
    0.0450    4.7060  -23.8260 C   0  0  0  0  0  0
   -1.8700    3.4000  -24.7900 C   0  0  0  0  0  0
    4.2930    1.6450  -23.0980 C   0  0  0  0  0  0
    5.2130    1.3510  -21.9220 C   0  0  2  0  0  0
    6.7630    2.9330  -22.4650 C   0  0  2  0  0  0
    5.1340    2.3810  -20.7820 C   0  0  0  0  0  0
   -2.1690    3.5120  -26.2280 C   0  0  0  0  0  0
   -1.4970    2.8890  -21.8220 C   0  0  0  0  0  0
   -0.4660    2.5910  -21.2860 C   0  0  0  0  0  0
   -0.8400    5.7300  -23.5270 F   0  0  0  0  0  0
   -3.7250    3.1400  -20.3490 F   0  0  0  0  0  0
    1.7820    6.1390  -23.0410 N   0  0  0  0  0  0
    4.0320    5.2900  -23.0420 N   0  0  0  0  0  0
    0.4340    2.5700  -24.7790 N   0  0  0  0  0  0
    4.5660    3.0930  -23.5970 N   0  0  0  0  0  0
    6.6260    1.4550  -22.3760 N   0  0  1  0  0  0
   -3.6620    3.6110  -28.0200 O   0  0  0  0  0  0
   -5.9707    3.5942  -21.4067 H   0  0  0  0  0  0
   -6.4071    3.8376  -23.8144 H   0  0  0  0  0  0
    5.6073    4.3451  -21.2834 H   0  0  0  0  0  0
    6.8771    3.4345  -20.3527 H   0  0  0  0  0  0
    6.4528    2.9960  -24.5980 H   0  0  0  0  0  0
    6.1290    4.5433  -23.7516 H   0  0  0  0  0  0
   -5.5562    3.8705  -26.1612 H   0  0  0  0  0  0
    2.4034    1.9002  -24.6949 H   0  0  0  0  0  0
    3.2454    1.5612  -22.7730 H   0  0  0  0  0  0
    4.4979    0.9324  -23.9105 H   0  0  0  0  0  0
    5.0151    0.3415  -21.5323 H   0  0  0  0  0  0
    7.8229    3.2257  -22.4953 H   0  0  0  0  0  0
    4.1332    2.8375  -20.7729 H   0  0  0  0  0  0
    5.4319    1.9014  -19.8379 H   0  0  0  0  0  0
   -1.3822    3.5000  -26.9736 H   0  0  0  0  0  0
    0.4408    2.3280  -20.8131 H   0  0  0  0  0  0
    7.2751    0.9984  -21.6435 H   0  0  0  0  0  0
   -2.8055    3.5417  -28.4250 H   0  0  0  0  0  0
    7.0840    9.1410  -20.0800 O   0  0  0  0  0  0
    3.9040    7.6140  -20.9460 N   0  3  0  0  0  0
    6.6110    8.1400  -21.9040 N   0  0  0  0  0  0
    4.6720    8.8200  -20.4720 C   0  0  0  0  0  0
    3.6000    7.5950  -22.4210 C   0  0  0  0  0  0
    9.6330    9.1770  -20.1680 C   0  0  0  0  0  0
    6.1460    8.7070  -20.8150 C   0  0  0  0  0  0
    7.9730    8.2150  -21.8570 C   0  0  0  0  0  0
    8.2670    8.8360  -20.7220 C   0  0  0  0  0  0
    3.0422    7.5420  -20.4281 H   0  0  0  0  0  0
    4.4093    6.7775  -20.6989 H   0  0  0  0  0  0
    4.5571    8.9219  -19.3828 H   0  0  0  0  0  0
    4.2560    9.7260  -20.9370 H   0  0  0  0  0  0
    4.5086    7.8529  -22.9848 H   0  0  0  0  0  0
    2.8389    8.3561  -22.6480 H   0  0  0  0  0  0
   10.4093    8.8289  -20.8653 H   0  0  0  0  0  0
    9.7160   10.2666  -20.0420 H   0  0  0  0  0  0
    9.7681    8.6848  -19.1936 H   0  0  0  0  0  0
    8.5694    7.8007  -22.6685 H   0  0  0  0  0  0
  1  2  2  0  0  0
  1  3  1  0  0  0
  1 34  1  0  0  0
  2  6  1  0  0  0
  2 35  1  0  0  0
  3  5  2  0  0  0
  3 27  1  0  0  0
  4  5  1  0  0  0
  4  6  2  0  0  0
  4 18  1  0  0  0
  5 24  1  0  0  0
  6 10  1  0  0  0
  7 10  2  0  0  0
  7 23  1  0  0  0
  7 33  1  0  0  0
  8 21  1  0  0  0
  8 22  1  0  0  0
  8 36  1  0  0  0
  8 37  1  0  0  0
  9 21  1  0  0  0
  9 31  1  0  0  0
  9 38  1  0  0  0
  9 39  1  0  0  0
 10 40  1  0  0  0
 11 12  1  0  0  0
 11 14  2  0  0  0
 11 15  1  0  0  0
 12 17  1  0  0  0
 12 28  2  0  0  0
 13 28  1  0  0  0
 13 29  2  0  0  0
 13 56  1  0  0  0
 14 29  1  0  0  0
 14 31  1  0  0  0
 15 30  2  0  0  0
 15 41  1  0  0  0
 16 17  2  0  0  0
 16 18  1  0  0  0
 16 30  1  0  0  0
 17 26  1  0  0  0
 18 23  2  0  0  0
 19 20  1  0  0  0
 19 31  1  0  0  0
 19 42  1  0  0  0
 19 43  1  0  0  0
 20 22  1  0  0  0
 20 32  1  0  0  0
 20 44  1  0  0  0
 21 32  1  0  0  0
 21 45  1  0  0  0
 22 46  1  0  0  0
 22 47  1  0  0  0
 23 48  1  0  0  0
 24 25  3  0  0  0
 25 49  1  0  0  0
 32 50  1  0  0  0
 33 51  1  0  0  0
 52 58  1  0  0  0
 52 60  1  0  0  0
 53 55  1  0  0  0
 53 56  1  0  0  0
 53 61  1  0  0  0
 53 62  1  0  0  0
 54 58  2  0  0  0
 54 59  1  0  0  0
 55 58  1  0  0  0
 55 63  1  0  0  0
 55 64  1  0  0  0
 56 65  1  0  0  0
 56 66  1  0  0  0
 57 60  1  0  0  0
 57 67  1  0  0  0
 57 68  1  0  0  0
 57 69  1  0  0  0
 59 60  2  0  0  0
 59 70  1  0  0  0
M  CHG  1  53   1
M  END
> <s_m_entry_id>
443

> <s_m_entry_name>
000000443.1

> <s_m_Source_Path>
/Users/zaksoul/Documents/2

> <s_m_Source_File>
000000443.mol2

> <i_m_Source_File_Index>
1

$$$$
No_0_467
                    3D
 Schrodinger Suite 2022-4.
 70 76  0  0  1  0            999 V2000
   -5.1780    3.5070  -22.0780 C   0  0  0  0  0  0
   -5.4440    3.6790  -23.4150 C   0  0  0  0  0  0
   -3.9340    3.2880  -21.7310 C   0  0  0  0  0  0
   -3.0400    3.4220  -23.8950 C   0  0  0  0  0  0
   -2.8770    3.1920  -22.4730 C   0  0  0  0  0  0
   -4.3920    3.6460  -24.4220 C   0  0  0  0  0  0
   -3.6310    3.6710  -26.6180 C   0  0  0  0  0  0
    6.0980    3.2250  -21.3190 C   0  0  0  0  0  0
    5.9630    3.3460  -23.8700 C   0  0  0  0  0  0
   -4.6420    3.7570  -25.7590 C   0  0  0  0  0  0
    2.1660    3.7960  -23.9030 C   0  0  0  0  0  0
    1.3160    4.8850  -23.6140 C   0  0  0  0  0  0
    3.0800    6.1320  -22.9380 C   0  0  0  0  0  0
    3.5600    4.0250  -23.5870 C   0  0  0  0  0  0
    1.6500    2.6600  -24.5570 C   0  0  0  0  0  0
   -0.4980    3.4200  -24.4590 C   0  0  0  0  0  0
   -0.0040    4.6570  -23.8670 C   0  0  0  0  0  0
   -1.9490    3.3860  -24.8170 C   0  0  0  0  0  0
    4.2280    1.5460  -23.2750 C   0  0  0  0  0  0
    5.1670    1.2220  -22.1230 C   0  0  2  0  0  0
    6.7220    2.8000  -22.6660 C   0  0  2  0  0  0
    5.1200    2.2310  -20.9630 C   0  0  0  0  0  0
   -2.2740    3.5260  -26.2470 C   0  0  0  0  0  0
   -1.5250    2.8180  -21.8670 C   0  0  0  0  0  0
   -0.4870    2.5000  -21.3560 C   0  0  0  0  0  0
   -0.8740    5.6830  -23.5330 F   0  0  0  0  0  0
   -3.7220    3.0610  -20.3470 F   0  0  0  0  0  0
    1.7610    6.0600  -23.0890 N   0  0  0  0  0  0
    4.0020    5.1910  -23.1480 N   0  0  0  0  0  0
    0.3480    2.5350  -24.8650 N   0  0  0  0  0  0
    4.5050    3.0000  -23.7530 N   0  0  0  0  0  0
    6.5730    1.3220  -22.6020 N   0  0  1  0  0  0
   -3.8000    3.6710  -28.0090 O   0  0  0  0  0  0
   -5.9833    3.5552  -21.3540 H   0  0  0  0  0  0
   -6.4621    3.8455  -23.7480 H   0  0  0  0  0  0
    5.6017    4.1994  -21.4380 H   0  0  0  0  0  0
    6.8814    3.2613  -20.5477 H   0  0  0  0  0  0
    6.3716    2.9051  -24.7912 H   0  0  0  0  0  0
    6.0781    4.4392  -23.9104 H   0  0  0  0  0  0
   -5.6558    3.9136  -26.1093 H   0  0  0  0  0  0
    2.3114    1.8460  -24.8310 H   0  0  0  0  0  0
    3.1861    1.4652  -22.9317 H   0  0  0  0  0  0
    4.4106    0.8457  -24.1034 H   0  0  0  0  0  0
    4.9681    0.2074  -21.7474 H   0  0  0  0  0  0
    7.7838    3.0836  -22.7114 H   0  0  0  0  0  0
    4.1243    2.6971  -20.9257 H   0  0  0  0  0  0
    5.4310    1.7323  -20.0332 H   0  0  0  0  0  0
   -1.5020    3.5210  -27.0080 H   0  0  0  0  0  0
    0.4268    2.2211  -20.9061 H   0  0  0  0  0  0
    7.2314    0.8464  -21.8902 H   0  0  0  0  0  0
   -2.9520    3.6017  -28.4315 H   0  0  0  0  0  0
    7.3660    9.0200  -20.6060 O   0  0  0  0  0  0
    4.1380    7.4210  -21.0720 N   0  3  0  0  0  0
    6.6390    8.1260  -22.4020 N   0  0  0  0  0  0
    4.9340    8.6230  -20.6360 C   0  0  0  0  0  0
    3.6040    7.4880  -22.4780 C   0  0  0  0  0  0
    9.8650    9.1730  -21.0910 C   0  0  0  0  0  0
    6.3370    8.5970  -21.2150 C   0  0  0  0  0  0
    7.9880    8.2560  -22.5640 C   0  0  0  0  0  0
    8.4400    8.8110  -21.4470 C   0  0  0  0  0  0
    3.3733    7.2771  -20.4312 H   0  0  0  0  0  0
    4.7027    6.5924  -20.9691 H   0  0  0  0  0  0
    4.9910    8.6460  -19.5377 H   0  0  0  0  0  0
    4.4212    9.5396  -20.9629 H   0  0  0  0  0  0
    4.4022    7.8221  -23.1572 H   0  0  0  0  0  0
    2.7922    8.2288  -22.5260 H   0  0  0  0  0  0
   10.5309    8.9060  -21.9249 H   0  0  0  0  0  0
    9.9330   10.2541  -20.9000 H   0  0  0  0  0  0
   10.1700    8.6221  -20.1891 H   0  0  0  0  0  0
    8.4602    7.9239  -23.4874 H   0  0  0  0  0  0
  1  2  2  0  0  0
  1  3  1  0  0  0
  1 34  1  0  0  0
  2  6  1  0  0  0
  2 35  1  0  0  0
  3  5  2  0  0  0
  3 27  1  0  0  0
  4  5  1  0  0  0
  4  6  2  0  0  0
  4 18  1  0  0  0
  5 24  1  0  0  0
  6 10  1  0  0  0
  7 10  2  0  0  0
  7 23  1  0  0  0
  7 33  1  0  0  0
  8 21  1  0  0  0
  8 22  1  0  0  0
  8 36  1  0  0  0
  8 37  1  0  0  0
  9 21  1  0  0  0
  9 31  1  0  0  0
  9 38  1  0  0  0
  9 39  1  0  0  0
 10 40  1  0  0  0
 11 12  1  0  0  0
 11 14  2  0  0  0
 11 15  1  0  0  0
 12 17  1  0  0  0
 12 28  2  0  0  0
 13 28  1  0  0  0
 13 29  2  0  0  0
 13 56  1  0  0  0
 14 29  1  0  0  0
 14 31  1  0  0  0
 15 30  2  0  0  0
 15 41  1  0  0  0
 16 17  2  0  0  0
 16 18  1  0  0  0
 16 30  1  0  0  0
 17 26  1  0  0  0
 18 23  2  0  0  0
 19 20  1  0  0  0
 19 31  1  0  0  0
 19 42  1  0  0  0
 19 43  1  0  0  0
 20 22  1  0  0  0
 20 32  1  0  0  0
 20 44  1  0  0  0
 21 32  1  0  0  0
 21 45  1  0  0  0
 22 46  1  0  0  0
 22 47  1  0  0  0
 23 48  1  0  0  0
 24 25  3  0  0  0
 25 49  1  0  0  0
 32 50  1  0  0  0
 33 51  1  0  0  0
 52 58  1  0  0  0
 52 60  1  0  0  0
 53 55  1  0  0  0
 53 56  1  0  0  0
 53 61  1  0  0  0
 53 62  1  0  0  0
 54 58  2  0  0  0
 54 59  1  0  0  0
 55 58  1  0  0  0
 55 63  1  0  0  0
 55 64  1  0  0  0
 56 65  1  0  0  0
 56 66  1  0  0  0
 57 60  1  0  0  0
 57 67  1  0  0  0
 57 68  1  0  0  0
 57 69  1  0  0  0
 59 60  2  0  0  0
 59 70  1  0  0  0
M  CHG  1  53   1
M  END
> <s_m_entry_id>
444

> <s_m_entry_name>
000000444.1

> <s_m_Source_Path>
/Users/zaksoul/Documents/2

> <s_m_Source_File>
000000444.mol2

> <i_m_Source_File_Index>
1

$$$$
No_0_468
                    3D
 Schrodinger Suite 2022-4.
 70 76  0  0  1  0            999 V2000
   -5.2120    3.6050  -22.0190 C   0  0  0  0  0  0
   -5.4620    3.7590  -23.3630 C   0  0  0  0  0  0
   -3.9780    3.3630  -21.6570 C   0  0  0  0  0  0
   -3.0600    3.4350  -23.8140 C   0  0  0  0  0  0
   -2.9170    3.2270  -22.3850 C   0  0  0  0  0  0
   -4.4010    3.6830  -24.3580 C   0  0  0  0  0  0
   -3.6190    3.6500  -26.5460 C   0  0  0  0  0  0
    6.0450    3.0650  -21.1430 C   0  0  0  0  0  0
    5.9380    3.1420  -23.6970 C   0  0  0  0  0  0
   -4.6360    3.7760  -25.6990 C   0  0  0  0  0  0
    2.1530    3.6830  -23.7750 C   0  0  0  0  0  0
    1.3270    4.7980  -23.5140 C   0  0  0  0  0  0
    3.1150    6.0130  -22.8430 C   0  0  0  0  0  0
    3.5490    3.8840  -23.4490 C   0  0  0  0  0  0
    1.6160    2.5490  -24.4150 C   0  0  0  0  0  0
   -0.5130    3.3620  -24.3510 C   0  0  0  0  0  0
    0.0040    4.5970  -23.7770 C   0  0  0  0  0  0
   -1.9620    3.3560  -24.7240 C   0  0  0  0  0  0
    4.1540    1.3960  -23.0870 C   0  0  0  0  0  0
    5.0740    1.0710  -21.9200 C   0  0  2  0  0  0
    6.6710    2.6000  -22.4750 C   0  0  2  0  0  0
    5.0400    2.1010  -20.7790 C   0  0  0  0  0  0
   -2.2690    3.4790  -26.1590 C   0  0  0  0  0  0
   -1.5800    2.8310  -21.7600 C   0  0  0  0  0  0
   -0.5550    2.4980  -21.2330 C   0  0  0  0  0  0
   -0.8430    5.6500  -23.4690 F   0  0  0  0  0  0
   -3.7850    3.1550  -20.2660 F   0  0  0  0  0  0
    1.7960    5.9710  -23.0060 N   0  0  0  0  0  0
    4.0150    5.0470  -23.0270 N   0  0  0  0  0  0
    0.3140    2.4500  -24.7340 N   0  0  0  0  0  0
    4.4710    2.8340  -23.5880 N   0  0  0  0  0  0
    6.4860    1.1280  -22.3860 N   0  0  1  0  0  0
   -3.7740    3.6290  -27.9380 O   0  0  0  0  0  0
   -6.0231    3.6853  -21.3043 H   0  0  0  0  0  0
   -6.4726    3.9447  -23.7082 H   0  0  0  0  0  0
    5.5737    4.0490  -21.2833 H   0  0  0  0  0  0
    6.8210    3.0963  -20.3640 H   0  0  0  0  0  0
    6.3449    2.6745  -24.6058 H   0  0  0  0  0  0
    6.0802    4.2312  -23.7555 H   0  0  0  0  0  0
   -5.6422    3.9507  -26.0625 H   0  0  0  0  0  0
    2.2600    1.7145  -24.6678 H   0  0  0  0  0  0
    3.1071    1.3465  -22.7529 H   0  0  0  0  0  0
    4.3276    0.6774  -23.9015 H   0  0  0  0  0  0
    4.8461    0.0685  -21.5287 H   0  0  0  0  0  0
    7.7397    2.8573  -22.5154 H   0  0  0  0  0  0
    4.0555    2.5912  -20.7598 H   0  0  0  0  0  0
    5.3296    1.6115  -19.8374 H   0  0  0  0  0  0
   -1.4900    3.4409  -26.9119 H   0  0  0  0  0  0
    0.3468    2.2051  -20.7681 H   0  0  0  0  0  0
    7.1253    0.6491  -21.6591 H   0  0  0  0  0  0
   -2.9238    3.5320  -28.3507 H   0  0  0  0  0  0
    7.6090    8.9210  -20.9720 O   0  0  0  0  0  0
    4.3800    7.2600  -21.0800 N   0  3  0  0  0  0
    6.6730    8.0740  -22.6930 N   0  0  0  0  0  0
    5.2020    8.4660  -20.7040 C   0  0  0  0  0  0
    3.6670    7.3650  -22.4020 C   0  0  0  0  0  0
   10.0210    9.1520  -21.7690 C   0  0  0  0  0  0
    6.5180    8.4950  -21.4590 C   0  0  0  0  0  0
    7.9870    8.2430  -23.0220 C   0  0  0  0  0  0
    8.5690    8.7680  -21.9520 C   0  0  0  0  0  0
    3.7079    7.0750  -20.3519 H   0  0  0  0  0  0
    4.9690    6.4420  -21.0830 H   0  0  0  0  0  0
    5.4002    8.4500  -19.6221 H   0  0  0  0  0  0
    4.6319    9.3802  -20.9260 H   0  0  0  0  0  0
    4.3632    7.7431  -23.1652 H   0  0  0  0  0  0
    2.8413    8.0867  -22.3160 H   0  0  0  0  0  0
   10.5783    8.9319  -22.6915 H   0  0  0  0  0  0
   10.0910   10.2269  -21.5460 H   0  0  0  0  0  0
   10.4506    8.5765  -20.9358 H   0  0  0  0  0  0
    8.3422    7.9558  -24.0106 H   0  0  0  0  0  0
  1  2  2  0  0  0
  1  3  1  0  0  0
  1 34  1  0  0  0
  2  6  1  0  0  0
  2 35  1  0  0  0
  3  5  2  0  0  0
  3 27  1  0  0  0
  4  5  1  0  0  0
  4  6  2  0  0  0
  4 18  1  0  0  0
  5 24  1  0  0  0
  6 10  1  0  0  0
  7 10  2  0  0  0
  7 23  1  0  0  0
  7 33  1  0  0  0
  8 21  1  0  0  0
  8 22  1  0  0  0
  8 36  1  0  0  0
  8 37  1  0  0  0
  9 21  1  0  0  0
  9 31  1  0  0  0
  9 38  1  0  0  0
  9 39  1  0  0  0
 10 40  1  0  0  0
 11 12  1  0  0  0
 11 14  2  0  0  0
 11 15  1  0  0  0
 12 17  1  0  0  0
 12 28  2  0  0  0
 13 28  1  0  0  0
 13 29  2  0  0  0
 13 56  1  0  0  0
 14 29  1  0  0  0
 14 31  1  0  0  0
 15 30  2  0  0  0
 15 41  1  0  0  0
 16 17  2  0  0  0
 16 18  1  0  0  0
 16 30  1  0  0  0
 17 26  1  0  0  0
 18 23  2  0  0  0
 19 20  1  0  0  0
 19 31  1  0  0  0
 19 42  1  0  0  0
 19 43  1  0  0  0
 20 22  1  0  0  0
 20 32  1  0  0  0
 20 44  1  0  0  0
 21 32  1  0  0  0
 21 45  1  0  0  0
 22 46  1  0  0  0
 22 47  1  0  0  0
 23 48  1  0  0  0
 24 25  3  0  0  0
 25 49  1  0  0  0
 32 50  1  0  0  0
 33 51  1  0  0  0
 52 58  1  0  0  0
 52 60  1  0  0  0
 53 55  1  0  0  0
 53 56  1  0  0  0
 53 61  1  0  0  0
 53 62  1  0  0  0
 54 58  2  0  0  0
 54 59  1  0  0  0
 55 58  1  0  0  0
 55 63  1  0  0  0
 55 64  1  0  0  0
 56 65  1  0  0  0
 56 66  1  0  0  0
 57 60  1  0  0  0
 57 67  1  0  0  0
 57 68  1  0  0  0
 57 69  1  0  0  0
 59 60  2  0  0  0
 59 70  1  0  0  0
M  CHG  1  53   1
M  END
> <s_m_entry_id>
445

> <s_m_entry_name>
000000445.1

> <s_m_Source_Path>
/Users/zaksoul/Documents/2

> <s_m_Source_File>
000000445.mol2

> <i_m_Source_File_Index>
1

$$$$
No_0_469
                    3D
 Schrodinger Suite 2022-4.
 72 78  0  0  1  0            999 V2000
   -5.3330    3.4330  -21.9240 C   0  0  0  0  0  0
   -5.6010    3.5920  -23.2630 C   0  0  0  0  0  0
   -4.0930    3.1950  -21.5780 C   0  0  0  0  0  0
   -3.2030    3.2820  -23.7470 C   0  0  0  0  0  0
   -3.0400    3.0680  -22.3210 C   0  0  0  0  0  0
   -4.5530    3.5250  -24.2720 C   0  0  0  0  0  0
   -3.7990    3.5060  -26.4710 C   0  0  0  0  0  0
    5.9370    2.9420  -21.1960 C   0  0  0  0  0  0
    5.7960    3.0310  -23.7480 C   0  0  0  0  0  0
   -4.8050    3.6230  -25.6100 C   0  0  0  0  0  0
    2.0080    3.5540  -23.7750 C   0  0  0  0  0  0
    1.1810    4.6640  -23.4980 C   0  0  0  0  0  0
    2.9720    5.8840  -22.8450 C   0  0  0  0  0  0
    3.4080    3.7600  -23.4670 C   0  0  0  0  0  0
    1.4690    2.4200  -24.4120 C   0  0  0  0  0  0
   -0.6630    3.2220  -24.3180 C   0  0  0  0  0  0
   -0.1440    4.4580  -23.7450 C   0  0  0  0  0  0
   -2.1170    3.2120  -24.6710 C   0  0  0  0  0  0
    4.0290    1.2730  -23.1230 C   0  0  0  0  0  0
    4.9650    0.9470  -21.9700 C   0  0  2  0  0  0
    6.5480    2.4860  -22.5390 C   0  0  2  0  0  0
    4.9420    1.9720  -20.8240 C   0  0  0  0  0  0
   -2.4440    3.3400  -26.1020 C   0  0  0  0  0  0
   -1.6930    2.6750  -21.7150 C   0  0  0  0  0  0
   -0.6600    2.3450  -21.2030 C   0  0  0  0  0  0
   -0.9920    5.5050  -23.4210 F   0  0  0  0  0  0
   -3.8800    2.9820  -20.1920 F   0  0  0  0  0  0
    1.6510    5.8360  -22.9910 N   0  0  0  0  0  0
    3.8740    4.9230  -23.0450 N   0  0  0  0  0  0
    0.1630    2.3160  -24.7150 N   0  0  0  0  0  0
    4.3320    2.7150  -23.6220 N   0  0  0  0  0  0
    6.3720    1.0130  -22.4540 N   0  0  1  0  0  0
   -3.9720    3.4900  -27.8610 O   0  0  0  0  0  0
   -6.1349    3.5063  -21.1983 H   0  0  0  0  0  0
   -6.6170    3.7737  -23.5943 H   0  0  0  0  0  0
    5.4599    3.9245  -21.3261 H   0  0  0  0  0  0
    6.7235    2.9733  -20.4276 H   0  0  0  0  0  0
    6.1935    2.5699  -24.6642 H   0  0  0  0  0  0
    5.9323    4.1211  -23.8035 H   0  0  0  0  0  0
   -5.8167    3.7946  -25.9593 H   0  0  0  0  0  0
    2.1134    1.5899  -24.6780 H   0  0  0  0  0  0
    2.9867    1.2175  -22.7759 H   0  0  0  0  0  0
    4.1954    0.5589  -23.9430 H   0  0  0  0  0  0
    4.7481   -0.0587  -21.5806 H   0  0  0  0  0  0
    7.6148    2.7492  -22.5914 H   0  0  0  0  0  0
    3.9554    2.4572  -20.7897 H   0  0  0  0  0  0
    5.2458    1.4795  -19.8885 H   0  0  0  0  0  0
   -1.6743    3.3089  -26.8647 H   0  0  0  0  0  0
    0.2493    2.0539  -20.7518 H   0  0  0  0  0  0
    7.0224    0.5338  -21.7373 H   0  0  0  0  0  0
   -3.1266    3.3989  -28.2847 H   0  0  0  0  0  0
    4.5440    7.0700  -21.3100 N   0  0  1  0  0  0
    7.7050    8.2020  -21.5550 N   0  0  0  0  0  0
    6.4110    9.4020  -22.8390 N   0  0  0  0  0  0
    8.4730    8.7100  -22.5520 N   0  0  0  0  0  0
    5.2360    8.3380  -20.8810 C   0  0  0  0  0  0
    3.5230    7.2370  -22.4050 C   0  0  0  0  0  0
    6.4390    8.6490  -21.7560 C   0  0  0  0  0  0
    8.2270    7.3410  -20.4860 C   0  0  0  0  0  0
    8.7650    8.1840  -19.3190 C   0  0  0  0  0  0
    7.6760    9.4170  -23.3010 C   0  0  0  0  0  0
    5.2763    6.3657  -21.6762 H   0  0  0  0  0  0
    5.5591    8.2430  -19.8338 H   0  0  0  0  0  0
    4.5249    9.1761  -20.9260 H   0  0  0  0  0  0
    3.9882    7.7402  -23.2654 H   0  0  0  0  0  0
    2.6979    7.8680  -22.0430 H   0  0  0  0  0  0
    9.0345    6.7096  -20.8852 H   0  0  0  0  0  0
    7.4245    6.6824  -20.1222 H   0  0  0  0  0  0
    9.1489    7.5181  -18.5321 H   0  0  0  0  0  0
    9.5772    8.8332  -19.6781 H   0  0  0  0  0  0
    7.9549    8.8050  -18.9090 H   0  0  0  0  0  0
    7.9201    9.9753  -24.1975 H   0  0  0  0  0  0
  1  2  2  0  0  0
  1  3  1  0  0  0
  1 34  1  0  0  0
  2  6  1  0  0  0
  2 35  1  0  0  0
  3  5  2  0  0  0
  3 27  1  0  0  0
  4  5  1  0  0  0
  4  6  2  0  0  0
  4 18  1  0  0  0
  5 24  1  0  0  0
  6 10  1  0  0  0
  7 10  2  0  0  0
  7 23  1  0  0  0
  7 33  1  0  0  0
  8 21  1  0  0  0
  8 22  1  0  0  0
  8 36  1  0  0  0
  8 37  1  0  0  0
  9 21  1  0  0  0
  9 31  1  0  0  0
  9 38  1  0  0  0
  9 39  1  0  0  0
 10 40  1  0  0  0
 11 12  1  0  0  0
 11 14  2  0  0  0
 11 15  1  0  0  0
 12 17  1  0  0  0
 12 28  2  0  0  0
 13 28  1  0  0  0
 13 29  2  0  0  0
 13 57  1  0  0  0
 14 29  1  0  0  0
 14 31  1  0  0  0
 15 30  2  0  0  0
 15 41  1  0  0  0
 16 17  2  0  0  0
 16 18  1  0  0  0
 16 30  1  0  0  0
 17 26  1  0  0  0
 18 23  2  0  0  0
 19 20  1  0  0  0
 19 31  1  0  0  0
 19 42  1  0  0  0
 19 43  1  0  0  0
 20 22  1  0  0  0
 20 32  1  0  0  0
 20 44  1  0  0  0
 21 32  1  0  0  0
 21 45  1  0  0  0
 22 46  1  0  0  0
 22 47  1  0  0  0
 23 48  1  0  0  0
 24 25  3  0  0  0
 25 49  1  0  0  0
 32 50  1  0  0  0
 33 51  1  0  0  0
 52 56  1  0  0  0
 52 57  1  0  0  0
 52 62  1  0  0  0
 53 55  1  0  0  0
 53 58  1  0  0  0
 53 59  1  0  0  0
 54 58  2  0  0  0
 54 61  1  0  0  0
 55 61  2  0  0  0
 56 58  1  0  0  0
 56 63  1  0  0  0
 56 64  1  0  0  0
 57 65  1  0  0  0
 57 66  1  0  0  0
 59 60  1  0  0  0
 59 67  1  0  0  0
 59 68  1  0  0  0
 60 69  1  0  0  0
 60 70  1  0  0  0
 60 71  1  0  0  0
 61 72  1  0  0  0
M  END
> <s_m_entry_id>
446

> <s_m_entry_name>
000000446.1

> <s_m_Source_Path>
/Users/zaksoul/Documents/2

> <s_m_Source_File>
000000446.mol2

> <i_m_Source_File_Index>
1

$$$$
No_0_470
                    3D
 Schrodinger Suite 2022-4.
 72 78  0  0  1  0            999 V2000
   -5.2380    3.4130  -22.1070 C   0  0  0  0  0  0
   -5.4690    3.6170  -23.4470 C   0  0  0  0  0  0
   -4.0050    3.1810  -21.7330 C   0  0  0  0  0  0
   -3.0530    3.3600  -23.8690 C   0  0  0  0  0  0
   -2.9290    3.0970  -22.4480 C   0  0  0  0  0  0
   -4.3900    3.6020  -24.4260 C   0  0  0  0  0  0
   -3.5710    3.6740  -26.6000 C   0  0  0  0  0  0
    6.0120    3.0650  -21.0570 C   0  0  0  0  0  0
    5.9450    3.2440  -23.6070 C   0  0  0  0  0  0
   -4.6050    3.7450  -25.7660 C   0  0  0  0  0  0
    2.1520    3.7110  -23.7300 C   0  0  0  0  0  0
    1.2990    4.7970  -23.4390 C   0  0  0  0  0  0
    3.0500    6.0200  -22.6880 C   0  0  0  0  0  0
    3.5380    3.9270  -23.3720 C   0  0  0  0  0  0
    1.6500    2.5930  -24.4240 C   0  0  0  0  0  0
   -0.4970    3.3590  -24.3650 C   0  0  0  0  0  0
   -0.0150    4.5810  -23.7320 C   0  0  0  0  0  0
   -1.9390    3.3400  -24.7620 C   0  0  0  0  0  0
    4.1890    1.4380  -23.1000 C   0  0  0  0  0  0
    5.0960    1.0850  -21.9310 C   0  0  2  0  0  0
    6.6700    2.6670  -22.3970 C   0  0  2  0  0  0
    5.0210    2.0670  -20.7500 C   0  0  0  0  0  0
   -2.2250    3.5150  -26.1970 C   0  0  0  0  0  0
   -1.5950    2.7030  -21.8160 C   0  0  0  0  0  0
   -0.5720    2.3690  -21.2850 C   0  0  0  0  0  0
   -0.8890    5.6030  -23.3970 F   0  0  0  0  0  0
   -3.8310    2.9210  -20.3490 F   0  0  0  0  0  0
    1.7340    5.9580  -22.8760 N   0  0  0  0  0  0
    3.9730    5.0800  -22.8950 N   0  0  0  0  0  0
    0.3550    2.4810  -24.7690 N   0  0  0  0  0  0
    4.4830    2.9020  -23.5370 N   0  0  0  0  0  0
    6.5140    1.1890  -22.3700 N   0  0  1  0  0  0
   -3.7030    3.7070  -27.9940 O   0  0  0  0  0  0
   -6.0619    3.4481  -21.4035 H   0  0  0  0  0  0
   -6.4773    3.7958  -23.8025 H   0  0  0  0  0  0
    5.5225    4.0440  -21.1660 H   0  0  0  0  0  0
    6.7744    3.0801  -20.2643 H   0  0  0  0  0  0
    6.3766    2.8224  -24.5268 H   0  0  0  0  0  0
    6.0661    4.3372  -23.6201 H   0  0  0  0  0  0
   -5.6085    3.9138  -26.1397 H   0  0  0  0  0  0
    2.3150    1.7824  -24.6992 H   0  0  0  0  0  0
    3.1380    1.3543  -22.7863 H   0  0  0  0  0  0
    4.3909    0.7567  -23.9397 H   0  0  0  0  0  0
    4.8831    0.0628  -21.5849 H   0  0  0  0  0  0
    7.7336    2.9475  -22.4071 H   0  0  0  0  0  0
    4.0265    2.5365  -20.7288 H   0  0  0  0  0  0
    5.3056    1.5452  -19.8244 H   0  0  0  0  0  0
   -1.4329    3.5230  -26.9369 H   0  0  0  0  0  0
    0.3281    2.0760  -20.8169 H   0  0  0  0  0  0
    7.1514    0.6938  -21.6524 H   0  0  0  0  0  0
   -2.8440    3.6437  -28.3948 H   0  0  0  0  0  0
    4.8000    7.1820  -21.3390 N   0  0  1  0  0  0
    7.7390    8.6710  -22.0340 N   0  0  0  0  0  0
    6.1130    9.8650  -22.8690 N   0  0  0  0  0  0
    8.2410    9.3720  -23.0830 N   0  0  0  0  0  0
    5.4580    8.4590  -20.8840 C   0  0  0  0  0  0
    3.5660    7.3640  -22.1830 C   0  0  0  0  0  0
    6.4260    8.9980  -21.9240 C   0  0  0  0  0  0
    8.5380    7.7520  -21.2140 C   0  0  0  0  0  0
    9.2340    8.5070  -20.0690 C   0  0  0  0  0  0
    7.2520   10.0700  -23.5600 C   0  0  0  0  0  0
    5.4972    6.6088  -21.9322 H   0  0  0  0  0  0
    5.9969    8.2780  -19.9423 H   0  0  0  0  0  0
    4.6863    9.2148  -20.6761 H   0  0  0  0  0  0
    3.8002    8.0116  -23.0408 H   0  0  0  0  0  0
    2.7835    7.8557  -21.5864 H   0  0  0  0  0  0
    9.2962    7.2629  -21.8432 H   0  0  0  0  0  0
    7.8847    6.9726  -20.7948 H   0  0  0  0  0  0
    9.8252    7.7997  -19.4688 H   0  0  0  0  0  0
    9.8984    9.2775  -20.4873 H   0  0  0  0  0  0
    8.4761    8.9839  -19.4301 H   0  0  0  0  0  0
    7.2590   10.7529  -24.4018 H   0  0  0  0  0  0
  1  2  2  0  0  0
  1  3  1  0  0  0
  1 34  1  0  0  0
  2  6  1  0  0  0
  2 35  1  0  0  0
  3  5  2  0  0  0
  3 27  1  0  0  0
  4  5  1  0  0  0
  4  6  2  0  0  0
  4 18  1  0  0  0
  5 24  1  0  0  0
  6 10  1  0  0  0
  7 10  2  0  0  0
  7 23  1  0  0  0
  7 33  1  0  0  0
  8 21  1  0  0  0
  8 22  1  0  0  0
  8 36  1  0  0  0
  8 37  1  0  0  0
  9 21  1  0  0  0
  9 31  1  0  0  0
  9 38  1  0  0  0
  9 39  1  0  0  0
 10 40  1  0  0  0
 11 12  1  0  0  0
 11 14  2  0  0  0
 11 15  1  0  0  0
 12 17  1  0  0  0
 12 28  2  0  0  0
 13 28  1  0  0  0
 13 29  2  0  0  0
 13 57  1  0  0  0
 14 29  1  0  0  0
 14 31  1  0  0  0
 15 30  2  0  0  0
 15 41  1  0  0  0
 16 17  2  0  0  0
 16 18  1  0  0  0
 16 30  1  0  0  0
 17 26  1  0  0  0
 18 23  2  0  0  0
 19 20  1  0  0  0
 19 31  1  0  0  0
 19 42  1  0  0  0
 19 43  1  0  0  0
 20 22  1  0  0  0
 20 32  1  0  0  0
 20 44  1  0  0  0
 21 32  1  0  0  0
 21 45  1  0  0  0
 22 46  1  0  0  0
 22 47  1  0  0  0
 23 48  1  0  0  0
 24 25  3  0  0  0
 25 49  1  0  0  0
 32 50  1  0  0  0
 33 51  1  0  0  0
 52 56  1  0  0  0
 52 57  1  0  0  0
 52 62  1  0  0  0
 53 55  1  0  0  0
 53 58  1  0  0  0
 53 59  1  0  0  0
 54 58  2  0  0  0
 54 61  1  0  0  0
 55 61  2  0  0  0
 56 58  1  0  0  0
 56 63  1  0  0  0
 56 64  1  0  0  0
 57 65  1  0  0  0
 57 66  1  0  0  0
 59 60  1  0  0  0
 59 67  1  0  0  0
 59 68  1  0  0  0
 60 69  1  0  0  0
 60 70  1  0  0  0
 60 71  1  0  0  0
 61 72  1  0  0  0
M  END
> <s_m_entry_id>
447

> <s_m_entry_name>
000000447.1

> <s_m_Source_Path>
/Users/zaksoul/Documents/2

> <s_m_Source_File>
000000447.mol2

> <i_m_Source_File_Index>
1

$$$$
No_0_471
                    3D
 Schrodinger Suite 2022-4.
 69 75  0  0  1  0            999 V2000
   -5.1990    3.3510  -22.0370 C   0  0  0  0  0  0
   -5.4460    3.5200  -23.3790 C   0  0  0  0  0  0
   -3.9600    3.1400  -21.6710 C   0  0  0  0  0  0
   -3.0330    3.2770  -23.8200 C   0  0  0  0  0  0
   -2.8910    3.0500  -22.3950 C   0  0  0  0  0  0
   -4.3780    3.4930  -24.3690 C   0  0  0  0  0  0
   -3.5820    3.5200  -26.5530 C   0  0  0  0  0  0
    6.0640    3.1400  -21.1010 C   0  0  0  0  0  0
    5.9690    3.2570  -23.6540 C   0  0  0  0  0  0
   -4.6080    3.6010  -25.7100 C   0  0  0  0  0  0
    2.1700    3.6830  -23.7460 C   0  0  0  0  0  0
    1.3090    4.7680  -23.4720 C   0  0  0  0  0  0
    3.0550    6.0260  -22.7690 C   0  0  0  0  0  0
    3.5570    3.9210  -23.4090 C   0  0  0  0  0  0
    1.6720    2.5440  -24.4080 C   0  0  0  0  0  0
   -0.4820    3.2900  -24.3440 C   0  0  0  0  0  0
   -0.0050    4.5310  -23.7460 C   0  0  0  0  0  0
   -1.9270    3.2470  -24.7250 C   0  0  0  0  0  0
    4.2360    1.4470  -23.0840 C   0  0  0  0  0  0
    5.1590    1.1300  -21.9170 C   0  0  2  0  0  0
    6.7120    2.7160  -22.4370 C   0  0  2  0  0  0
    5.0870    2.1400  -20.7590 C   0  0  0  0  0  0
   -2.2310    3.3840  -26.1600 C   0  0  0  0  0  0
   -1.5460    2.6840  -21.7680 C   0  0  0  0  0  0
   -0.5140    2.3740  -21.2400 C   0  0  0  0  0  0
   -0.8860    5.5520  -23.4260 F   0  0  0  0  0  0
   -3.7680    2.9160  -20.2830 F   0  0  0  0  0  0
    1.7390    5.9460  -22.9420 N   0  0  0  0  0  0
    3.9850    5.0900  -22.9640 N   0  0  0  0  0  0
    0.3750    2.4100  -24.7360 N   0  0  0  0  0  0
    4.5110    2.9020  -23.5590 N   0  0  0  0  0  0
    6.5720    1.2380  -22.3740 N   0  0  1  0  0  0
   -3.7290    3.5180  -27.9450 O   0  0  0  0  0  0
   -6.0157    3.3951  -21.3256 H   0  0  0  0  0  0
   -6.4599    3.6806  -23.7273 H   0  0  0  0  0  0
    5.5641    4.1115  -21.2282 H   0  0  0  0  0  0
    6.8347    3.1814  -20.3172 H   0  0  0  0  0  0
    6.3947    2.8172  -24.5680 H   0  0  0  0  0  0
    6.0781    4.3509  -23.6934 H   0  0  0  0  0  0
   -5.6171    3.7506  -26.0765 H   0  0  0  0  0  0
    2.3427    1.7337  -24.6701 H   0  0  0  0  0  0
    3.1893    1.3602  -22.7570 H   0  0  0  0  0  0
    4.4359    0.7473  -23.9089 H   0  0  0  0  0  0
    4.9602    0.1146  -21.5436 H   0  0  0  0  0  0
    7.7725    3.0066  -22.4663 H   0  0  0  0  0  0
    4.0877    2.5993  -20.7378 H   0  0  0  0  0  0
    5.3868    1.6434  -19.8244 H   0  0  0  0  0  0
   -1.4467    3.3830  -26.9082 H   0  0  0  0  0  0
    0.3937    2.1001  -20.7751 H   0  0  0  0  0  0
    7.2211    0.7664  -21.6511 H   0  0  0  0  0  0
   -2.8742    3.4537  -28.3546 H   0  0  0  0  0  0
    3.8720    7.3820  -20.8280 N   0  0  1  0  0  0
    7.0340    8.9520  -20.0340 N   0  0  0  0  0  0
    6.2950    8.8660  -22.0420 N   0  0  0  0  0  0
    7.6540    9.0240  -22.0820 N   0  0  0  0  0  0
    3.5630    7.3860  -22.3030 C   0  0  0  0  0  0
    5.9180    8.8210  -20.8010 C   0  0  0  0  0  0
    4.4970    8.6470  -20.3020 C   0  0  0  0  0  0
    8.1030    9.0770  -20.8660 C   0  0  0  0  0  0
    9.5480    9.2470  -20.4510 C   0  0  0  0  0  0
    2.9604    7.2331  -20.2683 H   0  0  0  0  0  0
    8.1389    9.0810  -22.9889 H   0  0  0  0  0  0
    4.4697    7.6512  -22.8665 H   0  0  0  0  0  0
    2.8033    8.1527  -22.5149 H   0  0  0  0  0  0
    4.4950    8.6260  -19.2022 H   0  0  0  0  0  0
    3.8911    9.5108  -20.6129 H   0  0  0  0  0  0
   10.1812    9.3220  -21.3473 H   0  0  0  0  0  0
    9.6520   10.1638  -19.8521 H   0  0  0  0  0  0
    9.8621    8.3797  -19.8518 H   0  0  0  0  0  0
  1  2  2  0  0  0
  1  3  1  0  0  0
  1 34  1  0  0  0
  2  6  1  0  0  0
  2 35  1  0  0  0
  3  5  2  0  0  0
  3 27  1  0  0  0
  4  5  1  0  0  0
  4  6  2  0  0  0
  4 18  1  0  0  0
  5 24  1  0  0  0
  6 10  1  0  0  0
  7 10  2  0  0  0
  7 23  1  0  0  0
  7 33  1  0  0  0
  8 21  1  0  0  0
  8 22  1  0  0  0
  8 36  1  0  0  0
  8 37  1  0  0  0
  9 21  1  0  0  0
  9 31  1  0  0  0
  9 38  1  0  0  0
  9 39  1  0  0  0
 10 40  1  0  0  0
 11 12  1  0  0  0
 11 14  2  0  0  0
 11 15  1  0  0  0
 12 17  1  0  0  0
 12 28  2  0  0  0
 13 28  1  0  0  0
 13 29  2  0  0  0
 13 56  1  0  0  0
 14 29  1  0  0  0
 14 31  1  0  0  0
 15 30  2  0  0  0
 15 41  1  0  0  0
 16 17  2  0  0  0
 16 18  1  0  0  0
 16 30  1  0  0  0
 17 26  1  0  0  0
 18 23  2  0  0  0
 19 20  1  0  0  0
 19 31  1  0  0  0
 19 42  1  0  0  0
 19 43  1  0  0  0
 20 22  1  0  0  0
 20 32  1  0  0  0
 20 44  1  0  0  0
 21 32  1  0  0  0
 21 45  1  0  0  0
 22 46  1  0  0  0
 22 47  1  0  0  0
 23 48  1  0  0  0
 24 25  3  0  0  0
 25 49  1  0  0  0
 32 50  1  0  0  0
 33 51  1  0  0  0
 52 56  1  0  0  0
 52 58  1  0  0  0
 52 61  1  0  0  0
 53 57  1  0  0  0
 53 59  2  0  0  0
 54 55  1  0  0  0
 54 57  2  0  0  0
 55 59  1  0  0  0
 55 62  1  0  0  0
 56 63  1  0  0  0
 56 64  1  0  0  0
 57 58  1  0  0  0
 58 65  1  0  0  0
 58 66  1  0  0  0
 59 60  1  0  0  0
 60 67  1  0  0  0
 60 68  1  0  0  0
 60 69  1  0  0  0
M  END
> <s_m_entry_id>
448

> <s_m_entry_name>
000000448.1

> <s_m_Source_Path>
/Users/zaksoul/Documents/2

> <s_m_Source_File>
000000448.mol2

> <i_m_Source_File_Index>
1

$$$$
No_0_472
                    3D
 Schrodinger Suite 2022-4.
 69 75  0  0  1  0            999 V2000
   -5.0550    3.4300  -21.9700 C   0  0  0  0  0  0
   -5.3420    3.5720  -23.3070 C   0  0  0  0  0  0
   -3.8070    3.2210  -21.6370 C   0  0  0  0  0  0
   -2.9440    3.3060  -23.8170 C   0  0  0  0  0  0
   -2.7600    3.1080  -22.3910 C   0  0  0  0  0  0
   -4.3040    3.5160  -24.3280 C   0  0  0  0  0  0
   -3.5760    3.4920  -26.5350 C   0  0  0  0  0  0
    6.2300    3.1760  -21.3710 C   0  0  0  0  0  0
    6.0580    3.2380  -23.9220 C   0  0  0  0  0  0
   -4.5740    3.5970  -25.6640 C   0  0  0  0  0  0
    2.2600    3.6840  -23.9090 C   0  0  0  0  0  0
    1.4130    4.7790  -23.6330 C   0  0  0  0  0  0
    3.1860    6.0420  -23.0110 C   0  0  0  0  0  0
    3.6580    3.9220  -23.6190 C   0  0  0  0  0  0
    1.7370    2.5330  -24.5300 C   0  0  0  0  0  0
   -0.4100    3.2930  -24.4170 C   0  0  0  0  0  0
    0.0900    4.5440  -23.8610 C   0  0  0  0  0  0
   -1.8670    3.2490  -24.7530 C   0  0  0  0  0  0
    4.3350    1.4510  -23.2600 C   0  0  0  0  0  0
    5.2910    1.1540  -22.1150 C   0  0  2  0  0  0
    6.8350    2.7200  -22.7170 C   0  0  2  0  0  0
    5.2590    2.1890  -20.9780 C   0  0  0  0  0  0
   -2.2130    3.3570  -26.1810 C   0  0  0  0  0  0
   -1.3990    2.7490  -21.7980 C   0  0  0  0  0  0
   -0.3530    2.4440  -21.2940 C   0  0  0  0  0  0
   -0.7760    5.5760  -23.5370 F   0  0  0  0  0  0
   -3.5740    3.0260  -20.2510 F   0  0  0  0  0  0
    1.8650    5.9660  -23.1420 N   0  0  0  0  0  0
    4.1060    5.0970  -23.2130 N   0  0  0  0  0  0
    0.4300    2.4000  -24.8160 N   0  0  0  0  0  0
    4.6020    2.8940  -23.7760 N   0  0  0  0  0  0
    6.6890    1.2440  -22.6170 N   0  0  1  0  0  0
   -3.7650    3.4610  -27.9230 O   0  0  0  0  0  0
   -5.8502    3.4943  -21.2361 H   0  0  0  0  0  0
   -6.3652    3.7296  -23.6283 H   0  0  0  0  0  0
    5.7316    4.1475  -21.5042 H   0  0  0  0  0  0
    7.0248    3.2305  -20.6125 H   0  0  0  0  0  0
    6.4538    2.7766  -24.8388 H   0  0  0  0  0  0
    6.1710    4.3301  -23.9896 H   0  0  0  0  0  0
   -5.5930    3.7444  -26.0030 H   0  0  0  0  0  0
    2.3949    1.7133  -24.7952 H   0  0  0  0  0  0
    3.2983    1.3764  -22.9000 H   0  0  0  0  0  0
    4.5055    0.7325  -24.0753 H   0  0  0  0  0  0
    5.0982    0.1479  -21.7144 H   0  0  0  0  0  0
    7.8954    3.0045  -22.7846 H   0  0  0  0  0  0
    4.2636    2.6554  -20.9366 H   0  0  0  0  0  0
    5.5841    1.7114  -20.0420 H   0  0  0  0  0  0
   -1.4522    3.3349  -26.9528 H   0  0  0  0  0  0
    0.5676    2.1758  -20.8517 H   0  0  0  0  0  0
    7.3582    0.7854  -21.9040 H   0  0  0  0  0  0
   -2.9233    3.3819  -28.3562 H   0  0  0  0  0  0
    4.4010    7.3450  -21.2490 N   0  0  1  0  0  0
    7.5580    9.1120  -21.1830 N   0  0  0  0  0  0
    6.3230    9.0830  -22.9320 N   0  0  0  0  0  0
    7.6110    9.3500  -23.3100 N   0  0  0  0  0  0
    3.7150    7.4090  -22.5900 C   0  0  0  0  0  0
    6.2890    8.9370  -21.6440 C   0  0  0  0  0  0
    5.0630    8.6230  -20.8080 C   0  0  0  0  0  0
    8.3600    9.3690  -22.2520 C   0  0  0  0  0  0
    9.8500    9.6280  -22.2130 C   0  0  0  0  0  0
    3.6792    7.0931  -20.4862 H   0  0  0  0  0  0
    7.8359    9.4959  -24.3045 H   0  0  0  0  0  0
    4.4231    7.7770  -23.3471 H   0  0  0  0  0  0
    2.8812    8.1248  -22.5400 H   0  0  0  0  0  0
    5.3532    8.5389  -19.7503 H   0  0  0  0  0  0
    4.3452    9.4528  -20.8860 H   0  0  0  0  0  0
   10.2200    9.8030  -23.2340 H   0  0  0  0  0  0
   10.0528   10.5141  -21.5936 H   0  0  0  0  0  0
   10.3639    8.7561  -21.7821 H   0  0  0  0  0  0
  1  2  2  0  0  0
  1  3  1  0  0  0
  1 34  1  0  0  0
  2  6  1  0  0  0
  2 35  1  0  0  0
  3  5  2  0  0  0
  3 27  1  0  0  0
  4  5  1  0  0  0
  4  6  2  0  0  0
  4 18  1  0  0  0
  5 24  1  0  0  0
  6 10  1  0  0  0
  7 10  2  0  0  0
  7 23  1  0  0  0
  7 33  1  0  0  0
  8 21  1  0  0  0
  8 22  1  0  0  0
  8 36  1  0  0  0
  8 37  1  0  0  0
  9 21  1  0  0  0
  9 31  1  0  0  0
  9 38  1  0  0  0
  9 39  1  0  0  0
 10 40  1  0  0  0
 11 12  1  0  0  0
 11 14  2  0  0  0
 11 15  1  0  0  0
 12 17  1  0  0  0
 12 28  2  0  0  0
 13 28  1  0  0  0
 13 29  2  0  0  0
 13 56  1  0  0  0
 14 29  1  0  0  0
 14 31  1  0  0  0
 15 30  2  0  0  0
 15 41  1  0  0  0
 16 17  2  0  0  0
 16 18  1  0  0  0
 16 30  1  0  0  0
 17 26  1  0  0  0
 18 23  2  0  0  0
 19 20  1  0  0  0
 19 31  1  0  0  0
 19 42  1  0  0  0
 19 43  1  0  0  0
 20 22  1  0  0  0
 20 32  1  0  0  0
 20 44  1  0  0  0
 21 32  1  0  0  0
 21 45  1  0  0  0
 22 46  1  0  0  0
 22 47  1  0  0  0
 23 48  1  0  0  0
 24 25  3  0  0  0
 25 49  1  0  0  0
 32 50  1  0  0  0
 33 51  1  0  0  0
 52 56  1  0  0  0
 52 58  1  0  0  0
 52 61  1  0  0  0
 53 57  1  0  0  0
 53 59  2  0  0  0
 54 55  1  0  0  0
 54 57  2  0  0  0
 55 59  1  0  0  0
 55 62  1  0  0  0
 56 63  1  0  0  0
 56 64  1  0  0  0
 57 58  1  0  0  0
 58 65  1  0  0  0
 58 66  1  0  0  0
 59 60  1  0  0  0
 60 67  1  0  0  0
 60 68  1  0  0  0
 60 69  1  0  0  0
M  END
> <s_m_entry_id>
449

> <s_m_entry_name>
000000449.1

> <s_m_Source_Path>
/Users/zaksoul/Documents/2

> <s_m_Source_File>
000000449.mol2

> <i_m_Source_File_Index>
1

$$$$
No_0_473
                    3D
 Schrodinger Suite 2022-4.
 69 75  0  0  1  0            999 V2000
   -5.1210    3.4920  -22.2650 C   0  0  0  0  0  0
   -5.3680    3.6260  -23.6100 C   0  0  0  0  0  0
   -3.8850    3.2750  -21.8950 C   0  0  0  0  0  0
   -2.9600    3.3370  -24.0490 C   0  0  0  0  0  0
   -2.8180    3.1490  -22.6180 C   0  0  0  0  0  0
   -4.3030    3.5550  -24.6010 C   0  0  0  0  0  0
   -3.5110    3.5080  -26.7860 C   0  0  0  0  0  0
    6.1400    3.1550  -21.3410 C   0  0  0  0  0  0
    6.0410    3.1990  -23.8960 C   0  0  0  0  0  0
   -4.5340    3.6270  -25.9440 C   0  0  0  0  0  0
    2.2480    3.6750  -23.9950 C   0  0  0  0  0  0
    1.4020    4.7780  -23.7510 C   0  0  0  0  0  0
    3.1670    6.0320  -23.0880 C   0  0  0  0  0  0
    3.6390    3.9040  -23.6660 C   0  0  0  0  0  0
    1.7340    2.5240  -24.6220 C   0  0  0  0  0  0
   -0.4100    3.3000  -24.5760 C   0  0  0  0  0  0
    0.0840    4.5520  -24.0150 C   0  0  0  0  0  0
   -1.8570    3.2660  -24.9540 C   0  0  0  0  0  0
    4.2850    1.4300  -23.2710 C   0  0  0  0  0  0
    5.2060    1.1350  -22.0970 C   0  0  2  0  0  0
    6.7790    2.6850  -22.6650 C   0  0  2  0  0  0
    5.1500    2.1790  -20.9690 C   0  0  0  0  0  0
   -2.1610    3.3660  -26.3920 C   0  0  0  0  0  0
   -1.4770    2.7840  -21.9820 C   0  0  0  0  0  0
   -0.4490    2.4750  -21.4470 C   0  0  0  0  0  0
   -0.7820    5.5930  -23.7240 F   0  0  0  0  0  0
   -3.6930    3.0890  -20.5010 F   0  0  0  0  0  0
    1.8490    5.9650  -23.2560 N   0  0  0  0  0  0
    4.0840    5.0790  -23.2570 N   0  0  0  0  0  0
    0.4340    2.3980  -24.9440 N   0  0  0  0  0  0
    4.5790    2.8670  -23.7890 N   0  0  0  0  0  0
    6.6190    1.2110  -22.5590 N   0  0  1  0  0  0
   -3.6610    3.4680  -28.1780 O   0  0  0  0  0  0
   -5.9361    3.5673  -21.5543 H   0  0  0  0  0  0
   -6.3801    3.7895  -23.9621 H   0  0  0  0  0  0
    5.6529    4.1291  -21.4953 H   0  0  0  0  0  0
    6.9128    3.2095  -20.5601 H   0  0  0  0  0  0
    6.4599    2.7276  -24.7973 H   0  0  0  0  0  0
    6.1651    4.2896  -23.9676 H   0  0  0  0  0  0
   -5.5415    3.7805  -26.3133 H   0  0  0  0  0  0
    2.3924    1.6970  -24.8619 H   0  0  0  0  0  0
    3.2379    1.3674  -22.9398 H   0  0  0  0  0  0
    4.4748    0.7042  -24.0755 H   0  0  0  0  0  0
    4.9940    0.1336  -21.6942 H   0  0  0  0  0  0
    7.8432    2.9604  -22.7043 H   0  0  0  0  0  0
    4.1571    2.6523  -20.9589 H   0  0  0  0  0  0
    5.4447    1.7067  -20.0203 H   0  0  0  0  0  0
   -1.3785    3.3319  -27.1414 H   0  0  0  0  0  0
    0.4561    2.2030  -20.9759 H   0  0  0  0  0  0
    7.2635    0.7525  -21.8236 H   0  0  0  0  0  0
   -2.8079    3.3799  -28.5867 H   0  0  0  0  0  0
    6.6820    9.0710  -20.0280 O   0  0  0  0  0  0
    3.6630    7.5590  -21.1630 N   0  3  0  0  0  0
    6.2420    8.9930  -22.1120 N   0  0  0  0  0  0
    7.5850    9.1050  -21.9590 N   0  0  0  0  0  0
    3.6940    7.3980  -22.6610 C   0  0  0  0  0  0
    4.2300    8.8540  -20.6410 C   0  0  0  0  0  0
    5.7130    8.9750  -20.9340 C   0  0  0  0  0  0
    7.8320    9.1510  -20.6920 C   0  0  0  0  0  0
    9.2050    9.2800  -20.0680 C   0  0  0  0  0  0
    4.1492    6.7867  -20.7349 H   0  0  0  0  0  0
    2.7152    7.4550  -20.8361 H   0  0  0  0  0  0
    4.7258    7.5210  -23.0219 H   0  0  0  0  0  0
    3.0844    8.1864  -23.1267 H   0  0  0  0  0  0
    4.0650    8.9140  -19.5551 H   0  0  0  0  0  0
    3.6962    9.6987  -21.1009 H   0  0  0  0  0  0
    9.9660    9.3240  -20.8610 H   0  0  0  0  0  0
    9.2490   10.1994  -19.4657 H   0  0  0  0  0  0
    9.3980    8.4092  -19.4242 H   0  0  0  0  0  0
  1  2  2  0  0  0
  1  3  1  0  0  0
  1 34  1  0  0  0
  2  6  1  0  0  0
  2 35  1  0  0  0
  3  5  2  0  0  0
  3 27  1  0  0  0
  4  5  1  0  0  0
  4  6  2  0  0  0
  4 18  1  0  0  0
  5 24  1  0  0  0
  6 10  1  0  0  0
  7 10  2  0  0  0
  7 23  1  0  0  0
  7 33  1  0  0  0
  8 21  1  0  0  0
  8 22  1  0  0  0
  8 36  1  0  0  0
  8 37  1  0  0  0
  9 21  1  0  0  0
  9 31  1  0  0  0
  9 38  1  0  0  0
  9 39  1  0  0  0
 10 40  1  0  0  0
 11 12  1  0  0  0
 11 14  2  0  0  0
 11 15  1  0  0  0
 12 17  1  0  0  0
 12 28  2  0  0  0
 13 28  1  0  0  0
 13 29  2  0  0  0
 13 56  1  0  0  0
 14 29  1  0  0  0
 14 31  1  0  0  0
 15 30  2  0  0  0
 15 41  1  0  0  0
 16 17  2  0  0  0
 16 18  1  0  0  0
 16 30  1  0  0  0
 17 26  1  0  0  0
 18 23  2  0  0  0
 19 20  1  0  0  0
 19 31  1  0  0  0
 19 42  1  0  0  0
 19 43  1  0  0  0
 20 22  1  0  0  0
 20 32  1  0  0  0
 20 44  1  0  0  0
 21 32  1  0  0  0
 21 45  1  0  0  0
 22 46  1  0  0  0
 22 47  1  0  0  0
 23 48  1  0  0  0
 24 25  3  0  0  0
 25 49  1  0  0  0
 32 50  1  0  0  0
 33 51  1  0  0  0
 52 58  1  0  0  0
 52 59  1  0  0  0
 53 56  1  0  0  0
 53 57  1  0  0  0
 53 61  1  0  0  0
 53 62  1  0  0  0
 54 55  1  0  0  0
 54 58  2  0  0  0
 55 59  2  0  0  0
 56 63  1  0  0  0
 56 64  1  0  0  0
 57 58  1  0  0  0
 57 65  1  0  0  0
 57 66  1  0  0  0
 59 60  1  0  0  0
 60 67  1  0  0  0
 60 68  1  0  0  0
 60 69  1  0  0  0
M  CHG  1  53   1
M  END
> <s_m_entry_id>
450

> <s_m_entry_name>
000000450.1

> <s_m_Source_Path>
/Users/zaksoul/Documents/2

> <s_m_Source_File>
000000450.mol2

> <i_m_Source_File_Index>
1

$$$$
No_0_474
                    3D
 Schrodinger Suite 2022-4.
 69 75  0  0  1  0            999 V2000
   -5.2920    3.6110  -22.2560 C   0  0  0  0  0  0
   -5.5210    3.7880  -23.6000 C   0  0  0  0  0  0
   -4.0600    3.3880  -21.8750 C   0  0  0  0  0  0
   -3.1040    3.5250  -24.0130 C   0  0  0  0  0  0
   -2.9830    3.2910  -22.5860 C   0  0  0  0  0  0
   -4.4400    3.7550  -24.5770 C   0  0  0  0  0  0
   -3.6180    3.7840  -26.7500 C   0  0  0  0  0  0
    5.9560    3.2970  -21.1800 C   0  0  0  0  0  0
    5.8940    3.4250  -23.7330 C   0  0  0  0  0  0
   -4.6530    3.8700  -25.9200 C   0  0  0  0  0  0
    2.1000    3.8850  -23.8720 C   0  0  0  0  0  0
    1.2450    4.9760  -23.6040 C   0  0  0  0  0  0
    2.9930    6.2160  -22.8740 C   0  0  0  0  0  0
    3.4850    4.1100  -23.5160 C   0  0  0  0  0  0
    1.6010    2.7530  -24.5440 C   0  0  0  0  0  0
   -0.5470    3.5180  -24.5040 C   0  0  0  0  0  0
   -0.0670    4.7530  -23.8950 C   0  0  0  0  0  0
   -1.9880    3.4890  -24.9030 C   0  0  0  0  0  0
    4.1390    1.6280  -23.1920 C   0  0  0  0  0  0
    5.0440    1.2990  -22.0150 C   0  0  2  0  0  0
    6.6170    2.8730  -22.5100 C   0  0  2  0  0  0
    4.9660    2.3040  -20.8540 C   0  0  0  0  0  0
   -2.2720    3.6350  -26.3420 C   0  0  0  0  0  0
   -1.6490    2.9110  -21.9440 C   0  0  0  0  0  0
   -0.6270    2.5900  -21.4050 C   0  0  0  0  0  0
   -0.9430    5.7790  -23.5820 F   0  0  0  0  0  0
   -3.8870    3.1560  -20.4860 F   0  0  0  0  0  0
    1.6790    6.1480  -23.0630 N   0  0  0  0  0  0
    3.9180    5.2730  -23.0610 N   0  0  0  0  0  0
    0.3070    2.6320  -24.8890 N   0  0  0  0  0  0
    4.4320    3.0830  -23.6590 N   0  0  0  0  0  0
    6.4630    1.3960  -22.4540 N   0  0  1  0  0  0
   -3.7470    3.7890  -28.1450 O   0  0  0  0  0  0
   -6.1174    3.6591  -21.5550 H   0  0  0  0  0  0
   -6.5291    3.9577  -23.9605 H   0  0  0  0  0  0
    5.4667    4.2737  -21.3091 H   0  0  0  0  0  0
    6.7172    3.3283  -20.3865 H   0  0  0  0  0  0
    6.3268    2.9861  -24.6441 H   0  0  0  0  0  0
    6.0131    4.5180  -23.7673 H   0  0  0  0  0  0
   -5.6560    4.0306  -26.2985 H   0  0  0  0  0  0
    2.2676    1.9378  -24.8010 H   0  0  0  0  0  0
    3.0874    1.5493  -22.8791 H   0  0  0  0  0  0
    4.3429    0.9305  -24.0177 H   0  0  0  0  0  0
    4.8311    0.2839  -21.6487 H   0  0  0  0  0  0
    7.6803    3.1545  -22.5241 H   0  0  0  0  0  0
    3.9707    2.7724  -20.8439 H   0  0  0  0  0  0
    5.2496    1.8014  -19.9175 H   0  0  0  0  0  0
   -1.4784    3.6290  -27.0804 H   0  0  0  0  0  0
    0.2725    2.3061  -20.9302 H   0  0  0  0  0  0
    7.0990    0.9160  -21.7250 H   0  0  0  0  0  0
   -2.8877    3.7187  -28.5440 H   0  0  0  0  0  0
    6.8840    9.2140  -20.2590 O   0  0  0  0  0  0
    3.7980    7.5580  -20.9170 N   0  3  0  0  0  0
    5.9990    9.3280  -22.1960 N   0  0  0  0  0  0
    7.3310    9.5480  -22.3170 N   0  0  0  0  0  0
    3.5070    7.5700  -22.3960 C   0  0  0  0  0  0
    4.3770    8.8350  -20.3630 C   0  0  0  0  0  0
    5.7460    9.1270  -20.9450 C   0  0  0  0  0  0
    7.8500    9.4770  -21.1360 C   0  0  0  0  0  0
    9.3140    9.6640  -20.8060 C   0  0  0  0  0  0
    4.4180    6.7920  -20.7050 H   0  0  0  0  0  0
    2.9557    7.3289  -20.4128 H   0  0  0  0  0  0
    4.4229    7.8300  -22.9469 H   0  0  0  0  0  0
    2.7574    8.3446  -22.6152 H   0  0  0  0  0  0
    4.4530    8.7570  -19.2684 H   0  0  0  0  0  0
    3.6979    9.6711  -20.5860 H   0  0  0  0  0  0
    9.8753    9.8691  -21.7295 H   0  0  0  0  0  0
    9.4280   10.5099  -20.1121 H   0  0  0  0  0  0
    9.7038    8.7494  -20.3352 H   0  0  0  0  0  0
  1  2  2  0  0  0
  1  3  1  0  0  0
  1 34  1  0  0  0
  2  6  1  0  0  0
  2 35  1  0  0  0
  3  5  2  0  0  0
  3 27  1  0  0  0
  4  5  1  0  0  0
  4  6  2  0  0  0
  4 18  1  0  0  0
  5 24  1  0  0  0
  6 10  1  0  0  0
  7 10  2  0  0  0
  7 23  1  0  0  0
  7 33  1  0  0  0
  8 21  1  0  0  0
  8 22  1  0  0  0
  8 36  1  0  0  0
  8 37  1  0  0  0
  9 21  1  0  0  0
  9 31  1  0  0  0
  9 38  1  0  0  0
  9 39  1  0  0  0
 10 40  1  0  0  0
 11 12  1  0  0  0
 11 14  2  0  0  0
 11 15  1  0  0  0
 12 17  1  0  0  0
 12 28  2  0  0  0
 13 28  1  0  0  0
 13 29  2  0  0  0
 13 56  1  0  0  0
 14 29  1  0  0  0
 14 31  1  0  0  0
 15 30  2  0  0  0
 15 41  1  0  0  0
 16 17  2  0  0  0
 16 18  1  0  0  0
 16 30  1  0  0  0
 17 26  1  0  0  0
 18 23  2  0  0  0
 19 20  1  0  0  0
 19 31  1  0  0  0
 19 42  1  0  0  0
 19 43  1  0  0  0
 20 22  1  0  0  0
 20 32  1  0  0  0
 20 44  1  0  0  0
 21 32  1  0  0  0
 21 45  1  0  0  0
 22 46  1  0  0  0
 22 47  1  0  0  0
 23 48  1  0  0  0
 24 25  3  0  0  0
 25 49  1  0  0  0
 32 50  1  0  0  0
 33 51  1  0  0  0
 52 58  1  0  0  0
 52 59  1  0  0  0
 53 56  1  0  0  0
 53 57  1  0  0  0
 53 61  1  0  0  0
 53 62  1  0  0  0
 54 55  1  0  0  0
 54 58  2  0  0  0
 55 59  2  0  0  0
 56 63  1  0  0  0
 56 64  1  0  0  0
 57 58  1  0  0  0
 57 65  1  0  0  0
 57 66  1  0  0  0
 59 60  1  0  0  0
 60 67  1  0  0  0
 60 68  1  0  0  0
 60 69  1  0  0  0
M  CHG  1  53   1
M  END
> <s_m_entry_id>
451

> <s_m_entry_name>
000000451.1

> <s_m_Source_Path>
/Users/zaksoul/Documents/2

> <s_m_Source_File>
000000451.mol2

> <i_m_Source_File_Index>
1

$$$$
No_0_475
                    3D
 Schrodinger Suite 2022-4.
 69 75  0  0  1  0            999 V2000
   -5.2940    3.4510  -22.2610 C   0  0  0  0  0  0
   -5.5170    3.6010  -23.6090 C   0  0  0  0  0  0
   -4.0640    3.2270  -21.8730 C   0  0  0  0  0  0
   -3.1020    3.3110  -24.0100 C   0  0  0  0  0  0
   -2.9860    3.1060  -22.5790 C   0  0  0  0  0  0
   -4.4350    3.5390  -24.5820 C   0  0  0  0  0  0
   -3.6060    3.5150  -26.7540 C   0  0  0  0  0  0
    5.9490    3.0720  -21.1490 C   0  0  0  0  0  0
    5.8950    3.1460  -23.7040 C   0  0  0  0  0  0
   -4.6430    3.6270  -25.9280 C   0  0  0  0  0  0
    2.1050    3.6330  -23.8620 C   0  0  0  0  0  0
    1.2580    4.7360  -23.6200 C   0  0  0  0  0  0
    3.0140    5.9770  -22.9120 C   0  0  0  0  0  0
    3.4910    3.8540  -23.5080 C   0  0  0  0  0  0
    1.5980    2.4910  -24.5120 C   0  0  0  0  0  0
   -0.5440    3.2730  -24.4940 C   0  0  0  0  0  0
   -0.0560    4.5170  -23.9100 C   0  0  0  0  0  0
   -1.9840    3.2470  -24.8970 C   0  0  0  0  0  0
    4.1240    1.3750  -23.1300 C   0  0  0  0  0  0
    5.0230    1.0640  -21.9440 C   0  0  2  0  0  0
    6.6100    2.6150  -22.4670 C   0  0  2  0  0  0
    4.9510    2.0940  -20.8050 C   0  0  0  0  0  0
   -2.2630    3.3640  -26.3380 C   0  0  0  0  0  0
   -1.6560    2.7300  -21.9250 C   0  0  0  0  0  0
   -0.6380    2.4110  -21.3760 C   0  0  0  0  0  0
   -0.9240    5.5570  -23.6210 F   0  0  0  0  0  0
   -3.8970    3.0230  -20.4780 F   0  0  0  0  0  0
    1.6990    5.9160  -23.1040 N   0  0  0  0  0  0
    3.9310    5.0240  -23.0770 N   0  0  0  0  0  0
    0.3040    2.3730  -24.8580 N   0  0  0  0  0  0
    4.4300    2.8170  -23.6260 N   0  0  0  0  0  0
    6.4440    1.1410  -22.3810 N   0  0  1  0  0  0
   -3.7320    3.4910  -28.1480 O   0  0  0  0  0  0
   -6.1209    3.5202  -21.5635 H   0  0  0  0  0  0
   -6.5225    3.7716  -23.9763 H   0  0  0  0  0  0
    5.4674    4.0493  -21.3004 H   0  0  0  0  0  0
    6.7084    3.1144  -20.3543 H   0  0  0  0  0  0
    6.3268    2.6839  -24.6040 H   0  0  0  0  0  0
    6.0222    4.2371  -23.7615 H   0  0  0  0  0  0
   -5.6437    3.7876  -26.3124 H   0  0  0  0  0  0
    2.2584    1.6650  -24.7499 H   0  0  0  0  0  0
    3.0710    1.3105  -22.8183 H   0  0  0  0  0  0
    4.3238    0.6585  -23.9404 H   0  0  0  0  0  0
    4.8021    0.0584  -21.5567 H   0  0  0  0  0  0
    7.6756    2.8874  -22.4852 H   0  0  0  0  0  0
    3.9594    2.5701  -20.8070 H   0  0  0  0  0  0
    5.2276    1.6094  -19.8570 H   0  0  0  0  0  0
   -1.4682    3.3369  -27.0746 H   0  0  0  0  0  0
    0.2583    2.1309  -20.8929 H   0  0  0  0  0  0
    7.0746    0.6718  -21.6403 H   0  0  0  0  0  0
   -2.8721    3.4059  -28.5428 H   0  0  0  0  0  0
    7.2030    9.1140  -21.0240 O   0  0  0  0  0  0
    4.1610    7.2620  -21.0910 N   0  3  0  0  0  0
    5.8910    9.2720  -22.6960 N   0  0  0  0  0  0
    7.1430    9.6040  -23.0980 N   0  0  0  0  0  0
    3.5370    7.3370  -22.4610 C   0  0  0  0  0  0
    4.7690    8.5450  -20.5880 C   0  0  0  0  0  0
    5.9460    8.9790  -21.4400 C   0  0  0  0  0  0
    7.9230    9.5040  -22.0730 C   0  0  0  0  0  0
    9.4090    9.7860  -22.0680 C   0  0  0  0  0  0
    4.8601    6.5359  -21.0830 H   0  0  0  0  0  0
    3.4739    6.9370  -20.4289 H   0  0  0  0  0  0
    4.2827    7.6998  -23.1837 H   0  0  0  0  0  0
    2.7090    8.0610  -22.4470 H   0  0  0  0  0  0
    5.1001    8.4100  -19.5477 H   0  0  0  0  0  0
    4.0058    9.3372  -20.5880 H   0  0  0  0  0  0
    9.7280   10.0890  -23.0762 H   0  0  0  0  0  0
    9.6260   10.5960  -21.3560 H   0  0  0  0  0  0
    9.9541    8.8789  -21.7680 H   0  0  0  0  0  0
  1  2  2  0  0  0
  1  3  1  0  0  0
  1 34  1  0  0  0
  2  6  1  0  0  0
  2 35  1  0  0  0
  3  5  2  0  0  0
  3 27  1  0  0  0
  4  5  1  0  0  0
  4  6  2  0  0  0
  4 18  1  0  0  0
  5 24  1  0  0  0
  6 10  1  0  0  0
  7 10  2  0  0  0
  7 23  1  0  0  0
  7 33  1  0  0  0
  8 21  1  0  0  0
  8 22  1  0  0  0
  8 36  1  0  0  0
  8 37  1  0  0  0
  9 21  1  0  0  0
  9 31  1  0  0  0
  9 38  1  0  0  0
  9 39  1  0  0  0
 10 40  1  0  0  0
 11 12  1  0  0  0
 11 14  2  0  0  0
 11 15  1  0  0  0
 12 17  1  0  0  0
 12 28  2  0  0  0
 13 28  1  0  0  0
 13 29  2  0  0  0
 13 56  1  0  0  0
 14 29  1  0  0  0
 14 31  1  0  0  0
 15 30  2  0  0  0
 15 41  1  0  0  0
 16 17  2  0  0  0
 16 18  1  0  0  0
 16 30  1  0  0  0
 17 26  1  0  0  0
 18 23  2  0  0  0
 19 20  1  0  0  0
 19 31  1  0  0  0
 19 42  1  0  0  0
 19 43  1  0  0  0
 20 22  1  0  0  0
 20 32  1  0  0  0
 20 44  1  0  0  0
 21 32  1  0  0  0
 21 45  1  0  0  0
 22 46  1  0  0  0
 22 47  1  0  0  0
 23 48  1  0  0  0
 24 25  3  0  0  0
 25 49  1  0  0  0
 32 50  1  0  0  0
 33 51  1  0  0  0
 52 58  1  0  0  0
 52 59  1  0  0  0
 53 56  1  0  0  0
 53 57  1  0  0  0
 53 61  1  0  0  0
 53 62  1  0  0  0
 54 55  1  0  0  0
 54 58  2  0  0  0
 55 59  2  0  0  0
 56 63  1  0  0  0
 56 64  1  0  0  0
 57 58  1  0  0  0
 57 65  1  0  0  0
 57 66  1  0  0  0
 59 60  1  0  0  0
 60 67  1  0  0  0
 60 68  1  0  0  0
 60 69  1  0  0  0
M  CHG  1  53   1
M  END
> <s_m_entry_id>
452

> <s_m_entry_name>
000000452.1

> <s_m_Source_Path>
/Users/zaksoul/Documents/2

> <s_m_Source_File>
000000452.mol2

> <i_m_Source_File_Index>
1

$$$$
No_0_476
                    3D
 Schrodinger Suite 2022-4.
 75 80  0  0  1  0            999 V2000
   -5.3920    3.4400  -21.7970 C   0  0  0  0  0  0
   -5.6520    3.6290  -23.1340 C   0  0  0  0  0  0
   -4.1530    3.2040  -21.4480 C   0  0  0  0  0  0
   -3.2480    3.3500  -23.6070 C   0  0  0  0  0  0
   -3.0940    3.1040  -22.1860 C   0  0  0  0  0  0
   -4.5960    3.5940  -24.1370 C   0  0  0  0  0  0
   -3.8250    3.6330  -26.3290 C   0  0  0  0  0  0
    5.8760    3.0260  -20.9960 C   0  0  0  0  0  0
    5.7530    3.1740  -23.5460 C   0  0  0  0  0  0
   -4.8390    3.7220  -25.4730 C   0  0  0  0  0  0
    1.9610    3.6670  -23.5890 C   0  0  0  0  0  0
    1.1220    4.7620  -23.2930 C   0  0  0  0  0  0
    2.8980    5.9820  -22.5970 C   0  0  0  0  0  0
    3.3560    3.8770  -23.2650 C   0  0  0  0  0  0
    1.4360    2.5430  -24.2570 C   0  0  0  0  0  0
   -0.7040    3.3250  -24.1600 C   0  0  0  0  0  0
   -0.1990    4.5510  -23.5540 C   0  0  0  0  0  0
   -2.1540    3.3110  -24.5250 C   0  0  0  0  0  0
    3.9960    1.3870  -22.9760 C   0  0  0  0  0  0
    4.9270    1.0420  -21.8240 C   0  0  2  0  0  0
    6.5010    2.6070  -22.3450 C   0  0  2  0  0  0
    4.8860    2.0390  -20.6540 C   0  0  0  0  0  0
   -2.4720    3.4700  -25.9540 C   0  0  0  0  0  0
   -1.7480    2.7080  -21.5790 C   0  0  0  0  0  0
   -0.7160    2.3740  -21.0670 C   0  0  0  0  0  0
   -1.0590    5.5830  -23.2120 F   0  0  0  0  0  0
   -3.9490    2.9610  -20.0650 F   0  0  0  0  0  0
    1.5780    5.9260  -22.7540 N   0  0  0  0  0  0
    3.8090    5.0330  -22.8130 N   0  0  0  0  0  0
    0.1330    2.4360  -24.5720 N   0  0  0  0  0  0
    4.2910    2.8430  -23.4390 N   0  0  0  0  0  0
    6.3360    1.1310  -22.2960 N   0  0  1  0  0  0
   -3.9880    3.6500  -27.7200 O   0  0  0  0  0  0
   -6.2001    3.4892  -21.0762 H   0  0  0  0  0  0
   -6.6672    3.8097  -23.4684 H   0  0  0  0  0  0
    5.3918    4.0075  -21.1070 H   0  0  0  0  0  0
    6.6562    3.0462  -20.2208 H   0  0  0  0  0  0
    6.1606    2.7382  -24.4701 H   0  0  0  0  0  0
    5.8802    4.2662  -23.5753 H   0  0  0  0  0  0
   -5.8495    3.8926  -25.8262 H   0  0  0  0  0  0
    2.0896    1.7248  -24.5371 H   0  0  0  0  0  0
    2.9518    1.3143  -22.6377 H   0  0  0  0  0  0
    4.1747    0.6945  -23.8118 H   0  0  0  0  0  0
    4.7150    0.0256  -21.4606 H   0  0  0  0  0  0
    7.5658    2.8805  -22.3834 H   0  0  0  0  0  0
    3.8951    2.5153  -20.6167 H   0  0  0  0  0  0
    5.1878    1.5272  -19.7283 H   0  0  0  0  0  0
   -1.6965    3.4640  -26.7114 H   0  0  0  0  0  0
    0.1926    2.0801  -20.6162 H   0  0  0  0  0  0
    6.9858    0.6405  -21.5864 H   0  0  0  0  0  0
   -3.1390    3.5748  -28.1396 H   0  0  0  0  0  0
    6.7070    8.7220  -23.0490 N   0  3  0  0  0  0
    4.7690    9.8100  -22.0690 N   0  0  0  0  0  0
    4.8100    7.5150  -22.5700 N   0  0  0  0  0  0
    5.4350    8.7230  -22.5580 C   0  0  0  0  0  0
    5.0410   11.1950  -22.4470 C   0  0  0  0  0  0
    7.7150    9.7400  -22.7680 C   0  0  0  0  0  0
    3.4340    7.3280  -22.1210 C   0  0  0  0  0  0
    7.9460    9.8660  -21.2510 C   0  0  0  0  0  0
    4.9550   11.3750  -23.9730 C   0  0  0  0  0  0
    7.0201    7.9608  -23.6682 H   0  0  0  0  0  0
    4.0120    9.6840  -21.3820 H   0  0  0  0  0  0
    5.3109    6.6801  -22.9060 H   0  0  0  0  0  0
    6.0463   11.4771  -22.1009 H   0  0  0  0  0  0
    4.3120   11.8580  -21.9580 H   0  0  0  0  0  0
    7.3791   10.7077  -23.1689 H   0  0  0  0  0  0
    8.6595    9.4669  -23.2613 H   0  0  0  0  0  0
    2.8048    8.1362  -22.5221 H   0  0  0  0  0  0
    3.3980    7.3690  -21.0224 H   0  0  0  0  0  0
    8.7067   10.6367  -21.0581 H   0  0  0  0  0  0
    7.0047   10.1501  -20.7578 H   0  0  0  0  0  0
    8.2921    8.9016  -20.8508 H   0  0  0  0  0  0
    5.1641   12.4234  -24.2321 H   0  0  0  0  0  0
    5.6939   10.7231  -24.4619 H   0  0  0  0  0  0
    3.9456   11.1069  -24.3182 H   0  0  0  0  0  0
  1  2  2  0  0  0
  1  3  1  0  0  0
  1 34  1  0  0  0
  2  6  1  0  0  0
  2 35  1  0  0  0
  3  5  2  0  0  0
  3 27  1  0  0  0
  4  5  1  0  0  0
  4  6  2  0  0  0
  4 18  1  0  0  0
  5 24  1  0  0  0
  6 10  1  0  0  0
  7 10  2  0  0  0
  7 23  1  0  0  0
  7 33  1  0  0  0
  8 21  1  0  0  0
  8 22  1  0  0  0
  8 36  1  0  0  0
  8 37  1  0  0  0
  9 21  1  0  0  0
  9 31  1  0  0  0
  9 38  1  0  0  0
  9 39  1  0  0  0
 10 40  1  0  0  0
 11 12  1  0  0  0
 11 14  2  0  0  0
 11 15  1  0  0  0
 12 17  1  0  0  0
 12 28  2  0  0  0
 13 28  1  0  0  0
 13 29  2  0  0  0
 13 58  1  0  0  0
 14 29  1  0  0  0
 14 31  1  0  0  0
 15 30  2  0  0  0
 15 41  1  0  0  0
 16 17  2  0  0  0
 16 18  1  0  0  0
 16 30  1  0  0  0
 17 26  1  0  0  0
 18 23  2  0  0  0
 19 20  1  0  0  0
 19 31  1  0  0  0
 19 42  1  0  0  0
 19 43  1  0  0  0
 20 22  1  0  0  0
 20 32  1  0  0  0
 20 44  1  0  0  0
 21 32  1  0  0  0
 21 45  1  0  0  0
 22 46  1  0  0  0
 22 47  1  0  0  0
 23 48  1  0  0  0
 24 25  3  0  0  0
 25 49  1  0  0  0
 32 50  1  0  0  0
 33 51  1  0  0  0
 52 55  2  0  0  0
 52 57  1  0  0  0
 52 61  1  0  0  0
 53 55  1  0  0  0
 53 56  1  0  0  0
 53 62  1  0  0  0
 54 55  1  0  0  0
 54 58  1  0  0  0
 54 63  1  0  0  0
 56 60  1  0  0  0
 56 64  1  0  0  0
 56 65  1  0  0  0
 57 59  1  0  0  0
 57 66  1  0  0  0
 57 67  1  0  0  0
 58 68  1  0  0  0
 58 69  1  0  0  0
 59 70  1  0  0  0
 59 71  1  0  0  0
 59 72  1  0  0  0
 60 73  1  0  0  0
 60 74  1  0  0  0
 60 75  1  0  0  0
M  CHG  1  52   1
M  END
> <s_m_entry_id>
453

> <s_m_entry_name>
000000453.1

> <s_m_Source_Path>
/Users/zaksoul/Documents/2

> <s_m_Source_File>
000000453.mol2

> <i_m_Source_File_Index>
1

$$$$
No_0_477
                    3D
 Schrodinger Suite 2022-4.
 68 74  0  0  1  0            999 V2000
   -4.9630    3.4610  -22.0940 C   0  0  0  0  0  0
   -5.2390    3.6210  -23.4310 C   0  0  0  0  0  0
   -3.7180    3.2450  -21.7540 C   0  0  0  0  0  0
   -2.8380    3.3580  -23.9250 C   0  0  0  0  0  0
   -2.6660    3.1410  -22.5010 C   0  0  0  0  0  0
   -4.1940    3.5780  -24.4440 C   0  0  0  0  0  0
   -3.4470    3.5830  -26.6460 C   0  0  0  0  0  0
    6.3170    3.1820  -21.4090 C   0  0  0  0  0  0
    6.1650    3.2790  -23.9600 C   0  0  0  0  0  0
   -4.4530    3.6770  -25.7810 C   0  0  0  0  0  0
    2.3680    3.7300  -23.9710 C   0  0  0  0  0  0
    1.5200    4.8230  -23.6860 C   0  0  0  0  0  0
    3.2890    6.0750  -23.0330 C   0  0  0  0  0  0
    3.7640    3.9620  -23.6660 C   0  0  0  0  0  0
    1.8480    2.5890  -24.6110 C   0  0  0  0  0  0
   -0.2990    3.3500  -24.5050 C   0  0  0  0  0  0
    0.1980    4.5930  -23.9280 C   0  0  0  0  0  0
   -1.7530    3.3130  -24.8540 C   0  0  0  0  0  0
    4.4340    1.4850  -23.3360 C   0  0  0  0  0  0
    5.3810    1.1720  -22.1880 C   0  0  2  0  0  0
    6.9320    2.7440  -22.7560 C   0  0  2  0  0  0
    5.3410    2.1920  -21.0370 C   0  0  0  0  0  0
   -2.0880    3.4410  -26.2830 C   0  0  0  0  0  0
   -1.3090    2.7720  -21.9010 C   0  0  0  0  0  0
   -0.2680    2.4590  -21.3940 C   0  0  0  0  0  0
   -0.6690    5.6220  -23.5970 F   0  0  0  0  0  0
   -3.4960    3.0300  -20.3690 F   0  0  0  0  0  0
    1.9690    6.0020  -23.1750 N   0  0  0  0  0  0
    4.2090    5.1320  -23.2410 N   0  0  0  0  0  0
    0.5430    2.4610  -24.9100 N   0  0  0  0  0  0
    4.7080    2.9350  -23.8300 N   0  0  0  0  0  0
    6.7830    1.2670  -22.6770 N   0  0  1  0  0  0
   -3.6260    3.5700  -28.0350 O   0  0  0  0  0  0
   -5.7633    3.5152  -21.3649 H   0  0  0  0  0  0
   -6.2594    3.7846  -23.7581 H   0  0  0  0  0  0
    5.8206    4.1557  -21.5331 H   0  0  0  0  0  0
    7.1052    3.2254  -20.6430 H   0  0  0  0  0  0
    6.5678    2.8297  -24.8797 H   0  0  0  0  0  0
    6.2800    4.3718  -24.0115 H   0  0  0  0  0  0
   -5.4693    3.8306  -26.1254 H   0  0  0  0  0  0
    2.5066    1.7718  -24.8821 H   0  0  0  0  0  0
    3.3941    1.4083  -22.9857 H   0  0  0  0  0  0
    4.6106    0.7786  -24.1605 H   0  0  0  0  0  0
    5.1832    0.1609  -21.8025 H   0  0  0  0  0  0
    7.9934    3.0275  -22.8115 H   0  0  0  0  0  0
    4.3456    2.6584  -20.9976 H   0  0  0  0  0  0
    5.6579    1.7004  -20.1054 H   0  0  0  0  0  0
   -1.3210    3.4279  -27.0489 H   0  0  0  0  0  0
    0.6484    2.1829  -20.9478 H   0  0  0  0  0  0
    7.4458    0.7977  -21.9650 H   0  0  0  0  0  0
   -2.7808    3.4968  -28.4625 H   0  0  0  0  0  0
    3.1450    8.5200  -23.0180 O   0  0  0  0  0  0
    4.8000    7.4550  -21.8820 O   0  0  0  0  0  0
    4.5470    9.7310  -20.3110 N   0  0  0  0  0  0
    6.0400    9.8300  -22.1600 N   0  3  0  0  0  0
    4.9970   10.2280  -23.0960 C   0  0  0  0  0  0
    3.3940   10.1270  -21.1060 C   0  0  0  0  0  0
    5.7620    9.6380  -20.8650 C   0  0  0  0  0  0
    3.5800    9.8410  -22.6130 C   0  0  2  0  0  0
    3.8110    7.4220  -22.5940 C   0  0  0  0  0  0
    4.4201    9.5221  -19.3104 H   0  0  0  0  0  0
    7.0004    9.6959  -22.5072 H   0  0  0  0  0  0
    5.1889    9.7653  -24.0753 H   0  0  0  0  0  0
    5.0440   11.3153  -23.2560 H   0  0  0  0  0  0
    3.2000   11.1997  -20.9590 H   0  0  0  0  0  0
    2.4998    9.5999  -20.7419 H   0  0  0  0  0  0
    6.6239    9.3880  -20.2481 H   0  0  0  0  0  0
    2.9001   10.5379  -23.1249 H   0  0  0  0  0  0
  1  2  2  0  0  0
  1  3  1  0  0  0
  1 34  1  0  0  0
  2  6  1  0  0  0
  2 35  1  0  0  0
  3  5  2  0  0  0
  3 27  1  0  0  0
  4  5  1  0  0  0
  4  6  2  0  0  0
  4 18  1  0  0  0
  5 24  1  0  0  0
  6 10  1  0  0  0
  7 10  2  0  0  0
  7 23  1  0  0  0
  7 33  1  0  0  0
  8 21  1  0  0  0
  8 22  1  0  0  0
  8 36  1  0  0  0
  8 37  1  0  0  0
  9 21  1  0  0  0
  9 31  1  0  0  0
  9 38  1  0  0  0
  9 39  1  0  0  0
 10 40  1  0  0  0
 11 12  1  0  0  0
 11 14  2  0  0  0
 11 15  1  0  0  0
 12 17  1  0  0  0
 12 28  2  0  0  0
 13 28  1  0  0  0
 13 29  2  0  0  0
 13 60  1  0  0  0
 14 29  1  0  0  0
 14 31  1  0  0  0
 15 30  2  0  0  0
 15 41  1  0  0  0
 16 17  2  0  0  0
 16 18  1  0  0  0
 16 30  1  0  0  0
 17 26  1  0  0  0
 18 23  2  0  0  0
 19 20  1  0  0  0
 19 31  1  0  0  0
 19 42  1  0  0  0
 19 43  1  0  0  0
 20 22  1  0  0  0
 20 32  1  0  0  0
 20 44  1  0  0  0
 21 32  1  0  0  0
 21 45  1  0  0  0
 22 46  1  0  0  0
 22 47  1  0  0  0
 23 48  1  0  0  0
 24 25  3  0  0  0
 25 49  1  0  0  0
 32 50  1  0  0  0
 33 51  1  0  0  0
 52 59  1  0  0  0
 52 60  1  0  0  0
 53 60  2  0  0  0
 54 57  1  0  0  0
 54 58  1  0  0  0
 54 61  1  0  0  0
 55 56  1  0  0  0
 55 58  2  0  0  0
 55 62  1  0  0  0
 56 59  1  0  0  0
 56 63  1  0  0  0
 56 64  1  0  0  0
 57 59  1  0  0  0
 57 65  1  0  0  0
 57 66  1  0  0  0
 58 67  1  0  0  0
 59 68  1  0  0  0
M  CHG  1  55   1
M  END
> <s_m_entry_id>
454

> <s_m_entry_name>
000000454.1

> <s_m_Source_Path>
/Users/zaksoul/Documents/2

> <s_m_Source_File>
000000454.mol2

> <i_m_Source_File_Index>
1

$$$$
No_0_478
                    3D
 Schrodinger Suite 2022-4.
 67 72  0  0  1  0            999 V2000
   -5.0240    3.5130  -22.3320 C   0  0  0  0  0  0
   -5.2640    3.7130  -23.6710 C   0  0  0  0  0  0
   -3.7870    3.2980  -21.9650 C   0  0  0  0  0  0
   -2.8480    3.4890  -24.1050 C   0  0  0  0  0  0
   -2.7130    3.2290  -22.6850 C   0  0  0  0  0  0
   -4.1910    3.7130  -24.6560 C   0  0  0  0  0  0
   -3.3840    3.7950  -26.8340 C   0  0  0  0  0  0
    6.2340    3.3190  -21.3400 C   0  0  0  0  0  0
    6.1530    3.4960  -23.8890 C   0  0  0  0  0  0
   -4.4140    3.8520  -25.9950 C   0  0  0  0  0  0
    2.3530    3.9120  -23.9930 C   0  0  0  0  0  0
    1.4860    4.9860  -23.6980 C   0  0  0  0  0  0
    3.2240    6.2330  -22.9560 C   0  0  0  0  0  0
    3.7380    4.1470  -23.6420 C   0  0  0  0  0  0
    1.8620    2.7870  -24.6840 C   0  0  0  0  0  0
   -0.2940    3.5230  -24.6140 C   0  0  0  0  0  0
    0.1740    4.7520  -23.9840 C   0  0  0  0  0  0
   -1.7380    3.4840  -25.0040 C   0  0  0  0  0  0
    4.4240    1.6670  -23.3720 C   0  0  0  0  0  0
    5.3410    1.3260  -22.2080 C   0  0  2  0  0  0
    6.8910    2.9300  -22.6820 C   0  0  2  0  0  0
    5.2590    2.3080  -21.0270 C   0  0  0  0  0  0
   -2.0340    3.6540  -26.4370 C   0  0  0  0  0  0
   -1.3700    2.8530  -22.0590 C   0  0  0  0  0  0
   -0.3400    2.5340  -21.5330 C   0  0  0  0  0  0
   -0.7120    5.7620  -23.6460 F   0  0  0  0  0  0
   -3.6010    3.0420  -20.5810 F   0  0  0  0  0  0
    1.9090    6.1530  -23.1380 N   0  0  0  0  0  0
    4.1590    5.3060  -23.1680 N   0  0  0  0  0  0
    0.5680    2.6560  -25.0220 N   0  0  0  0  0  0
    4.6960    3.1340  -23.8120 N   0  0  0  0  0  0
    6.7560    1.4500  -22.6540 N   0  0  1  0  0  0
   -3.5230    3.8250  -28.2270 O   0  0  0  0  0  0
   -5.8454    3.5371  -21.6251 H   0  0  0  0  0  0
   -6.2766    3.8776  -24.0212 H   0  0  0  0  0  0
    5.7315    4.2917  -21.4470 H   0  0  0  0  0  0
    7.0004    3.3452  -20.5514 H   0  0  0  0  0  0
    6.5849    3.0803  -24.8113 H   0  0  0  0  0  0
    6.2579    4.5909  -23.9031 H   0  0  0  0  0  0
   -5.4217    4.0066  -26.3634 H   0  0  0  0  0  0
    2.5370    1.9856  -24.9618 H   0  0  0  0  0  0
    3.3758    1.5691  -23.0532 H   0  0  0  0  0  0
    4.6308    0.9880  -24.2124 H   0  0  0  0  0  0
    5.1441    0.3013  -21.8597 H   0  0  0  0  0  0
    7.9507    3.2247  -22.6981 H   0  0  0  0  0  0
    4.2585    2.7643  -21.0007 H   0  0  0  0  0  0
    5.5548    1.7911  -20.1022 H   0  0  0  0  0  0
   -1.2459    3.6731  -27.1810 H   0  0  0  0  0  0
    0.5664    2.2529  -21.0698 H   0  0  0  0  0  0
    7.4031    0.9644  -21.9385 H   0  0  0  0  0  0
   -2.6657    3.7725  -28.6329 H   0  0  0  0  0  0
    4.7930    7.5940  -21.6400 O   0  0  0  0  0  0
    3.1250    8.5780  -22.8090 O   0  0  0  0  0  0
    5.0460   10.8300  -23.7440 N   0  3  0  0  0  0
    5.9270    9.6150  -23.6820 C   0  0  0  0  0  0
    6.4310    9.3590  -22.2480 C   0  0  0  0  0  0
    5.3380    8.8780  -21.2690 C   0  0  0  0  0  0
    3.7190    7.5710  -22.4600 C   0  0  0  0  0  0
    4.7337   10.9711  -24.6919 H   0  0  0  0  0  0
    4.2479   10.6970  -23.1429 H   0  0  0  0  0  0
    5.5658   11.6377  -23.4381 H   0  0  0  0  0  0
    6.7873    9.7529  -24.3535 H   0  0  0  0  0  0
    5.3658    8.7377  -24.0361 H   0  0  0  0  0  0
    6.8952   10.2755  -21.8548 H   0  0  0  0  0  0
    7.2461    8.6209  -22.2750 H   0  0  0  0  0  0
    5.7571    8.8180  -20.2537 H   0  0  0  0  0  0
    4.5284    9.6217  -21.2310 H   0  0  0  0  0  0
  1  2  2  0  0  0
  1  3  1  0  0  0
  1 34  1  0  0  0
  2  6  1  0  0  0
  2 35  1  0  0  0
  3  5  2  0  0  0
  3 27  1  0  0  0
  4  5  1  0  0  0
  4  6  2  0  0  0
  4 18  1  0  0  0
  5 24  1  0  0  0
  6 10  1  0  0  0
  7 10  2  0  0  0
  7 23  1  0  0  0
  7 33  1  0  0  0
  8 21  1  0  0  0
  8 22  1  0  0  0
  8 36  1  0  0  0
  8 37  1  0  0  0
  9 21  1  0  0  0
  9 31  1  0  0  0
  9 38  1  0  0  0
  9 39  1  0  0  0
 10 40  1  0  0  0
 11 12  1  0  0  0
 11 14  2  0  0  0
 11 15  1  0  0  0
 12 17  1  0  0  0
 12 28  2  0  0  0
 13 28  1  0  0  0
 13 29  2  0  0  0
 13 58  1  0  0  0
 14 29  1  0  0  0
 14 31  1  0  0  0
 15 30  2  0  0  0
 15 41  1  0  0  0
 16 17  2  0  0  0
 16 18  1  0  0  0
 16 30  1  0  0  0
 17 26  1  0  0  0
 18 23  2  0  0  0
 19 20  1  0  0  0
 19 31  1  0  0  0
 19 42  1  0  0  0
 19 43  1  0  0  0
 20 22  1  0  0  0
 20 32  1  0  0  0
 20 44  1  0  0  0
 21 32  1  0  0  0
 21 45  1  0  0  0
 22 46  1  0  0  0
 22 47  1  0  0  0
 23 48  1  0  0  0
 24 25  3  0  0  0
 25 49  1  0  0  0
 32 50  1  0  0  0
 33 51  1  0  0  0
 52 57  1  0  0  0
 52 58  1  0  0  0
 53 58  2  0  0  0
 54 55  1  0  0  0
 54 59  1  0  0  0
 54 60  1  0  0  0
 54 61  1  0  0  0
 55 56  1  0  0  0
 55 62  1  0  0  0
 55 63  1  0  0  0
 56 57  1  0  0  0
 56 64  1  0  0  0
 56 65  1  0  0  0
 57 66  1  0  0  0
 57 67  1  0  0  0
M  CHG  1  54   1
M  END
> <s_m_entry_id>
455

> <s_m_entry_name>
000000455.1

> <s_m_Source_Path>
/Users/zaksoul/Documents/2

> <s_m_Source_File>
000000455.mol2

> <i_m_Source_File_Index>
1

$$$$
No_0_479
                    3D
 Schrodinger Suite 2022-4.
 66 71  0  0  1  0            999 V2000
   -5.0350    3.5700  -22.1500 C   0  0  0  0  0  0
   -5.2770    3.7560  -23.4910 C   0  0  0  0  0  0
   -3.7990    3.3480  -21.7830 C   0  0  0  0  0  0
   -2.8640    3.5040  -23.9290 C   0  0  0  0  0  0
   -2.7280    3.2590  -22.5060 C   0  0  0  0  0  0
   -4.2070    3.7330  -24.4780 C   0  0  0  0  0  0
   -3.4050    3.7820  -26.6590 C   0  0  0  0  0  0
    6.2240    3.2790  -21.1870 C   0  0  0  0  0  0
    6.1370    3.4260  -23.7380 C   0  0  0  0  0  0
   -4.4320    3.8590  -25.8180 C   0  0  0  0  0  0
    2.3400    3.8770  -23.8360 C   0  0  0  0  0  0
    1.4850    4.9630  -23.5520 C   0  0  0  0  0  0
    3.2370    6.2020  -22.8300 C   0  0  0  0  0  0
    3.7280    4.1020  -23.4920 C   0  0  0  0  0  0
    1.8370    2.7480  -24.5120 C   0  0  0  0  0  0
   -0.3120    3.5070  -24.4450 C   0  0  0  0  0  0
    0.1700    4.7380  -23.8310 C   0  0  0  0  0  0
   -1.7570    3.4770  -24.8310 C   0  0  0  0  0  0
    4.3910    1.6200  -23.1940 C   0  0  0  0  0  0
    5.3090    1.2840  -22.0280 C   0  0  2  0  0  0
    6.8730    2.8670  -22.5260 C   0  0  2  0  0  0
    5.2400    2.2810  -20.8590 C   0  0  0  0  0  0
   -2.0550    3.6330  -26.2650 C   0  0  0  0  0  0
   -1.3870    2.8780  -21.8790 C   0  0  0  0  0  0
   -0.3590    2.5550  -21.3520 C   0  0  0  0  0  0
   -0.7050    5.7600  -23.5020 F   0  0  0  0  0  0
   -3.6120    3.1060  -20.3970 F   0  0  0  0  0  0
    1.9210    6.1320  -23.0070 N   0  0  0  0  0  0
    4.1620    5.2640  -23.0330 N   0  0  0  0  0  0
    0.5400    2.6270  -24.8450 N   0  0  0  0  0  0
    4.6770    3.0790  -23.6520 N   0  0  0  0  0  0
    6.7230    1.3890  -22.4800 N   0  0  1  0  0  0
   -3.5480    3.7960  -28.0520 O   0  0  0  0  0  0
   -5.8537    3.6111  -21.4407 H   0  0  0  0  0  0
   -6.2889    3.9267  -23.8403 H   0  0  0  0  0  0
    5.7304    4.2550  -21.3041 H   0  0  0  0  0  0
    6.9929    3.3073  -20.4009 H   0  0  0  0  0  0
    6.5618    2.9942  -24.6562 H   0  0  0  0  0  0
    6.2521    4.5196  -23.7653 H   0  0  0  0  0  0
   -5.4394    4.0185  -26.1852 H   0  0  0  0  0  0
    2.5035    1.9369  -24.7820 H   0  0  0  0  0  0
    3.3429    1.5362  -22.8709 H   0  0  0  0  0  0
    4.5888    0.9288  -24.0265 H   0  0  0  0  0  0
    5.1030    0.2653  -21.6676 H   0  0  0  0  0  0
    7.9353    3.1515  -22.5492 H   0  0  0  0  0  0
    4.2436    2.7464  -20.8358 H   0  0  0  0  0  0
    5.5336    1.7725  -19.9288 H   0  0  0  0  0  0
   -1.2687    3.6350  -27.0112 H   0  0  0  0  0  0
    0.5461    2.2710  -20.8880 H   0  0  0  0  0  0
    7.3676    0.9058  -21.7606 H   0  0  0  0  0  0
   -2.6925    3.7307  -28.4599 H   0  0  0  0  0  0
    4.8230    7.5560  -21.5350 O   0  0  0  0  0  0
    3.1680    8.5530  -22.7080 O   0  0  0  0  0  0
    6.4360    9.3340  -22.1090 N   0  0  0  0  0  0
    5.3780    8.8350  -21.1570 C   0  0  0  0  0  0
    7.2870   10.4140  -21.5000 C   0  0  0  0  0  0
    5.8860    9.7510  -23.4440 C   0  0  0  0  0  0
    3.7470    7.5410  -22.3510 C   0  0  0  0  0  0
    5.8022    8.7650  -20.1445 H   0  0  0  0  0  0
    4.5699    9.5781  -21.0880 H   0  0  0  0  0  0
    8.0411   10.7430  -22.2301 H   0  0  0  0  0  0
    6.6528   11.2673  -21.2179 H   0  0  0  0  0  0
    7.7921   10.0220  -20.6049 H   0  0  0  0  0  0
    6.7070   10.1030  -24.0860 H   0  0  0  0  0  0
    5.3899    8.8929  -23.9211 H   0  0  0  0  0  0
    5.1571   10.5629  -23.3040 H   0  0  0  0  0  0
  1  2  2  0  0  0
  1  3  1  0  0  0
  1 34  1  0  0  0
  2  6  1  0  0  0
  2 35  1  0  0  0
  3  5  2  0  0  0
  3 27  1  0  0  0
  4  5  1  0  0  0
  4  6  2  0  0  0
  4 18  1  0  0  0
  5 24  1  0  0  0
  6 10  1  0  0  0
  7 10  2  0  0  0
  7 23  1  0  0  0
  7 33  1  0  0  0
  8 21  1  0  0  0
  8 22  1  0  0  0
  8 36  1  0  0  0
  8 37  1  0  0  0
  9 21  1  0  0  0
  9 31  1  0  0  0
  9 38  1  0  0  0
  9 39  1  0  0  0
 10 40  1  0  0  0
 11 12  1  0  0  0
 11 14  2  0  0  0
 11 15  1  0  0  0
 12 17  1  0  0  0
 12 28  2  0  0  0
 13 28  1  0  0  0
 13 29  2  0  0  0
 13 58  1  0  0  0
 14 29  1  0  0  0
 14 31  1  0  0  0
 15 30  2  0  0  0
 15 41  1  0  0  0
 16 17  2  0  0  0
 16 18  1  0  0  0
 16 30  1  0  0  0
 17 26  1  0  0  0
 18 23  2  0  0  0
 19 20  1  0  0  0
 19 31  1  0  0  0
 19 42  1  0  0  0
 19 43  1  0  0  0
 20 22  1  0  0  0
 20 32  1  0  0  0
 20 44  1  0  0  0
 21 32  1  0  0  0
 21 45  1  0  0  0
 22 46  1  0  0  0
 22 47  1  0  0  0
 23 48  1  0  0  0
 24 25  3  0  0  0
 25 49  1  0  0  0
 32 50  1  0  0  0
 33 51  1  0  0  0
 52 55  1  0  0  0
 52 58  1  0  0  0
 53 58  2  0  0  0
 54 55  1  0  0  0
 54 56  1  0  0  0
 54 57  1  0  0  0
 55 59  1  0  0  0
 55 60  1  0  0  0
 56 61  1  0  0  0
 56 62  1  0  0  0
 56 63  1  0  0  0
 57 64  1  0  0  0
 57 65  1  0  0  0
 57 66  1  0  0  0
M  END
> <s_m_entry_id>
456

> <s_m_entry_name>
000000456.1

> <s_m_Source_Path>
/Users/zaksoul/Documents/2

> <s_m_Source_File>
000000456.mol2

> <i_m_Source_File_Index>
1

$$$$
No_0_480
                    3D
 Schrodinger Suite 2022-4.
 66 71  0  0  1  0            999 V2000
   -4.9950    3.7170  -22.3690 C   0  0  0  0  0  0
   -5.2150    3.9050  -23.7130 C   0  0  0  0  0  0
   -3.7720    3.4460  -21.9870 C   0  0  0  0  0  0
   -2.8090    3.5510  -24.1230 C   0  0  0  0  0  0
   -2.6990    3.3090  -22.6970 C   0  0  0  0  0  0
   -4.1350    3.8330  -24.6880 C   0  0  0  0  0  0
   -3.3090    3.8350  -26.8610 C   0  0  0  0  0  0
    6.2320    2.9690  -21.2790 C   0  0  0  0  0  0
    6.1780    3.1050  -23.8320 C   0  0  0  0  0  0
   -4.3410    3.9600  -26.0310 C   0  0  0  0  0  0
    2.4050    3.7110  -23.9740 C   0  0  0  0  0  0
    1.5920    4.8330  -23.7050 C   0  0  0  0  0  0
    3.3860    6.0030  -22.9710 C   0  0  0  0  0  0
    3.7970    3.8810  -23.6160 C   0  0  0  0  0  0
    1.8630    2.6000  -24.6500 C   0  0  0  0  0  0
   -0.2540    3.4470  -24.6110 C   0  0  0  0  0  0
    0.2720    4.6610  -23.9980 C   0  0  0  0  0  0
   -1.6940    3.4740  -25.0120 C   0  0  0  0  0  0
    4.3540    1.3750  -23.2970 C   0  0  0  0  0  0
    5.2440    1.0090  -22.1200 C   0  0  2  0  0  0
    6.8780    2.5230  -22.6090 C   0  0  2  0  0  0
    5.2040    2.0140  -20.9570 C   0  0  0  0  0  0
   -1.9700    3.6340  -26.4500 C   0  0  0  0  0  0
   -1.3810    2.8770  -22.0540 C   0  0  0  0  0  0
   -0.3730    2.5150  -21.5140 C   0  0  0  0  0  0
   -0.5640    5.7200  -23.6850 F   0  0  0  0  0  0
   -3.6110    3.2050  -20.5980 F   0  0  0  0  0  0
    2.0700    5.9860  -23.1620 N   0  0  0  0  0  0
    4.2740    5.0260  -23.1590 N   0  0  0  0  0  0
    0.5660    2.5300  -24.9970 N   0  0  0  0  0  0
    4.7040    2.8190  -23.7600 N   0  0  0  0  0  0
    6.6670    1.0530  -22.5570 N   0  0  1  0  0  0
   -3.4360    3.8480  -28.2550 O   0  0  0  0  0  0
   -5.8187    3.7953  -21.6687 H   0  0  0  0  0  0
   -6.2152    4.1149  -24.0745 H   0  0  0  0  0  0
    5.7801    3.9637  -21.4071 H   0  0  0  0  0  0
    6.9930    2.9700  -20.4847 H   0  0  0  0  0  0
    6.5956    2.6511  -24.7428 H   0  0  0  0  0  0
    6.3396    4.1926  -23.8633 H   0  0  0  0  0  0
   -5.3368    4.1588  -26.4104 H   0  0  0  0  0  0
    2.4986    1.7606  -24.9080 H   0  0  0  0  0  0
    3.2996    1.3356  -22.9859 H   0  0  0  0  0  0
    4.5325    0.6720  -24.1240 H   0  0  0  0  0  0
    4.9927    0.0016  -21.7566 H   0  0  0  0  0  0
    7.9514    2.7633  -22.6211 H   0  0  0  0  0  0
    4.2275    2.5204  -20.9469 H   0  0  0  0  0  0
    5.4665    1.4991  -20.0211 H   0  0  0  0  0  0
   -1.1768    3.5999  -27.1880 H   0  0  0  0  0  0
    0.5143    2.1969  -21.0379 H   0  0  0  0  0  0
    7.2828    0.5473  -21.8279 H   0  0  0  0  0  0
   -2.5794    3.7451  -28.6526 H   0  0  0  0  0  0
    5.2650    7.3910  -22.2200 O   0  0  0  0  0  0
    3.1880    8.2700  -22.3630 O   0  0  0  0  0  0
    6.3090    9.4690  -23.0500 N   0  0  0  0  0  0
    5.8250    8.6750  -21.8630 C   0  0  0  0  0  0
    7.2520   10.5700  -22.6520 C   0  0  0  0  0  0
    5.1940    9.9810  -23.9170 C   0  0  0  0  0  0
    3.9450    7.3220  -22.4930 C   0  0  0  0  0  0
    6.6571    8.5270  -21.1589 H   0  0  0  0  0  0
    5.0740    9.2610  -21.3130 H   0  0  0  0  0  0
    7.5760   11.1180  -23.5490 H   0  0  0  0  0  0
    6.7400   11.2609  -21.9661 H   0  0  0  0  0  0
    8.1305   10.1388  -22.1497 H   0  0  0  0  0  0
    5.6151   10.5481  -24.7602 H   0  0  0  0  0  0
    4.6095    9.1327  -24.3027 H   0  0  0  0  0  0
    4.5390   10.6370  -23.3250 H   0  0  0  0  0  0
  1  2  2  0  0  0
  1  3  1  0  0  0
  1 34  1  0  0  0
  2  6  1  0  0  0
  2 35  1  0  0  0
  3  5  2  0  0  0
  3 27  1  0  0  0
  4  5  1  0  0  0
  4  6  2  0  0  0
  4 18  1  0  0  0
  5 24  1  0  0  0
  6 10  1  0  0  0
  7 10  2  0  0  0
  7 23  1  0  0  0
  7 33  1  0  0  0
  8 21  1  0  0  0
  8 22  1  0  0  0
  8 36  1  0  0  0
  8 37  1  0  0  0
  9 21  1  0  0  0
  9 31  1  0  0  0
  9 38  1  0  0  0
  9 39  1  0  0  0
 10 40  1  0  0  0
 11 12  1  0  0  0
 11 14  2  0  0  0
 11 15  1  0  0  0
 12 17  1  0  0  0
 12 28  2  0  0  0
 13 28  1  0  0  0
 13 29  2  0  0  0
 13 58  1  0  0  0
 14 29  1  0  0  0
 14 31  1  0  0  0
 15 30  2  0  0  0
 15 41  1  0  0  0
 16 17  2  0  0  0
 16 18  1  0  0  0
 16 30  1  0  0  0
 17 26  1  0  0  0
 18 23  2  0  0  0
 19 20  1  0  0  0
 19 31  1  0  0  0
 19 42  1  0  0  0
 19 43  1  0  0  0
 20 22  1  0  0  0
 20 32  1  0  0  0
 20 44  1  0  0  0
 21 32  1  0  0  0
 21 45  1  0  0  0
 22 46  1  0  0  0
 22 47  1  0  0  0
 23 48  1  0  0  0
 24 25  3  0  0  0
 25 49  1  0  0  0
 32 50  1  0  0  0
 33 51  1  0  0  0
 52 55  1  0  0  0
 52 58  1  0  0  0
 53 58  2  0  0  0
 54 55  1  0  0  0
 54 56  1  0  0  0
 54 57  1  0  0  0
 55 59  1  0  0  0
 55 60  1  0  0  0
 56 61  1  0  0  0
 56 62  1  0  0  0
 56 63  1  0  0  0
 57 64  1  0  0  0
 57 65  1  0  0  0
 57 66  1  0  0  0
M  END
> <s_m_entry_id>
457

> <s_m_entry_name>
000000457.1

> <s_m_Source_Path>
/Users/zaksoul/Documents/2

> <s_m_Source_File>
000000457.mol2

> <i_m_Source_File_Index>
1

$$$$
No_0_481
                    3D
 Schrodinger Suite 2022-4.
 70 76  0  0  1  0            999 V2000
   -5.1930    3.4220  -22.2460 C   0  0  0  0  0  0
   -5.4270    3.5960  -23.5890 C   0  0  0  0  0  0
   -3.9620    3.1760  -21.8720 C   0  0  0  0  0  0
   -3.0190    3.2830  -24.0170 C   0  0  0  0  0  0
   -2.8920    3.0540  -22.5900 C   0  0  0  0  0  0
   -4.3550    3.5360  -24.5730 C   0  0  0  0  0  0
   -3.5470    3.5370  -26.7530 C   0  0  0  0  0  0
    6.0540    2.8860  -21.2460 C   0  0  0  0  0  0
    5.9770    3.0010  -23.8000 C   0  0  0  0  0  0
   -4.5740    3.6490  -25.9150 C   0  0  0  0  0  0
    2.1920    3.5380  -23.9140 C   0  0  0  0  0  0
    1.3610    4.6470  -23.6460 C   0  0  0  0  0  0
    3.1390    5.8550  -22.9360 C   0  0  0  0  0  0
    3.5840    3.7360  -23.5690 C   0  0  0  0  0  0
    1.6650    2.4130  -24.5770 C   0  0  0  0  0  0
   -0.4660    3.2210  -24.5260 C   0  0  0  0  0  0
    0.0430    4.4490  -23.9270 C   0  0  0  0  0  0
   -1.9100    3.2190  -24.9150 C   0  0  0  0  0  0
    4.1890    1.2430  -23.2370 C   0  0  0  0  0  0
    5.0960    0.9020  -22.0640 C   0  0  2  0  0  0
    6.6970    2.4420  -22.5780 C   0  0  2  0  0  0
    5.0470    1.9150  -20.9080 C   0  0  0  0  0  0
   -2.2020    3.3630  -26.3520 C   0  0  0  0  0  0
   -1.5620    2.6500  -21.9550 C   0  0  0  0  0  0
   -0.5430    2.3110  -21.4210 C   0  0  0  0  0  0
   -0.8100    5.4950  -23.6140 F   0  0  0  0  0  0
   -3.7850    2.9490  -20.4830 F   0  0  0  0  0  0
    1.8220    5.8130  -23.1160 N   0  0  0  0  0  0
    4.0430    4.8930  -23.1240 N   0  0  0  0  0  0
    0.3670    2.3160  -24.9120 N   0  0  0  0  0  0
    4.5090    2.6890  -23.7130 N   0  0  0  0  0  0
    6.5140    0.9680  -22.5130 N   0  0  1  0  0  0
   -3.6860    3.5370  -28.1460 O   0  0  0  0  0  0
   -6.0121    3.4903  -21.5393 H   0  0  0  0  0  0
   -6.4339    3.7847  -23.9434 H   0  0  0  0  0  0
    5.5834    3.8716  -21.3773 H   0  0  0  0  0  0
    6.8220    2.9062  -20.4588 H   0  0  0  0  0  0
    6.3952    2.5484  -24.7112 H   0  0  0  0  0  0
    6.1182    4.0912  -23.8403 H   0  0  0  0  0  0
   -5.5762    3.8277  -26.2875 H   0  0  0  0  0  0
    2.3133    1.5831  -24.8339 H   0  0  0  0  0  0
    3.1383    1.1875  -22.9160 H   0  0  0  0  0  0
    4.3738    0.5371  -24.0601 H   0  0  0  0  0  0
    4.8660   -0.1068  -21.6907 H   0  0  0  0  0  0
    7.7657    2.7014  -22.6022 H   0  0  0  0  0  0
    4.0614    2.4033  -20.8939 H   0  0  0  0  0  0
    5.3266    1.4124  -19.9703 H   0  0  0  0  0  0
   -1.4145    3.3369  -27.0964 H   0  0  0  0  0  0
    0.3541    2.0120  -20.9510 H   0  0  0  0  0  0
    7.1451    0.4791  -21.7856 H   0  0  0  0  0  0
   -2.8308    3.4469  -28.5498 H   0  0  0  0  0  0
    4.7530    7.1610  -21.6550 O   0  0  0  0  0  0
    3.1430    8.2210  -22.8380 O   0  0  0  0  0  0
    7.9770   10.1870  -24.0340 N   0  0  0  0  0  0
    6.3300   11.7830  -24.6090 N   0  0  0  0  0  0
    6.2570    9.0450  -22.2230 C   0  0  3  0  0  0
    6.7280   10.7000  -23.8740 C   0  0  0  0  0  0
    5.8560   10.1210  -22.9560 C   0  0  0  0  0  0
    8.3860    9.1070  -23.3000 C   0  0  0  0  0  0
    7.5500    8.5340  -22.4050 C   0  0  0  0  0  0
    5.3100    8.4170  -21.2110 C   0  0  0  0  0  0
    3.6790    7.1880  -22.4730 C   0  0  0  0  0  0
    8.6248   10.6119  -24.7128 H   0  0  0  0  0  0
    5.3835   12.1698  -24.4851 H   0  0  0  0  0  0
    6.9770   12.2120  -25.2860 H   0  0  0  0  0  0
    4.8592   10.5259  -22.8240 H   0  0  0  0  0  0
    9.3846    8.7072  -23.4339 H   0  0  0  0  0  0
    7.8811    7.6789  -21.8269 H   0  0  0  0  0  0
    5.8404    8.2659  -20.2593 H   0  0  0  0  0  0
    4.4936    9.1203  -20.9899 H   0  0  0  0  0  0
  1  2  2  0  0  0
  1  3  1  0  0  0
  1 34  1  0  0  0
  2  6  1  0  0  0
  2 35  1  0  0  0
  3  5  2  0  0  0
  3 27  1  0  0  0
  4  5  1  0  0  0
  4  6  2  0  0  0
  4 18  1  0  0  0
  5 24  1  0  0  0
  6 10  1  0  0  0
  7 10  2  0  0  0
  7 23  1  0  0  0
  7 33  1  0  0  0
  8 21  1  0  0  0
  8 22  1  0  0  0
  8 36  1  0  0  0
  8 37  1  0  0  0
  9 21  1  0  0  0
  9 31  1  0  0  0
  9 38  1  0  0  0
  9 39  1  0  0  0
 10 40  1  0  0  0
 11 12  2  0  0  0
 11 14  1  0  0  0
 11 15  1  0  0  0
 12 17  1  0  0  0
 12 28  1  0  0  0
 13 28  2  0  0  0
 13 29  1  0  0  0
 13 62  1  0  0  0
 14 29  2  0  0  0
 14 31  1  0  0  0
 15 30  2  0  0  0
 15 41  1  0  0  0
 16 17  2  0  0  0
 16 18  1  0  0  0
 16 30  1  0  0  0
 17 26  1  0  0  0
 18 23  2  0  0  0
 19 20  1  0  0  0
 19 31  1  0  0  0
 19 42  1  0  0  0
 19 43  1  0  0  0
 20 22  1  0  0  0
 20 32  1  0  0  0
 20 44  1  0  0  0
 21 32  1  0  0  0
 21 45  1  0  0  0
 22 46  1  0  0  0
 22 47  1  0  0  0
 23 48  1  0  0  0
 24 25  3  0  0  0
 25 49  1  0  0  0
 32 50  1  0  0  0
 33 51  1  0  0  0
 52 61  1  0  0  0
 52 62  1  0  0  0
 53 62  2  0  0  0
 54 57  1  0  0  0
 54 59  1  0  0  0
 54 63  1  0  0  0
 55 57  1  0  0  0
 55 64  1  0  0  0
 55 65  1  0  0  0
 56 58  1  0  0  0
 56 60  1  0  0  0
 56 61  1  0  0  0
 57 58  2  0  0  0
 58 66  1  0  0  0
 59 60  2  0  0  0
 59 67  1  0  0  0
 60 68  1  0  0  0
 61 69  1  0  0  0
 61 70  1  0  0  0
M  END
> <s_m_entry_id>
458

> <s_m_entry_name>
000000458.1

> <s_m_Source_Path>
/Users/zaksoul/Documents/2

> <s_m_Source_File>
000000458.mol2

> <i_m_Source_File_Index>
1

$$$$
No_0_482
                    3D
 Schrodinger Suite 2022-4.
 70 76  0  0  1  0            999 V2000
   -4.9720    3.6790  -22.1650 C   0  0  0  0  0  0
   -5.2140    3.8350  -23.5100 C   0  0  0  0  0  0
   -3.7410    3.4300  -21.7970 C   0  0  0  0  0  0
   -2.8120    3.4990  -23.9490 C   0  0  0  0  0  0
   -2.6770    3.2900  -22.5200 C   0  0  0  0  0  0
   -4.1490    3.7540  -24.5000 C   0  0  0  0  0  0
   -3.3560    3.7180  -26.6840 C   0  0  0  0  0  0
    6.2770    3.0810  -21.2330 C   0  0  0  0  0  0
    6.1840    3.1610  -23.7870 C   0  0  0  0  0  0
   -4.3770    3.8490  -25.8420 C   0  0  0  0  0  0
    2.4020    3.7210  -23.8840 C   0  0  0  0  0  0
    1.5800    4.8400  -23.6270 C   0  0  0  0  0  0
    3.3710    6.0460  -22.9460 C   0  0  0  0  0  0
    3.7970    3.9150  -23.5520 C   0  0  0  0  0  0
    1.8630    2.5900  -24.5270 C   0  0  0  0  0  0
   -0.2630    3.4130  -24.4740 C   0  0  0  0  0  0
    0.2580    4.6460  -23.8960 C   0  0  0  0  0  0
   -1.7090    3.4150  -24.8540 C   0  0  0  0  0  0
    4.3880    1.4230  -23.1870 C   0  0  0  0  0  0
    5.3000    1.0930  -22.0160 C   0  0  2  0  0  0
    6.9080    2.6140  -22.5630 C   0  0  2  0  0  0
    5.2660    2.1230  -20.8740 C   0  0  0  0  0  0
   -2.0090    3.5400  -26.2910 C   0  0  0  0  0  0
   -1.3450    2.8870  -21.8880 C   0  0  0  0  0  0
   -0.3240    2.5480  -21.3560 C   0  0  0  0  0  0
   -0.5850    5.7020  -23.5930 F   0  0  0  0  0  0
   -3.5560    3.2220  -20.4060 F   0  0  0  0  0  0
    2.0530    6.0100  -23.1160 N   0  0  0  0  0  0
    4.2670    5.0750  -23.1260 N   0  0  0  0  0  0
    0.5620    2.4970  -24.8530 N   0  0  0  0  0  0
    4.7140    2.8600  -23.6860 N   0  0  0  0  0  0
    6.7150    1.1430  -22.4750 N   0  0  1  0  0  0
   -3.5040    3.6990  -28.0770 O   0  0  0  0  0  0
   -5.7861    3.7633  -21.4543 H   0  0  0  0  0  0
   -6.2221    4.0256  -23.8601 H   0  0  0  0  0  0
    5.8128    4.0680  -21.3753 H   0  0  0  0  0  0
    7.0500    3.1082  -20.4509 H   0  0  0  0  0  0
    6.5927    2.6918  -24.6941 H   0  0  0  0  0  0
    6.3314    4.2496  -23.8446 H   0  0  0  0  0  0
   -5.3804    4.0288  -26.2106 H   0  0  0  0  0  0
    2.5034    1.7519  -24.7769 H   0  0  0  0  0  0
    3.3393    1.3786  -22.8580 H   0  0  0  0  0  0
    4.5615    0.7038  -24.0010 H   0  0  0  0  0  0
    5.0659    0.0912  -21.6266 H   0  0  0  0  0  0
    7.9782    2.8662  -22.5973 H   0  0  0  0  0  0
    4.2836    2.6177  -20.8599 H   0  0  0  0  0  0
    5.5486    1.6315  -19.9314 H   0  0  0  0  0  0
   -1.2262    3.4989  -27.0397 H   0  0  0  0  0  0
    0.5740    2.2500  -20.8870 H   0  0  0  0  0  0
    7.3491    0.6608  -21.7458 H   0  0  0  0  0  0
   -2.6526    3.5970  -28.4859 H   0  0  0  0  0  0
    5.1600    7.3830  -21.9650 O   0  0  0  0  0  0
    3.2520    8.3910  -22.6440 O   0  0  0  0  0  0
    7.5330   10.8190  -24.7540 N   0  0  0  0  0  0
    5.7020   12.3140  -24.7880 N   0  0  0  0  0  0
    6.3660    9.4170  -22.7000 C   0  0  3  0  0  0
    6.3290   11.2170  -24.2630 C   0  0  0  0  0  0
    5.7370   10.5070  -23.2220 C   0  0  0  0  0  0
    8.1710    9.7260  -24.2320 C   0  0  0  0  0  0
    7.6080    9.0260  -23.2210 C   0  0  0  0  0  0
    5.7280    8.6450  -21.5550 C   0  0  0  0  0  0
    3.9220    7.3810  -22.5060 C   0  0  0  0  0  0
    7.9731   11.3411  -25.5251 H   0  0  0  0  0  0
    4.7903   12.6139  -24.4141 H   0  0  0  0  0  0
    6.1410   12.8400  -25.5571 H   0  0  0  0  0  0
    4.7772   10.8193  -22.8267 H   0  0  0  0  0  0
    9.1311    9.4180  -24.6300 H   0  0  0  0  0  0
    8.1188    8.1613  -22.8131 H   0  0  0  0  0  0
    6.4782    8.4700  -20.7698 H   0  0  0  0  0  0
    4.9467    9.2632  -21.0888 H   0  0  0  0  0  0
  1  2  2  0  0  0
  1  3  1  0  0  0
  1 34  1  0  0  0
  2  6  1  0  0  0
  2 35  1  0  0  0
  3  5  2  0  0  0
  3 27  1  0  0  0
  4  5  1  0  0  0
  4  6  2  0  0  0
  4 18  1  0  0  0
  5 24  1  0  0  0
  6 10  1  0  0  0
  7 10  2  0  0  0
  7 23  1  0  0  0
  7 33  1  0  0  0
  8 21  1  0  0  0
  8 22  1  0  0  0
  8 36  1  0  0  0
  8 37  1  0  0  0
  9 21  1  0  0  0
  9 31  1  0  0  0
  9 38  1  0  0  0
  9 39  1  0  0  0
 10 40  1  0  0  0
 11 12  2  0  0  0
 11 14  1  0  0  0
 11 15  1  0  0  0
 12 17  1  0  0  0
 12 28  1  0  0  0
 13 28  2  0  0  0
 13 29  1  0  0  0
 13 62  1  0  0  0
 14 29  2  0  0  0
 14 31  1  0  0  0
 15 30  2  0  0  0
 15 41  1  0  0  0
 16 17  2  0  0  0
 16 18  1  0  0  0
 16 30  1  0  0  0
 17 26  1  0  0  0
 18 23  2  0  0  0
 19 20  1  0  0  0
 19 31  1  0  0  0
 19 42  1  0  0  0
 19 43  1  0  0  0
 20 22  1  0  0  0
 20 32  1  0  0  0
 20 44  1  0  0  0
 21 32  1  0  0  0
 21 45  1  0  0  0
 22 46  1  0  0  0
 22 47  1  0  0  0
 23 48  1  0  0  0
 24 25  3  0  0  0
 25 49  1  0  0  0
 32 50  1  0  0  0
 33 51  1  0  0  0
 52 61  1  0  0  0
 52 62  1  0  0  0
 53 62  2  0  0  0
 54 57  1  0  0  0
 54 59  1  0  0  0
 54 63  1  0  0  0
 55 57  1  0  0  0
 55 64  1  0  0  0
 55 65  1  0  0  0
 56 58  1  0  0  0
 56 60  1  0  0  0
 56 61  1  0  0  0
 57 58  2  0  0  0
 58 66  1  0  0  0
 59 60  2  0  0  0
 59 67  1  0  0  0
 60 68  1  0  0  0
 61 69  1  0  0  0
 61 70  1  0  0  0
M  END
> <s_m_entry_id>
459

> <s_m_entry_name>
000000459.1

> <s_m_Source_Path>
/Users/zaksoul/Documents/2

> <s_m_Source_File>
000000459.mol2

> <i_m_Source_File_Index>
1

$$$$
No_0_483
                    3D
 Schrodinger Suite 2022-4.
 72 78  0  0  1  0            999 V2000
   -5.2640    3.4710  -22.2110 C   0  0  0  0  0  0
   -5.5010    3.6240  -23.5560 C   0  0  0  0  0  0
   -4.0330    3.2330  -21.8360 C   0  0  0  0  0  0
   -3.0940    3.3090  -23.9840 C   0  0  0  0  0  0
   -2.9640    3.1010  -22.5540 C   0  0  0  0  0  0
   -4.4300    3.5510  -24.5410 C   0  0  0  0  0  0
   -3.6260    3.5210  -26.7220 C   0  0  0  0  0  0
    5.9860    2.9720  -21.2240 C   0  0  0  0  0  0
    5.9040    3.0490  -23.7780 C   0  0  0  0  0  0
   -4.6520    3.6430  -25.8850 C   0  0  0  0  0  0
    2.1180    3.5760  -23.8940 C   0  0  0  0  0  0
    1.2850    4.6870  -23.6420 C   0  0  0  0  0  0
    3.0620    5.9100  -22.9530 C   0  0  0  0  0  0
    3.5100    3.7820  -23.5550 C   0  0  0  0  0  0
    1.5920    2.4400  -24.5390 C   0  0  0  0  0  0
   -0.5410    3.2440  -24.4960 C   0  0  0  0  0  0
   -0.0340    4.4820  -23.9170 C   0  0  0  0  0  0
   -1.9860    3.2340  -24.8830 C   0  0  0  0  0  0
    4.1210    1.2960  -23.1860 C   0  0  0  0  0  0
    5.0300    0.9740  -22.0100 C   0  0  2  0  0  0
    6.6270    2.5090  -22.5500 C   0  0  2  0  0  0
    4.9810    2.0050  -20.8690 C   0  0  0  0  0  0
   -2.2800    3.3550  -26.3210 C   0  0  0  0  0  0
   -1.6310    2.7100  -21.9150 C   0  0  0  0  0  0
   -0.6100    2.3810  -21.3780 C   0  0  0  0  0  0
   -0.8880    5.5310  -23.6180 F   0  0  0  0  0  0
   -3.8520    3.0260  -20.4440 F   0  0  0  0  0  0
    1.7450    5.8620  -23.1290 N   0  0  0  0  0  0
    3.9680    4.9460  -23.1280 N   0  0  0  0  0  0
    0.2930    2.3350  -24.8700 N   0  0  0  0  0  0
    4.4370    2.7350  -23.6850 N   0  0  0  0  0  0
    6.4470    1.0360  -22.4630 N   0  0  1  0  0  0
   -3.7680    3.4990  -28.1150 O   0  0  0  0  0  0
   -6.0817    3.5483  -21.5036 H   0  0  0  0  0  0
   -6.5090    3.8047  -23.9114 H   0  0  0  0  0  0
    5.5126    3.9542  -21.3694 H   0  0  0  0  0  0
    6.7548    3.0063  -20.4380 H   0  0  0  0  0  0
    6.3207    2.5829  -24.6830 H   0  0  0  0  0  0
    6.0422    4.1388  -23.8355 H   0  0  0  0  0  0
   -5.6556    3.8136  -26.2574 H   0  0  0  0  0  0
    2.2404    1.6069  -24.7849 H   0  0  0  0  0  0
    3.0711    1.2425  -22.8622 H   0  0  0  0  0  0
    4.3047    0.5775  -23.9984 H   0  0  0  0  0  0
    4.8019   -0.0294  -21.6213 H   0  0  0  0  0  0
    7.6951    2.7702  -22.5793 H   0  0  0  0  0  0
    3.9946    2.4917  -20.8599 H   0  0  0  0  0  0
    5.2637    1.5163  -19.9249 H   0  0  0  0  0  0
   -1.4936    3.3199  -27.0663 H   0  0  0  0  0  0
    0.2884    2.0909  -20.9048 H   0  0  0  0  0  0
    7.0810    0.5602  -21.7295 H   0  0  0  0  0  0
   -2.9132    3.4050  -28.5187 H   0  0  0  0  0  0
    4.6370    7.2530  -21.6440 O   0  0  0  0  0  0
    3.0770    8.2670  -22.9340 O   0  0  0  0  0  0
    6.3490    9.7310  -23.1890 N   0  0  0  0  0  0
    7.6600    8.5640  -21.9170 N   0  0  0  0  0  0
    6.3800    8.9340  -22.1070 C   0  0  0  0  0  0
    5.1750   10.3260  -23.8070 C   0  0  0  0  0  0
    7.6280    9.8680  -23.6670 C   0  0  0  0  0  0
    8.1950    7.6880  -20.8660 C   0  0  0  0  0  0
    8.4180    9.1610  -22.8930 C   0  0  0  0  0  0
    5.1950    8.5210  -21.2400 C   0  0  0  0  0  0
    3.5990    7.2500  -22.5110 C   0  0  0  0  0  0
    5.4810   10.9270  -24.6760 H   0  0  0  0  0  0
    4.4901    9.5301  -24.1349 H   0  0  0  0  0  0
    4.6632   10.9718  -23.0783 H   0  0  0  0  0  0
    7.8181   10.4813  -24.5404 H   0  0  0  0  0  0
    9.2831    7.5870  -20.9920 H   0  0  0  0  0  0
    7.9788    8.1233  -19.8792 H   0  0  0  0  0  0
    7.7251    6.6962  -20.9400 H   0  0  0  0  0  0
    9.4899    9.0020  -22.9200 H   0  0  0  0  0  0
    5.5149    8.4620  -20.1892 H   0  0  0  0  0  0
    4.4165    9.2965  -21.2910 H   0  0  0  0  0  0
  1  2  2  0  0  0
  1  3  1  0  0  0
  1 34  1  0  0  0
  2  6  1  0  0  0
  2 35  1  0  0  0
  3  5  2  0  0  0
  3 27  1  0  0  0
  4  5  1  0  0  0
  4  6  2  0  0  0
  4 18  1  0  0  0
  5 24  1  0  0  0
  6 10  1  0  0  0
  7 10  2  0  0  0
  7 23  1  0  0  0
  7 33  1  0  0  0
  8 21  1  0  0  0
  8 22  1  0  0  0
  8 36  1  0  0  0
  8 37  1  0  0  0
  9 21  1  0  0  0
  9 31  1  0  0  0
  9 38  1  0  0  0
  9 39  1  0  0  0
 10 40  1  0  0  0
 11 12  2  0  0  0
 11 14  1  0  0  0
 11 15  1  0  0  0
 12 17  1  0  0  0
 12 28  1  0  0  0
 13 28  2  0  0  0
 13 29  1  0  0  0
 13 62  1  0  0  0
 14 29  2  0  0  0
 14 31  1  0  0  0
 15 30  2  0  0  0
 15 41  1  0  0  0
 16 17  2  0  0  0
 16 18  1  0  0  0
 16 30  1  0  0  0
 17 26  1  0  0  0
 18 23  2  0  0  0
 19 20  1  0  0  0
 19 31  1  0  0  0
 19 42  1  0  0  0
 19 43  1  0  0  0
 20 22  1  0  0  0
 20 32  1  0  0  0
 20 44  1  0  0  0
 21 32  1  0  0  0
 21 45  1  0  0  0
 22 46  1  0  0  0
 22 47  1  0  0  0
 23 48  1  0  0  0
 24 25  3  0  0  0
 25 49  1  0  0  0
 32 50  1  0  0  0
 33 51  1  0  0  0
 52 61  1  0  0  0
 52 62  1  0  0  0
 53 62  2  0  0  0
 54 56  1  0  0  0
 54 57  1  0  0  0
 54 58  1  0  0  0
 55 56  1  0  0  0
 55 59  1  0  0  0
 55 60  1  0  0  0
 56 61  1  0  0  0
 57 63  1  0  0  0
 57 64  1  0  0  0
 57 65  1  0  0  0
 58 60  2  0  0  0
 58 66  1  0  0  0
 59 67  1  0  0  0
 59 68  1  0  0  0
 59 69  1  0  0  0
 60 70  1  0  0  0
 61 71  1  0  0  0
 61 72  1  0  0  0
M  END
> <s_m_entry_id>
460

> <s_m_entry_name>
000000460.1

> <s_m_Source_Path>
/Users/zaksoul/Documents/2

> <s_m_Source_File>
000000460.mol2

> <i_m_Source_File_Index>
1

$$$$
No_0_484
                    3D
 Schrodinger Suite 2022-4.
 76 82  0  0  1  0            999 V2000
   -5.4650    3.2500  -22.0820 C   0  0  0  0  0  0
   -5.7150    3.4370  -23.4210 C   0  0  0  0  0  0
   -4.2250    3.0350  -21.7210 C   0  0  0  0  0  0
   -3.3020    3.2010  -23.8710 C   0  0  0  0  0  0
   -3.1580    2.9550  -22.4490 C   0  0  0  0  0  0
   -4.6480    3.4230  -24.4140 C   0  0  0  0  0  0
   -3.8570    3.4810  -26.5980 C   0  0  0  0  0  0
    5.8000    3.0320  -21.1710 C   0  0  0  0  0  0
    5.7000    3.1840  -23.7210 C   0  0  0  0  0  0
   -4.8810    3.5500  -25.7530 C   0  0  0  0  0  0
    1.9010    3.6100  -23.8010 C   0  0  0  0  0  0
    1.0390    4.6900  -23.5100 C   0  0  0  0  0  0
    2.7860    5.9390  -22.7940 C   0  0  0  0  0  0
    3.2880    3.8440  -23.4630 C   0  0  0  0  0  0
    1.4020    2.4790  -24.4770 C   0  0  0  0  0  0
   -0.7520    3.2230  -24.3990 C   0  0  0  0  0  0
   -0.2750    4.4560  -23.7850 C   0  0  0  0  0  0
   -2.1980    3.1840  -24.7780 C   0  0  0  0  0  0
    3.9690    1.3650  -23.1730 C   0  0  0  0  0  0
    4.8950    1.0340  -22.0120 C   0  0  2  0  0  0
    6.4460    2.6280  -22.5140 C   0  0  2  0  0  0
    4.8240    2.0270  -20.8410 C   0  0  0  0  0  0
   -2.5050    3.3410  -26.2100 C   0  0  0  0  0  0
   -1.8110    2.5820  -21.8300 C   0  0  0  0  0  0
   -0.7780    2.2640  -21.3080 C   0  0  0  0  0  0
   -1.1560    5.4720  -23.4500 F   0  0  0  0  0  0
   -4.0310    2.7910  -20.3370 F   0  0  0  0  0  0
    1.4690    5.8610  -22.9650 N   0  0  0  0  0  0
    3.7170    5.0070  -23.0030 N   0  0  0  0  0  0
    0.1040    2.3490  -24.8050 N   0  0  0  0  0  0
    4.2430    2.8270  -23.6290 N   0  0  0  0  0  0
    6.3060    1.1490  -22.4700 N   0  0  1  0  0  0
   -4.0070    3.4980  -27.9910 O   0  0  0  0  0  0
   -6.2811    3.2831  -21.3693 H   0  0  0  0  0  0
   -6.7293    3.6007  -23.7665 H   0  0  0  0  0  0
    5.2994    4.0049  -21.2840 H   0  0  0  0  0  0
    6.5719    3.0643  -20.3880 H   0  0  0  0  0  0
    6.1237    2.7573  -24.6421 H   0  0  0  0  0  0
    5.8080    4.2784  -23.7462 H   0  0  0  0  0  0
   -5.8909    3.7046  -26.1154 H   0  0  0  0  0  0
    2.0726    1.6729  -24.7520 H   0  0  0  0  0  0
    2.9231    1.2731  -22.8449 H   0  0  0  0  0  0
    4.1679    0.6773  -24.0082 H   0  0  0  0  0  0
    4.6973    0.0132  -21.6529 H   0  0  0  0  0  0
    7.5062    2.9198  -22.5413 H   0  0  0  0  0  0
    3.8249    2.4862  -20.8117 H   0  0  0  0  0  0
    5.1255    1.5187  -19.9132 H   0  0  0  0  0  0
   -1.7226    3.3500  -26.9603 H   0  0  0  0  0  0
    0.1311    1.9850  -20.8489 H   0  0  0  0  0  0
    6.9569    0.6680  -21.7549 H   0  0  0  0  0  0
   -3.1527    3.4397  -28.4023 H   0  0  0  0  0  0
    5.6220    8.8030  -21.3680 N   0  3  0  0  0  0
    3.9160    7.1600  -20.9960 N   0  0  0  0  0  0
    5.7320    7.3110  -19.5660 N   0  0  0  0  0  0
    7.6130   10.2530  -21.0660 C   0  0  0  0  0  0
    5.3120   11.2410  -21.3440 C   0  0  0  0  0  0
    6.8080   11.4210  -21.6690 C   0  0  0  0  0  0
    4.8100    9.8940  -21.9040 C   0  0  0  0  0  0
    7.0610    8.9190  -21.6060 C   0  0  0  0  0  0
    5.0860    7.7690  -20.6630 C   0  0  0  0  0  0
    3.2940    7.2930  -22.3100 C   0  0  0  0  0  0
    3.4278    6.5717  -20.3057 H   0  0  0  0  0  0
    5.3362    6.5294  -19.0243 H   0  0  0  0  0  0
    6.6197    7.7429  -19.2721 H   0  0  0  0  0  0
    7.5200   10.2710  -19.9701 H   0  0  0  0  0  0
    8.6712   10.3530  -21.3491 H   0  0  0  0  0  0
    4.7381   12.0629  -21.7969 H   0  0  0  0  0  0
    5.1689   11.2610  -20.2535 H   0  0  0  0  0  0
    6.9470   11.4370  -22.7601 H   0  0  0  0  0  0
    7.1632   12.3704  -21.2418 H   0  0  0  0  0  0
    3.7596    9.7451  -21.6132 H   0  0  0  0  0  0
    4.8850    9.9020  -23.0014 H   0  0  0  0  0  0
    7.2609    8.8510  -22.6855 H   0  0  0  0  0  0
    7.5821    8.0828  -21.1169 H   0  0  0  0  0  0
    4.0304    7.6862  -23.0264 H   0  0  0  0  0  0
    2.4525    7.9986  -22.2470 H   0  0  0  0  0  0
  1  2  2  0  0  0
  1  3  1  0  0  0
  1 34  1  0  0  0
  2  6  1  0  0  0
  2 35  1  0  0  0
  3  5  2  0  0  0
  3 27  1  0  0  0
  4  5  1  0  0  0
  4  6  2  0  0  0
  4 18  1  0  0  0
  5 24  1  0  0  0
  6 10  1  0  0  0
  7 10  2  0  0  0
  7 23  1  0  0  0
  7 33  1  0  0  0
  8 21  1  0  0  0
  8 22  1  0  0  0
  8 36  1  0  0  0
  8 37  1  0  0  0
  9 21  1  0  0  0
  9 31  1  0  0  0
  9 38  1  0  0  0
  9 39  1  0  0  0
 10 40  1  0  0  0
 11 12  1  0  0  0
 11 14  2  0  0  0
 11 15  1  0  0  0
 12 17  1  0  0  0
 12 28  2  0  0  0
 13 28  1  0  0  0
 13 29  2  0  0  0
 13 61  1  0  0  0
 14 29  1  0  0  0
 14 31  1  0  0  0
 15 30  2  0  0  0
 15 41  1  0  0  0
 16 17  2  0  0  0
 16 18  1  0  0  0
 16 30  1  0  0  0
 17 26  1  0  0  0
 18 23  2  0  0  0
 19 20  1  0  0  0
 19 31  1  0  0  0
 19 42  1  0  0  0
 19 43  1  0  0  0
 20 22  1  0  0  0
 20 32  1  0  0  0
 20 44  1  0  0  0
 21 32  1  0  0  0
 21 45  1  0  0  0
 22 46  1  0  0  0
 22 47  1  0  0  0
 23 48  1  0  0  0
 24 25  3  0  0  0
 25 49  1  0  0  0
 32 50  1  0  0  0
 33 51  1  0  0  0
 52 58  1  0  0  0
 52 59  1  0  0  0
 52 60  2  0  0  0
 53 60  1  0  0  0
 53 61  1  0  0  0
 53 62  1  0  0  0
 54 60  1  0  0  0
 54 63  1  0  0  0
 54 64  1  0  0  0
 55 57  1  0  0  0
 55 59  1  0  0  0
 55 65  1  0  0  0
 55 66  1  0  0  0
 56 57  1  0  0  0
 56 58  1  0  0  0
 56 67  1  0  0  0
 56 68  1  0  0  0
 57 69  1  0  0  0
 57 70  1  0  0  0
 58 71  1  0  0  0
 58 72  1  0  0  0
 59 73  1  0  0  0
 59 74  1  0  0  0
 61 75  1  0  0  0
 61 76  1  0  0  0
M  CHG  1  52   1
M  END
> <s_m_entry_id>
461

> <s_m_entry_name>
000000461.1

> <s_m_Source_Path>
/Users/zaksoul/Documents/2

> <s_m_Source_File>
000000461.mol2

> <i_m_Source_File_Index>
1

$$$$
No_0_485
                    3D
 Schrodinger Suite 2022-4.
 76 82  0  0  1  0            999 V2000
   -5.4690    3.6490  -22.0040 C   0  0  0  0  0  0
   -5.7010    3.8260  -23.3480 C   0  0  0  0  0  0
   -4.2430    3.3800  -21.6320 C   0  0  0  0  0  0
   -3.3010    3.4660  -23.7780 C   0  0  0  0  0  0
   -3.1760    3.2360  -22.3520 C   0  0  0  0  0  0
   -4.6310    3.7440  -24.3330 C   0  0  0  0  0  0
   -3.8260    3.7280  -26.5130 C   0  0  0  0  0  0
    5.7670    2.8970  -21.0170 C   0  0  0  0  0  0
    5.6890    3.0120  -23.5710 C   0  0  0  0  0  0
   -4.8500    3.8600  -25.6750 C   0  0  0  0  0  0
    1.9150    3.6210  -23.6810 C   0  0  0  0  0  0
    1.1060    4.7460  -23.4140 C   0  0  0  0  0  0
    2.9080    5.9200  -22.7070 C   0  0  0  0  0  0
    3.3110    3.7930  -23.3380 C   0  0  0  0  0  0
    1.3660    2.5050  -24.3420 C   0  0  0  0  0  0
   -0.7500    3.3540  -24.2900 C   0  0  0  0  0  0
   -0.2170    4.5730  -23.6930 C   0  0  0  0  0  0
   -2.1940    3.3800  -24.6780 C   0  0  0  0  0  0
    3.8680    1.2890  -23.0040 C   0  0  0  0  0  0
    4.7700    0.9310  -21.8320 C   0  0  2  0  0  0
    6.4000    2.4400  -22.3490 C   0  0  2  0  0  0
    4.7420    1.9470  -20.6770 C   0  0  0  0  0  0
   -2.4840    3.5280  -26.1140 C   0  0  0  0  0  0
   -1.8530    2.8080  -21.7180 C   0  0  0  0  0  0
   -0.8400    2.4490  -21.1840 C   0  0  0  0  0  0
   -1.0490    5.6360  -23.3800 F   0  0  0  0  0  0
   -4.0680    3.1500  -20.2430 F   0  0  0  0  0  0
    1.5900    5.9040  -22.8850 N   0  0  0  0  0  0
    3.7930    4.9410  -22.8950 N   0  0  0  0  0  0
    0.0650    2.4330  -24.6760 N   0  0  0  0  0  0
    4.2150    2.7280  -23.4820 N   0  0  0  0  0  0
    6.1880    0.9700  -22.2830 N   0  0  1  0  0  0
   -3.9670    3.7290  -27.9070 O   0  0  0  0  0  0
   -6.2864    3.7343  -21.2971 H   0  0  0  0  0  0
   -6.7046    4.0337  -23.7013 H   0  0  0  0  0  0
    5.3149    3.8910  -21.1492 H   0  0  0  0  0  0
    6.5352    2.9041  -20.2297 H   0  0  0  0  0  0
    6.0970    2.5495  -24.4819 H   0  0  0  0  0  0
    5.8505    4.0993  -23.6124 H   0  0  0  0  0  0
   -5.8490    4.0578  -26.0465 H   0  0  0  0  0  0
    1.9975    1.6626  -24.6000 H   0  0  0  0  0  0
    2.8168    1.2537  -22.6819 H   0  0  0  0  0  0
    4.0375    0.5785  -23.8265 H   0  0  0  0  0  0
    4.5206   -0.0727  -21.4574 H   0  0  0  0  0  0
    7.4734    2.6793  -22.3742 H   0  0  0  0  0  0
    3.7656    2.4534  -20.6619 H   0  0  0  0  0  0
    5.0125    1.4393  -19.7394 H   0  0  0  0  0  0
   -1.6982    3.4869  -26.8596 H   0  0  0  0  0  0
    0.0521    2.1340  -20.7149 H   0  0  0  0  0  0
    6.8103    0.4696  -21.5559 H   0  0  0  0  0  0
   -3.1142    3.6221  -28.3117 H   0  0  0  0  0  0
    5.9010    8.8820  -21.9640 N   0  3  0  0  0  0
    4.5380    7.0390  -21.2600 N   0  0  0  0  0  0
    6.7350    7.2140  -20.5460 N   0  0  0  0  0  0
    7.7820   10.4870  -22.1700 C   0  0  0  0  0  0
    5.4830   11.2560  -21.4850 C   0  0  0  0  0  0
    6.7490   11.6260  -22.2800 C   0  0  0  0  0  0
    4.8900    9.9370  -22.0210 C   0  0  0  0  0  0
    7.1490    9.1730  -22.6690 C   0  0  0  0  0  0
    5.7130    7.7250  -21.2720 C   0  0  0  0  0  0
    3.4790    7.2560  -22.2410 C   0  0  0  0  0  0
    4.3639    6.3287  -20.5347 H   0  0  0  0  0  0
    6.6040    6.3388  -20.0189 H   0  0  0  0  0  0
    7.6426    7.7003  -20.5220 H   0  0  0  0  0  0
    8.0880   10.3700  -21.1199 H   0  0  0  0  0  0
    8.6601   10.7280  -22.7871 H   0  0  0  0  0  0
    4.7390   12.0599  -21.5860 H   0  0  0  0  0  0
    5.7400   11.1370  -20.4221 H   0  0  0  0  0  0
    6.4860   11.7810  -23.3368 H   0  0  0  0  0  0
    7.1810   12.5521  -21.8730 H   0  0  0  0  0  0
    4.0242    9.6481  -21.4071 H   0  0  0  0  0  0
    4.5652   10.0779  -23.0625 H   0  0  0  0  0  0
    6.9509    9.2490  -23.7483 H   0  0  0  0  0  0
    7.8570    8.3450  -22.5170 H   0  0  0  0  0  0
    3.8851    7.8021  -23.1052 H   0  0  0  0  0  0
    2.6781    7.8589  -21.7881 H   0  0  0  0  0  0
  1  2  2  0  0  0
  1  3  1  0  0  0
  1 34  1  0  0  0
  2  6  1  0  0  0
  2 35  1  0  0  0
  3  5  2  0  0  0
  3 27  1  0  0  0
  4  5  1  0  0  0
  4  6  2  0  0  0
  4 18  1  0  0  0
  5 24  1  0  0  0
  6 10  1  0  0  0
  7 10  2  0  0  0
  7 23  1  0  0  0
  7 33  1  0  0  0
  8 21  1  0  0  0
  8 22  1  0  0  0
  8 36  1  0  0  0
  8 37  1  0  0  0
  9 21  1  0  0  0
  9 31  1  0  0  0
  9 38  1  0  0  0
  9 39  1  0  0  0
 10 40  1  0  0  0
 11 12  1  0  0  0
 11 14  2  0  0  0
 11 15  1  0  0  0
 12 17  1  0  0  0
 12 28  2  0  0  0
 13 28  1  0  0  0
 13 29  2  0  0  0
 13 61  1  0  0  0
 14 29  1  0  0  0
 14 31  1  0  0  0
 15 30  2  0  0  0
 15 41  1  0  0  0
 16 17  2  0  0  0
 16 18  1  0  0  0
 16 30  1  0  0  0
 17 26  1  0  0  0
 18 23  2  0  0  0
 19 20  1  0  0  0
 19 31  1  0  0  0
 19 42  1  0  0  0
 19 43  1  0  0  0
 20 22  1  0  0  0
 20 32  1  0  0  0
 20 44  1  0  0  0
 21 32  1  0  0  0
 21 45  1  0  0  0
 22 46  1  0  0  0
 22 47  1  0  0  0
 23 48  1  0  0  0
 24 25  3  0  0  0
 25 49  1  0  0  0
 32 50  1  0  0  0
 33 51  1  0  0  0
 52 58  1  0  0  0
 52 59  1  0  0  0
 52 60  2  0  0  0
 53 60  1  0  0  0
 53 61  1  0  0  0
 53 62  1  0  0  0
 54 60  1  0  0  0
 54 63  1  0  0  0
 54 64  1  0  0  0
 55 57  1  0  0  0
 55 59  1  0  0  0
 55 65  1  0  0  0
 55 66  1  0  0  0
 56 57  1  0  0  0
 56 58  1  0  0  0
 56 67  1  0  0  0
 56 68  1  0  0  0
 57 69  1  0  0  0
 57 70  1  0  0  0
 58 71  1  0  0  0
 58 72  1  0  0  0
 59 73  1  0  0  0
 59 74  1  0  0  0
 61 75  1  0  0  0
 61 76  1  0  0  0
M  CHG  1  52   1
M  END
> <s_m_entry_id>
462

> <s_m_entry_name>
000000462.1

> <s_m_Source_Path>
/Users/zaksoul/Documents/2

> <s_m_Source_File>
000000462.mol2

> <i_m_Source_File_Index>
1

$$$$
No_0_486
                    3D
 Schrodinger Suite 2022-4.
 76 82  0  0  1  0            999 V2000
   -5.5230    3.3250  -22.4320 C   0  0  0  0  0  0
   -5.7100    3.4860  -23.7850 C   0  0  0  0  0  0
   -4.3050    3.0920  -22.0130 C   0  0  0  0  0  0
   -3.2870    3.1890  -24.1240 C   0  0  0  0  0  0
   -3.2090    2.9720  -22.6920 C   0  0  0  0  0  0
   -4.6030    3.4270  -24.7290 C   0  0  0  0  0  0
   -3.7180    3.4170  -26.8780 C   0  0  0  0  0  0
    5.6850    2.8880  -21.0280 C   0  0  0  0  0  0
    5.6980    2.9820  -23.5840 C   0  0  0  0  0  0
   -4.7750    3.5270  -26.0790 C   0  0  0  0  0  0
    1.9160    3.4870  -23.8370 C   0  0  0  0  0  0
    1.0670    4.5920  -23.6090 C   0  0  0  0  0  0
    2.8100    5.8190  -22.8450 C   0  0  0  0  0  0
    3.2930    3.6990  -23.4450 C   0  0  0  0  0  0
    1.4220    2.3520  -24.5090 C   0  0  0  0  0  0
   -0.7170    3.1430  -24.5410 C   0  0  0  0  0  0
   -0.2390    4.3800  -23.9350 C   0  0  0  0  0  0
   -2.1460    3.1270  -24.9820 C   0  0  0  0  0  0
    3.9050    1.2140  -23.0700 C   0  0  0  0  0  0
    4.7720    0.8900  -21.8630 C   0  0  2  0  0  0
    6.3790    2.4380  -22.3330 C   0  0  2  0  0  0
    4.6740    1.9120  -20.7180 C   0  0  0  0  0  0
   -2.3870    3.2560  -26.4290 C   0  0  0  0  0  0
   -1.8990    2.5850  -22.0060 C   0  0  0  0  0  0
   -0.8970    2.2580  -21.4330 C   0  0  0  0  0  0
   -1.1100    5.4220  -23.6610 F   0  0  0  0  0  0
   -4.1750    2.8770  -20.6170 F   0  0  0  0  0  0
    1.5000    5.7650  -23.0720 N   0  0  0  0  0  0
    3.7270    4.8630  -22.9930 N   0  0  0  0  0  0
    0.1370    2.2420  -24.8900 N   0  0  0  0  0  0
    4.2310    2.6580  -23.5470 N   0  0  0  0  0  0
    6.2040    0.9630  -22.2620 N   0  0  1  0  0  0
   -3.8070    3.4040  -28.2760 O   0  0  0  0  0  0
   -6.3677    3.3923  -21.7560 H   0  0  0  0  0  0
   -6.7052    3.6636  -24.1763 H   0  0  0  0  0  0
    5.2114    3.8684  -21.1845 H   0  0  0  0  0  0
    6.4237    2.9203  -20.2136 H   0  0  0  0  0  0
    6.1523    2.5247  -24.4754 H   0  0  0  0  0  0
    5.8322    4.0729  -23.6284 H   0  0  0  0  0  0
   -5.7646    3.6946  -26.4885 H   0  0  0  0  0  0
    2.0847    1.5247  -24.7359 H   0  0  0  0  0  0
    2.8440    1.1524  -22.7863 H   0  0  0  0  0  0
    4.1239    0.5028  -23.8801 H   0  0  0  0  0  0
    4.5360   -0.1175  -21.4898 H   0  0  0  0  0  0
    7.4457    2.7064  -22.3199 H   0  0  0  0  0  0
    3.6848    2.3925  -20.7432 H   0  0  0  0  0  0
    4.9233    1.4184  -19.7671 H   0  0  0  0  0  0
   -1.5727    3.2309  -27.1440 H   0  0  0  0  0  0
   -0.0149    1.9700  -20.9289 H   0  0  0  0  0  0
    6.8133    0.4863  -21.5084 H   0  0  0  0  0  0
   -2.9375    3.3179  -28.6489 H   0  0  0  0  0  0
    5.6390    8.9690  -22.2520 N   0  3  0  0  0  0
    4.4950    6.9960  -21.5120 N   0  0  0  0  0  0
    6.7340    7.3090  -21.0130 N   0  0  0  0  0  0
    7.3670   10.7230  -22.5600 C   0  0  0  0  0  0
    5.1010   11.2800  -21.6100 C   0  0  0  0  0  0
    6.2480   11.7820  -22.5070 C   0  0  0  0  0  0
    4.5530    9.9430  -22.1520 C   0  0  0  0  0  0
    6.7830    9.3880  -23.0610 C   0  0  0  0  0  0
    5.6080    7.7710  -21.6060 C   0  0  0  0  0  0
    3.3260    7.1730  -22.3700 C   0  0  0  0  0  0
    4.4490    6.2429  -20.8109 H   0  0  0  0  0  0
    6.7240    6.4041  -20.5211 H   0  0  0  0  0  0
    7.6016    7.8627  -21.0530 H   0  0  0  0  0  0
    7.7879   10.5840  -21.5533 H   0  0  0  0  0  0
    8.1569   11.0590  -23.2479 H   0  0  0  0  0  0
    4.2938   12.0272  -21.5940 H   0  0  0  0  0  0
    5.4738   11.1341  -20.5855 H   0  0  0  0  0  0
    5.8670   11.9630  -23.5229 H   0  0  0  0  0  0
    6.6509   12.7199  -22.0971 H   0  0  0  0  0  0
    3.7786    9.5608  -21.4707 H   0  0  0  0  0  0
    4.1142   10.1049  -23.1476 H   0  0  0  0  0  0
    6.4700    9.4960  -24.1100 H   0  0  0  0  0  0
    7.5614    8.6116  -23.0240 H   0  0  0  0  0  0
    3.6009    7.7867  -23.2405 H   0  0  0  0  0  0
    2.5346    7.6913  -21.8087 H   0  0  0  0  0  0
  1  2  2  0  0  0
  1  3  1  0  0  0
  1 34  1  0  0  0
  2  6  1  0  0  0
  2 35  1  0  0  0
  3  5  2  0  0  0
  3 27  1  0  0  0
  4  5  1  0  0  0
  4  6  2  0  0  0
  4 18  1  0  0  0
  5 24  1  0  0  0
  6 10  1  0  0  0
  7 10  2  0  0  0
  7 23  1  0  0  0
  7 33  1  0  0  0
  8 21  1  0  0  0
  8 22  1  0  0  0
  8 36  1  0  0  0
  8 37  1  0  0  0
  9 21  1  0  0  0
  9 31  1  0  0  0
  9 38  1  0  0  0
  9 39  1  0  0  0
 10 40  1  0  0  0
 11 12  1  0  0  0
 11 14  2  0  0  0
 11 15  1  0  0  0
 12 17  1  0  0  0
 12 28  2  0  0  0
 13 28  1  0  0  0
 13 29  2  0  0  0
 13 61  1  0  0  0
 14 29  1  0  0  0
 14 31  1  0  0  0
 15 30  2  0  0  0
 15 41  1  0  0  0
 16 17  2  0  0  0
 16 18  1  0  0  0
 16 30  1  0  0  0
 17 26  1  0  0  0
 18 23  2  0  0  0
 19 20  1  0  0  0
 19 31  1  0  0  0
 19 42  1  0  0  0
 19 43  1  0  0  0
 20 22  1  0  0  0
 20 32  1  0  0  0
 20 44  1  0  0  0
 21 32  1  0  0  0
 21 45  1  0  0  0
 22 46  1  0  0  0
 22 47  1  0  0  0
 23 48  1  0  0  0
 24 25  3  0  0  0
 25 49  1  0  0  0
 32 50  1  0  0  0
 33 51  1  0  0  0
 52 58  1  0  0  0
 52 59  1  0  0  0
 52 60  2  0  0  0
 53 60  1  0  0  0
 53 61  1  0  0  0
 53 62  1  0  0  0
 54 60  1  0  0  0
 54 63  1  0  0  0
 54 64  1  0  0  0
 55 57  1  0  0  0
 55 59  1  0  0  0
 55 65  1  0  0  0
 55 66  1  0  0  0
 56 57  1  0  0  0
 56 58  1  0  0  0
 56 67  1  0  0  0
 56 68  1  0  0  0
 57 69  1  0  0  0
 57 70  1  0  0  0
 58 71  1  0  0  0
 58 72  1  0  0  0
 59 73  1  0  0  0
 59 74  1  0  0  0
 61 75  1  0  0  0
 61 76  1  0  0  0
M  CHG  1  52   1
M  END
> <s_m_entry_id>
463

> <s_m_entry_name>
000000463.1

> <s_m_Source_Path>
/Users/zaksoul/Documents/2

> <s_m_Source_File>
000000463.mol2

> <i_m_Source_File_Index>
1

$$$$
No_0_487
                    3D
 Schrodinger Suite 2022-4.
 74 80  0  0  1  0            999 V2000
   -5.4100    3.2200  -22.2350 C   0  0  0  0  0  0
   -5.6560    3.4020  -23.5750 C   0  0  0  0  0  0
   -4.1710    3.0060  -21.8700 C   0  0  0  0  0  0
   -3.2420    3.1630  -24.0180 C   0  0  0  0  0  0
   -3.1010    2.9220  -22.5940 C   0  0  0  0  0  0
   -4.5870    3.3840  -24.5650 C   0  0  0  0  0  0
   -3.7900    3.4320  -26.7480 C   0  0  0  0  0  0
    5.8530    3.0020  -21.2940 C   0  0  0  0  0  0
    5.7600    3.1430  -23.8450 C   0  0  0  0  0  0
   -4.8160    3.5050  -25.9050 C   0  0  0  0  0  0
    1.9600    3.5700  -23.9360 C   0  0  0  0  0  0
    1.0990    4.6510  -23.6520 C   0  0  0  0  0  0
    2.8440    5.9030  -22.9370 C   0  0  0  0  0  0
    3.3480    3.8050  -23.5960 C   0  0  0  0  0  0
    1.4630    2.4370  -24.6090 C   0  0  0  0  0  0
   -0.6910    3.1820  -24.5390 C   0  0  0  0  0  0
   -0.2150    4.4180  -23.9290 C   0  0  0  0  0  0
   -2.1360    3.1420  -24.9220 C   0  0  0  0  0  0
    4.0270    1.3270  -23.2940 C   0  0  0  0  0  0
    4.9490    1.0000  -22.1290 C   0  0  2  0  0  0
    6.5020    2.5910  -22.6340 C   0  0  2  0  0  0
    4.8760    1.9990  -20.9620 C   0  0  0  0  0  0
   -2.4390    3.2930  -26.3560 C   0  0  0  0  0  0
   -1.7560    2.5510  -21.9700 C   0  0  0  0  0  0
   -0.7250    2.2360  -21.4440 C   0  0  0  0  0  0
   -1.0960    5.4350  -23.6000 F   0  0  0  0  0  0
   -3.9800    2.7680  -20.4840 F   0  0  0  0  0  0
    1.5280    5.8240  -23.1110 N   0  0  0  0  0  0
    3.7750    4.9700  -23.1400 N   0  0  0  0  0  0
    0.1660    2.3060  -24.9400 N   0  0  0  0  0  0
    4.3020    2.7870  -23.7550 N   0  0  0  0  0  0
    6.3620    1.1120  -22.5840 N   0  0  1  0  0  0
   -3.9360    3.4440  -28.1410 O   0  0  0  0  0  0
   -6.2275    3.2562  -21.5240 H   0  0  0  0  0  0
   -6.6696    3.5646  -23.9232 H   0  0  0  0  0  0
    5.3534    3.9749  -21.4121 H   0  0  0  0  0  0
    6.6228    3.0363  -20.5090 H   0  0  0  0  0  0
    6.1858    2.7122  -24.7632 H   0  0  0  0  0  0
    5.8680    4.2373  -23.8743 H   0  0  0  0  0  0
   -5.8251    3.6576  -26.2705 H   0  0  0  0  0  0
    2.1334    1.6291  -24.8790 H   0  0  0  0  0  0
    2.9799    1.2372  -22.9692 H   0  0  0  0  0  0
    4.2279    0.6356  -24.1257 H   0  0  0  0  0  0
    4.7502   -0.0194  -21.7667 H   0  0  0  0  0  0
    7.5624    2.8826  -22.6592 H   0  0  0  0  0  0
    3.8764    2.4574  -20.9378 H   0  0  0  0  0  0
    5.1746    1.4935  -20.0318 H   0  0  0  0  0  0
   -1.6542    3.2990  -27.1037 H   0  0  0  0  0  0
    0.1830    1.9580  -20.9820 H   0  0  0  0  0  0
    7.0114    0.6348  -21.8650 H   0  0  0  0  0  0
   -3.0807    3.3826  -28.5499 H   0  0  0  0  0  0
    6.5800   11.4900  -21.5620 O   0  0  0  0  0  0
    5.6030    8.8630  -21.4250 N   0  3  0  0  0  0
    3.9690    7.1220  -21.1410 N   0  0  0  0  0  0
    5.7370    7.3190  -19.6650 N   0  0  0  0  0  0
    5.1650   11.2610  -21.4100 C   0  0  0  0  0  0
    7.3710   10.4670  -20.9270 C   0  0  0  0  0  0
    7.0400    9.0990  -21.5500 C   0  0  0  0  0  0
    4.7560    9.9000  -22.0090 C   0  0  0  0  0  0
    5.1000    7.7810  -20.7670 C   0  0  0  0  0  0
    3.3520    7.2590  -22.4560 C   0  0  0  0  0  0
    3.5023    6.4854  -20.4794 H   0  0  0  0  0  0
    5.3650    6.5020  -19.1600 H   0  0  0  0  0  0
    6.5934    7.7842  -19.3318 H   0  0  0  0  0  0
    4.6079   12.0651  -21.9131 H   0  0  0  0  0  0
    4.9030   11.2840  -20.3419 H   0  0  0  0  0  0
    7.1440   10.4440  -19.8509 H   0  0  0  0  0  0
    8.4390   10.6870  -21.0720 H   0  0  0  0  0  0
    7.3199    9.1040  -22.6138 H   0  0  0  0  0  0
    7.5887    8.3104  -21.0143 H   0  0  0  0  0  0
    3.7034    9.6939  -21.7649 H   0  0  0  0  0  0
    4.9020    9.9210  -23.0991 H   0  0  0  0  0  0
    4.0930    7.6460  -23.1710 H   0  0  0  0  0  0
    2.5099    7.9641  -22.3950 H   0  0  0  0  0  0
  1  2  2  0  0  0
  1  3  1  0  0  0
  1 34  1  0  0  0
  2  6  1  0  0  0
  2 35  1  0  0  0
  3  5  2  0  0  0
  3 27  1  0  0  0
  4  5  1  0  0  0
  4  6  2  0  0  0
  4 18  1  0  0  0
  5 24  1  0  0  0
  6 10  1  0  0  0
  7 10  2  0  0  0
  7 23  1  0  0  0
  7 33  1  0  0  0
  8 21  1  0  0  0
  8 22  1  0  0  0
  8 36  1  0  0  0
  8 37  1  0  0  0
  9 21  1  0  0  0
  9 31  1  0  0  0
  9 38  1  0  0  0
  9 39  1  0  0  0
 10 40  1  0  0  0
 11 12  1  0  0  0
 11 14  2  0  0  0
 11 15  1  0  0  0
 12 17  1  0  0  0
 12 28  2  0  0  0
 13 28  1  0  0  0
 13 29  2  0  0  0
 13 61  1  0  0  0
 14 29  1  0  0  0
 14 31  1  0  0  0
 15 30  2  0  0  0
 15 41  1  0  0  0
 16 17  2  0  0  0
 16 18  1  0  0  0
 16 30  1  0  0  0
 17 26  1  0  0  0
 18 23  2  0  0  0
 19 20  1  0  0  0
 19 31  1  0  0  0
 19 42  1  0  0  0
 19 43  1  0  0  0
 20 22  1  0  0  0
 20 32  1  0  0  0
 20 44  1  0  0  0
 21 32  1  0  0  0
 21 45  1  0  0  0
 22 46  1  0  0  0
 22 47  1  0  0  0
 23 48  1  0  0  0
 24 25  3  0  0  0
 25 49  1  0  0  0
 32 50  1  0  0  0
 33 51  1  0  0  0
 52 56  1  0  0  0
 52 57  1  0  0  0
 53 58  1  0  0  0
 53 59  1  0  0  0
 53 60  2  0  0  0
 54 60  1  0  0  0
 54 61  1  0  0  0
 54 62  1  0  0  0
 55 60  1  0  0  0
 55 63  1  0  0  0
 55 64  1  0  0  0
 56 59  1  0  0  0
 56 65  1  0  0  0
 56 66  1  0  0  0
 57 58  1  0  0  0
 57 67  1  0  0  0
 57 68  1  0  0  0
 58 69  1  0  0  0
 58 70  1  0  0  0
 59 71  1  0  0  0
 59 72  1  0  0  0
 61 73  1  0  0  0
 61 74  1  0  0  0
M  CHG  1  53   1
M  END
> <s_m_entry_id>
464

> <s_m_entry_name>
000000464.1

> <s_m_Source_Path>
/Users/zaksoul/Documents/2

> <s_m_Source_File>
000000464.mol2

> <i_m_Source_File_Index>
1

$$$$
No_0_488
                    3D
 Schrodinger Suite 2022-4.
 75 80  0  0  1  0            999 V2000
   -5.0840    3.6080  -21.9900 C   0  0  0  0  0  0
   -5.3560    3.7450  -23.3300 C   0  0  0  0  0  0
   -3.8410    3.3870  -21.6430 C   0  0  0  0  0  0
   -2.9560    3.4520  -23.8140 C   0  0  0  0  0  0
   -2.7890    3.2600  -22.3870 C   0  0  0  0  0  0
   -4.3090    3.6740  -24.3410 C   0  0  0  0  0  0
   -3.5580    3.6320  -26.5400 C   0  0  0  0  0  0
    6.1920    3.2390  -21.2770 C   0  0  0  0  0  0
    6.0460    3.2900  -23.8290 C   0  0  0  0  0  0
   -4.5650    3.7510  -25.6790 C   0  0  0  0  0  0
    2.2530    3.7760  -23.8560 C   0  0  0  0  0  0
    1.4140    4.8810  -23.5940 C   0  0  0  0  0  0
    3.1940    6.1280  -22.9600 C   0  0  0  0  0  0
    3.6500    4.0000  -23.5530 C   0  0  0  0  0  0
    1.7230    2.6280  -24.4770 C   0  0  0  0  0  0
   -0.4170    3.4100  -24.3890 C   0  0  0  0  0  0
    0.0910    4.6590  -23.8340 C   0  0  0  0  0  0
   -1.8700    3.3800  -24.7400 C   0  0  0  0  0  0
    4.2970    1.5240  -23.1760 C   0  0  0  0  0  0
    5.2390    1.2240  -22.0200 C   0  0  2  0  0  0
    6.8050    2.7700  -22.6140 C   0  0  2  0  0  0
    5.2070    2.2650  -20.8890 C   0  0  0  0  0  0
   -2.2010    3.4840  -26.1720 C   0  0  0  0  0  0
   -1.4370    2.8890  -21.7770 C   0  0  0  0  0  0
   -0.3990    2.5760  -21.2620 C   0  0  0  0  0  0
   -0.7670    5.7010  -23.5240 F   0  0  0  0  0  0
   -3.6240    3.1960  -20.2540 F   0  0  0  0  0  0
    1.8730    6.0650  -23.1040 N   0  0  0  0  0  0
    4.1060    5.1730  -23.1490 N   0  0  0  0  0  0
    0.4180    2.5070  -24.7750 N   0  0  0  0  0  0
    4.5850    2.9620  -23.6960 N   0  0  0  0  0  0
    6.6430    1.2970  -22.5080 N   0  0  1  0  0  0
   -3.7340    3.5950  -27.9290 O   0  0  0  0  0  0
   -5.8849    3.6833  -21.2634 H   0  0  0  0  0  0
   -6.3741    3.9127  -23.6623 H   0  0  0  0  0  0
    5.7046    4.2148  -21.4193 H   0  0  0  0  0  0
    6.9790    3.2895  -20.5102 H   0  0  0  0  0  0
    6.4459    2.8204  -24.7398 H   0  0  0  0  0  0
    6.1711    4.3805  -23.9006 H   0  0  0  0  0  0
   -5.5788    3.9076  -26.0293 H   0  0  0  0  0  0
    2.3752    1.8002  -24.7309 H   0  0  0  0  0  0
    3.2561    1.4624  -22.8257 H   0  0  0  0  0  0
    4.4696    0.8004  -23.9864 H   0  0  0  0  0  0
    5.0321    0.2219  -21.6163 H   0  0  0  0  0  0
    7.8689    3.0433  -22.6725 H   0  0  0  0  0  0
    4.2153    2.7401  -20.8597 H   0  0  0  0  0  0
    5.5166    1.7889  -19.9469 H   0  0  0  0  0  0
   -1.4323    3.4509  -26.9356 H   0  0  0  0  0  0
    0.5143    2.3009  -20.8089 H   0  0  0  0  0  0
    7.3002    0.8343  -21.7867 H   0  0  0  0  0  0
   -2.8888    3.5059  -28.3536 H   0  0  0  0  0  0
    4.9530    7.3350  -21.7530 N   0  3  0  0  0  0
    5.3700    9.6490  -21.7220 N   0  0  0  0  0  0
    6.8300    8.0330  -20.6340 N   0  0  0  0  0  0
    5.7330    8.3810  -21.3660 C   0  0  0  0  0  0
    6.2340   10.8240  -21.6450 C   0  0  0  0  0  0
    3.7330    7.4920  -22.5400 C   0  0  0  0  0  0
    7.6390    8.9490  -19.8390 C   0  0  0  0  0  0
    6.1140   11.4590  -24.0990 C   0  0  0  0  0  0
    5.8090   11.9040  -22.6590 C   0  0  0  0  0  0
    5.2141    6.3735  -21.4919 H   0  0  0  0  0  0
    4.4213    9.8331  -22.0783 H   0  0  0  0  0  0
    7.1469    7.0532  -20.6140 H   0  0  0  0  0  0
    7.2744   10.5262  -21.8419 H   0  0  0  0  0  0
    6.1950   11.2411  -20.6279 H   0  0  0  0  0  0
    3.9490    8.0921  -23.4362 H   0  0  0  0  0  0
    2.9742    8.0159  -21.9402 H   0  0  0  0  0  0
    8.4571    8.3929  -19.3579 H   0  0  0  0  0  0
    8.0599    9.7278  -20.4919 H   0  0  0  0  0  0
    7.0118    9.4182  -19.0667 H   0  0  0  0  0  0
    5.8012   12.2464  -24.8005 H   0  0  0  0  0  0
    7.1941   11.2810  -24.2070 H   0  0  0  0  0  0
    5.5659   10.5318  -24.3221 H   0  0  0  0  0  0
    6.3442   12.8404  -22.4429 H   0  0  0  0  0  0
    4.7311   12.0980  -22.5560 H   0  0  0  0  0  0
  1  2  2  0  0  0
  1  3  1  0  0  0
  1 34  1  0  0  0
  2  6  1  0  0  0
  2 35  1  0  0  0
  3  5  2  0  0  0
  3 27  1  0  0  0
  4  5  1  0  0  0
  4  6  2  0  0  0
  4 18  1  0  0  0
  5 24  1  0  0  0
  6 10  1  0  0  0
  7 10  2  0  0  0
  7 23  1  0  0  0
  7 33  1  0  0  0
  8 21  1  0  0  0
  8 22  1  0  0  0
  8 36  1  0  0  0
  8 37  1  0  0  0
  9 21  1  0  0  0
  9 31  1  0  0  0
  9 38  1  0  0  0
  9 39  1  0  0  0
 10 40  1  0  0  0
 11 12  1  0  0  0
 11 14  2  0  0  0
 11 15  1  0  0  0
 12 17  1  0  0  0
 12 28  2  0  0  0
 13 28  1  0  0  0
 13 29  2  0  0  0
 13 57  1  0  0  0
 14 29  1  0  0  0
 14 31  1  0  0  0
 15 30  2  0  0  0
 15 41  1  0  0  0
 16 17  2  0  0  0
 16 18  1  0  0  0
 16 30  1  0  0  0
 17 26  1  0  0  0
 18 23  2  0  0  0
 19 20  1  0  0  0
 19 31  1  0  0  0
 19 42  1  0  0  0
 19 43  1  0  0  0
 20 22  1  0  0  0
 20 32  1  0  0  0
 20 44  1  0  0  0
 21 32  1  0  0  0
 21 45  1  0  0  0
 22 46  1  0  0  0
 22 47  1  0  0  0
 23 48  1  0  0  0
 24 25  3  0  0  0
 25 49  1  0  0  0
 32 50  1  0  0  0
 33 51  1  0  0  0
 52 55  2  0  0  0
 52 57  1  0  0  0
 52 61  1  0  0  0
 53 55  1  0  0  0
 53 56  1  0  0  0
 53 62  1  0  0  0
 54 55  1  0  0  0
 54 58  1  0  0  0
 54 63  1  0  0  0
 56 60  1  0  0  0
 56 64  1  0  0  0
 56 65  1  0  0  0
 57 66  1  0  0  0
 57 67  1  0  0  0
 58 68  1  0  0  0
 58 69  1  0  0  0
 58 70  1  0  0  0
 59 60  1  0  0  0
 59 71  1  0  0  0
 59 72  1  0  0  0
 59 73  1  0  0  0
 60 74  1  0  0  0
 60 75  1  0  0  0
M  CHG  1  52   1
M  END
> <s_m_entry_id>
465

> <s_m_entry_name>
000000465.1

> <s_m_Source_Path>
/Users/zaksoul/Documents/2

> <s_m_Source_File>
000000465.mol2

> <i_m_Source_File_Index>
1

$$$$
No_0_489
                    3D
 Schrodinger Suite 2022-4.
 72 77  0  0  1  0            999 V2000
   -5.3740    3.4320  -21.9550 C   0  0  0  0  0  0
   -5.6050    3.6420  -23.2930 C   0  0  0  0  0  0
   -4.1400    3.2030  -21.5810 C   0  0  0  0  0  0
   -3.1880    3.3970  -23.7160 C   0  0  0  0  0  0
   -3.0640    3.1270  -22.2960 C   0  0  0  0  0  0
   -4.5260    3.6360  -24.2720 C   0  0  0  0  0  0
   -3.7070    3.7230  -26.4460 C   0  0  0  0  0  0
    5.8770    3.1250  -20.9030 C   0  0  0  0  0  0
    5.8110    3.3170  -23.4520 C   0  0  0  0  0  0
   -4.7410    3.7850  -25.6120 C   0  0  0  0  0  0
    2.0150    3.7690  -23.5740 C   0  0  0  0  0  0
    1.1570    4.8500  -23.2770 C   0  0  0  0  0  0
    2.9030    6.0770  -22.5200 C   0  0  0  0  0  0
    3.4000    3.9890  -23.2140 C   0  0  0  0  0  0
    1.5180    2.6530  -24.2730 C   0  0  0  0  0  0
   -0.6320    3.4100  -24.2110 C   0  0  0  0  0  0
   -0.1550    4.6300  -23.5720 C   0  0  0  0  0  0
   -2.0730    3.3860  -24.6090 C   0  0  0  0  0  0
    4.0610    1.5020  -22.9540 C   0  0  0  0  0  0
    4.9690    1.1460  -21.7870 C   0  0  2  0  0  0
    6.5370    2.7370  -22.2440 C   0  0  2  0  0  0
    4.8910    2.1220  -20.6010 C   0  0  0  0  0  0
   -2.3600    3.5670  -26.0430 C   0  0  0  0  0  0
   -1.7280    2.7360  -21.6660 C   0  0  0  0  0  0
   -0.7040    2.4040  -21.1360 C   0  0  0  0  0  0
   -1.0330    5.6460  -23.2320 F   0  0  0  0  0  0
   -3.9650    2.9370  -20.1990 F   0  0  0  0  0  0
    1.5880    6.0100  -22.7090 N   0  0  0  0  0  0
    3.8300    5.1420  -22.7320 N   0  0  0  0  0  0
    0.2240    2.5360  -24.6200 N   0  0  0  0  0  0
    4.3500    2.9680  -23.3840 N   0  0  0  0  0  0
    6.3880    1.2580  -22.2250 N   0  0  1  0  0  0
   -3.8380    3.7620  -27.8390 O   0  0  0  0  0  0
   -6.1981    3.4601  -21.2514 H   0  0  0  0  0  0
   -6.6139    3.8177  -23.6484 H   0  0  0  0  0  0
    5.3845    4.1030  -21.0080 H   0  0  0  0  0  0
    6.6395    3.1391  -20.1102 H   0  0  0  0  0  0
    6.2437    2.9014  -24.3740 H   0  0  0  0  0  0
    5.9260    4.4109  -23.4591 H   0  0  0  0  0  0
   -5.7452    3.9517  -25.9846 H   0  0  0  0  0  0
    2.1862    1.8463  -24.5519 H   0  0  0  0  0  0
    3.0104    1.4112  -22.6411 H   0  0  0  0  0  0
    4.2657    0.8255  -23.7969 H   0  0  0  0  0  0
    4.7602    0.1212  -21.4461 H   0  0  0  0  0  0
    7.5995    3.0215  -22.2531 H   0  0  0  0  0  0
    3.8940    2.5862  -20.5778 H   0  0  0  0  0  0
    5.1765    1.5964  -19.6779 H   0  0  0  0  0  0
   -1.5679    3.5831  -26.7829 H   0  0  0  0  0  0
    0.1971    2.1110  -20.6699 H   0  0  0  0  0  0
    7.0269    0.7625  -21.5090 H   0  0  0  0  0  0
   -2.9791    3.7036  -28.2407 H   0  0  0  0  0  0
    4.6430    7.7820  -22.7060 N   0  3  0  0  0  0
    6.1720    9.2210  -23.6430 N   0  0  0  0  0  0
    4.8320   10.0520  -21.8890 N   0  0  0  0  0  0
    7.9080   10.5810  -22.5240 C   0  0  0  0  0  0
    6.9730   10.4400  -23.7380 C   0  0  0  0  0  0
    3.4130    7.4200  -22.0080 C   0  0  0  0  0  0
    5.1930    9.0290  -22.7170 C   0  0  0  0  0  0
    4.1980    9.8700  -20.5890 C   0  0  0  0  0  0
    5.0997    7.0135  -23.2176 H   0  0  0  0  0  0
    6.3841    8.4828  -24.3292 H   0  0  0  0  0  0
    5.0050   11.0277  -22.1699 H   0  0  0  0  0  0
    8.4981   11.5042  -22.6210 H   0  0  0  0  0  0
    7.3099   10.6230  -21.6018 H   0  0  0  0  0  0
    8.5861    9.7159  -22.4810 H   0  0  0  0  0  0
    6.3059   11.3131  -23.7900 H   0  0  0  0  0  0
    7.5709   10.4140  -24.6609 H   0  0  0  0  0  0
    2.6501    8.1929  -22.1832 H   0  0  0  0  0  0
    3.6129    7.3490  -20.9286 H   0  0  0  0  0  0
    4.0131   10.8525  -20.1302 H   0  0  0  0  0  0
    3.2424    9.3407  -20.7181 H   0  0  0  0  0  0
    4.8593    9.2797  -19.9377 H   0  0  0  0  0  0
  1  2  2  0  0  0
  1  3  1  0  0  0
  1 34  1  0  0  0
  2  6  1  0  0  0
  2 35  1  0  0  0
  3  5  2  0  0  0
  3 27  1  0  0  0
  4  5  1  0  0  0
  4  6  2  0  0  0
  4 18  1  0  0  0
  5 24  1  0  0  0
  6 10  1  0  0  0
  7 10  2  0  0  0
  7 23  1  0  0  0
  7 33  1  0  0  0
  8 21  1  0  0  0
  8 22  1  0  0  0
  8 36  1  0  0  0
  8 37  1  0  0  0
  9 21  1  0  0  0
  9 31  1  0  0  0
  9 38  1  0  0  0
  9 39  1  0  0  0
 10 40  1  0  0  0
 11 12  1  0  0  0
 11 14  2  0  0  0
 11 15  1  0  0  0
 12 17  1  0  0  0
 12 28  2  0  0  0
 13 28  1  0  0  0
 13 29  2  0  0  0
 13 57  1  0  0  0
 14 29  1  0  0  0
 14 31  1  0  0  0
 15 30  2  0  0  0
 15 41  1  0  0  0
 16 17  2  0  0  0
 16 18  1  0  0  0
 16 30  1  0  0  0
 17 26  1  0  0  0
 18 23  2  0  0  0
 19 20  1  0  0  0
 19 31  1  0  0  0
 19 42  1  0  0  0
 19 43  1  0  0  0
 20 22  1  0  0  0
 20 32  1  0  0  0
 20 44  1  0  0  0
 21 32  1  0  0  0
 21 45  1  0  0  0
 22 46  1  0  0  0
 22 47  1  0  0  0
 23 48  1  0  0  0
 24 25  3  0  0  0
 25 49  1  0  0  0
 32 50  1  0  0  0
 33 51  1  0  0  0
 52 57  1  0  0  0
 52 58  2  0  0  0
 52 60  1  0  0  0
 53 56  1  0  0  0
 53 58  1  0  0  0
 53 61  1  0  0  0
 54 58  1  0  0  0
 54 59  1  0  0  0
 54 62  1  0  0  0
 55 56  1  0  0  0
 55 63  1  0  0  0
 55 64  1  0  0  0
 55 65  1  0  0  0
 56 66  1  0  0  0
 56 67  1  0  0  0
 57 68  1  0  0  0
 57 69  1  0  0  0
 59 70  1  0  0  0
 59 71  1  0  0  0
 59 72  1  0  0  0
M  CHG  1  52   1
M  END
> <s_m_entry_id>
466

> <s_m_entry_name>
000000466.1

> <s_m_Source_Path>
/Users/zaksoul/Documents/2

> <s_m_Source_File>
000000466.mol2

> <i_m_Source_File_Index>
1

$$$$
No_0_490
                    3D
 Schrodinger Suite 2022-4.
 70 76  0  0  1  0            999 V2000
   -5.3270    3.2000  -22.3180 C   0  0  0  0  0  0
   -5.5720    3.3840  -23.6590 C   0  0  0  0  0  0
   -4.0890    2.9870  -21.9520 C   0  0  0  0  0  0
   -3.1570    3.1500  -24.0980 C   0  0  0  0  0  0
   -3.0180    2.9060  -22.6750 C   0  0  0  0  0  0
   -4.5010    3.3690  -24.6470 C   0  0  0  0  0  0
   -3.7020    3.4230  -26.8280 C   0  0  0  0  0  0
    5.9340    2.9960  -21.3610 C   0  0  0  0  0  0
    5.8440    3.1420  -23.9130 C   0  0  0  0  0  0
   -4.7290    3.4920  -25.9870 C   0  0  0  0  0  0
    2.0450    3.5630  -24.0080 C   0  0  0  0  0  0
    1.1810    4.6430  -23.7240 C   0  0  0  0  0  0
    2.9240    5.8960  -23.0040 C   0  0  0  0  0  0
    3.4310    3.8000  -23.6650 C   0  0  0  0  0  0
    1.5500    2.4310  -24.6840 C   0  0  0  0  0  0
   -0.6050    3.1730  -24.6160 C   0  0  0  0  0  0
   -0.1320    4.4080  -24.0030 C   0  0  0  0  0  0
   -2.0500    3.1310  -25.0010 C   0  0  0  0  0  0
    4.1130    1.3230  -23.3670 C   0  0  0  0  0  0
    5.0340    0.9950  -22.2020 C   0  0  2  0  0  0
    6.5860    2.5890  -22.7010 C   0  0  2  0  0  0
    4.9580    1.9910  -21.0330 C   0  0  0  0  0  0
   -2.3510    3.2840  -26.4350 C   0  0  0  0  0  0
   -1.6740    2.5360  -22.0490 C   0  0  0  0  0  0
   -0.6430    2.2210  -21.5230 C   0  0  0  0  0  0
   -1.0150    5.4230  -23.6740 F   0  0  0  0  0  0
   -3.8990    2.7480  -20.5660 F   0  0  0  0  0  0
    1.6080    5.8160  -23.1800 N   0  0  0  0  0  0
    3.8560    4.9640  -23.2070 N   0  0  0  0  0  0
    0.2540    2.2990  -25.0160 N   0  0  0  0  0  0
    4.3870    2.7840  -23.8260 N   0  0  0  0  0  0
    6.4480    1.1100  -22.6540 N   0  0  1  0  0  0
   -3.8460    3.4360  -28.2210 O   0  0  0  0  0  0
   -6.1459    3.2341  -21.6085 H   0  0  0  0  0  0
   -6.5856    3.5457  -24.0076 H   0  0  0  0  0  0
    5.4336    3.9685  -21.4790 H   0  0  0  0  0  0
    6.7033    3.0303  -20.5755 H   0  0  0  0  0  0
    6.2727    2.7133  -24.8309 H   0  0  0  0  0  0
    5.9520    4.2363  -23.9403 H   0  0  0  0  0  0
   -5.7377    3.6446  -26.3534 H   0  0  0  0  0  0
    2.2215    1.6240  -24.9540 H   0  0  0  0  0  0
    3.0659    1.2302  -23.0432 H   0  0  0  0  0  0
    4.3158    0.6330  -24.1993 H   0  0  0  0  0  0
    4.8363   -0.0250  -21.8408 H   0  0  0  0  0  0
    7.6461    2.8818  -22.7242 H   0  0  0  0  0  0
    3.9582    2.4490  -21.0088 H   0  0  0  0  0  0
    5.2565    1.4847  -20.1032 H   0  0  0  0  0  0
   -1.5652    3.2930  -27.1817 H   0  0  0  0  0  0
    0.2644    1.9442  -21.0593 H   0  0  0  0  0  0
    7.0965    0.6317  -21.9349 H   0  0  0  0  0  0
   -2.9903    3.3776  -28.6295 H   0  0  0  0  0  0
    3.7230    7.2250  -21.0900 N   0  3  0  0  0  0
    5.0170    7.7300  -19.2170 N   0  0  0  0  0  0
    6.8670   11.1300  -22.5600 N   0  0  0  0  0  0
    3.4280    7.2520  -22.5200 C   0  0  0  0  0  0
    4.6930    7.9630  -20.5040 C   0  0  0  0  0  0
    4.7940    9.9320  -22.0540 C   0  0  0  0  0  0
    6.7840    9.2090  -21.0450 C   0  0  0  0  0  0
    5.4270    9.0410  -21.2160 C   0  0  0  0  0  0
    5.5430   10.9610  -22.7080 C   0  0  0  0  0  0
    7.4690   10.2580  -21.7350 C   0  0  0  0  0  0
    3.1399    6.5949  -20.5209 H   0  0  0  0  0  0
    5.7542    8.2871  -18.7619 H   0  0  0  0  0  0
    4.5269    6.9939  -18.6889 H   0  0  0  0  0  0
    4.3373    7.5228  -23.0766 H   0  0  0  0  0  0
    2.6666    8.0194  -22.7231 H   0  0  0  0  0  0
    3.7253    9.8560  -22.2190 H   0  0  0  0  0  0
    7.3340    8.5450  -20.3880 H   0  0  0  0  0  0
    4.9800   11.6260  -23.3530 H   0  0  0  0  0  0
    8.5366   10.3270  -21.5601 H   0  0  0  0  0  0
  1  2  2  0  0  0
  1  3  1  0  0  0
  1 34  1  0  0  0
  2  6  1  0  0  0
  2 35  1  0  0  0
  3  5  2  0  0  0
  3 27  1  0  0  0
  4  5  1  0  0  0
  4  6  2  0  0  0
  4 18  1  0  0  0
  5 24  1  0  0  0
  6 10  1  0  0  0
  7 10  2  0  0  0
  7 23  1  0  0  0
  7 33  1  0  0  0
  8 21  1  0  0  0
  8 22  1  0  0  0
  8 36  1  0  0  0
  8 37  1  0  0  0
  9 21  1  0  0  0
  9 31  1  0  0  0
  9 38  1  0  0  0
  9 39  1  0  0  0
 10 40  1  0  0  0
 11 12  1  0  0  0
 11 14  2  0  0  0
 11 15  1  0  0  0
 12 17  1  0  0  0
 12 28  2  0  0  0
 13 28  1  0  0  0
 13 29  2  0  0  0
 13 55  1  0  0  0
 14 29  1  0  0  0
 14 31  1  0  0  0
 15 30  2  0  0  0
 15 41  1  0  0  0
 16 17  2  0  0  0
 16 18  1  0  0  0
 16 30  1  0  0  0
 17 26  1  0  0  0
 18 23  2  0  0  0
 19 20  1  0  0  0
 19 31  1  0  0  0
 19 42  1  0  0  0
 19 43  1  0  0  0
 20 22  1  0  0  0
 20 32  1  0  0  0
 20 44  1  0  0  0
 21 32  1  0  0  0
 21 45  1  0  0  0
 22 46  1  0  0  0
 22 47  1  0  0  0
 23 48  1  0  0  0
 24 25  3  0  0  0
 25 49  1  0  0  0
 32 50  1  0  0  0
 33 51  1  0  0  0
 52 55  1  0  0  0
 52 56  2  0  0  0
 52 62  1  0  0  0
 53 56  1  0  0  0
 53 63  1  0  0  0
 53 64  1  0  0  0
 54 60  2  0  0  0
 54 61  1  0  0  0
 55 65  1  0  0  0
 55 66  1  0  0  0
 56 59  1  0  0  0
 57 59  2  0  0  0
 57 60  1  0  0  0
 57 67  1  0  0  0
 58 59  1  0  0  0
 58 61  2  0  0  0
 58 68  1  0  0  0
 60 69  1  0  0  0
 61 70  1  0  0  0
M  CHG  1  52   1
M  END
> <s_m_entry_id>
467

> <s_m_entry_name>
000000467.1

> <s_m_Source_Path>
/Users/zaksoul/Documents/2

> <s_m_Source_File>
000000467.mol2

> <i_m_Source_File_Index>
1

$$$$
No_0_491
                    3D
 Schrodinger Suite 2022-4.
 70 76  0  0  1  0            999 V2000
   -5.0920    3.5290  -22.1260 C   0  0  0  0  0  0
   -5.3570    3.6770  -23.4670 C   0  0  0  0  0  0
   -3.8500    3.3110  -21.7740 C   0  0  0  0  0  0
   -2.9530    3.4020  -23.9390 C   0  0  0  0  0  0
   -2.7930    3.1970  -22.5120 C   0  0  0  0  0  0
   -4.3030    3.6210  -24.4710 C   0  0  0  0  0  0
   -3.5400    3.6030  -26.6670 C   0  0  0  0  0  0
    6.1810    3.2170  -21.3480 C   0  0  0  0  0  0
    6.0500    3.2910  -23.9010 C   0  0  0  0  0  0
   -4.5520    3.7090  -25.8110 C   0  0  0  0  0  0
    2.2540    3.7550  -23.9460 C   0  0  0  0  0  0
    1.4080    4.8530  -23.6790 C   0  0  0  0  0  0
    3.1770    6.1040  -23.0230 C   0  0  0  0  0  0
    3.6490    3.9840  -23.6330 C   0  0  0  0  0  0
    1.7350    2.6100  -24.5810 C   0  0  0  0  0  0
   -0.4100    3.3790  -24.4990 C   0  0  0  0  0  0
    0.0880    4.6260  -23.9290 C   0  0  0  0  0  0
   -1.8610    3.3440  -24.8590 C   0  0  0  0  0  0
    4.3070    1.5090  -23.2750 C   0  0  0  0  0  0
    5.2440    1.2030  -22.1160 C   0  0  2  0  0  0
    6.8050    2.7640  -22.6860 C   0  0  2  0  0  0
    5.1990    2.2330  -20.9750 C   0  0  0  0  0  0
   -2.1840    3.4600  -26.2910 C   0  0  0  0  0  0
   -1.4420    2.8290  -21.8980 C   0  0  0  0  0  0
   -0.4060    2.5170  -21.3800 C   0  0  0  0  0  0
   -0.7780    5.6600  -23.6150 F   0  0  0  0  0  0
   -3.6400    3.1090  -20.3850 F   0  0  0  0  0  0
    1.8580    6.0350  -23.1750 N   0  0  0  0  0  0
    4.0950    5.1560  -23.2150 N   0  0  0  0  0  0
    0.4320    2.4840  -24.8880 N   0  0  0  0  0  0
    4.5900    2.9530  -23.7800 N   0  0  0  0  0  0
    6.6510    1.2880  -22.5950 N   0  0  1  0  0  0
   -3.7070    3.5790  -28.0570 O   0  0  0  0  0  0
   -5.8982    3.5933  -21.4042 H   0  0  0  0  0  0
   -6.3742    3.8417  -23.8034 H   0  0  0  0  0  0
    5.6893    4.1913  -21.4853 H   0  0  0  0  0  0
    6.9637    3.2635  -20.5765 H   0  0  0  0  0  0
    6.4577    2.8309  -24.8132 H   0  0  0  0  0  0
    6.1692    4.3828  -23.9616 H   0  0  0  0  0  0
   -5.5647    3.8636  -26.1653 H   0  0  0  0  0  0
    2.3932    1.7882  -24.8389 H   0  0  0  0  0  0
    3.2643    1.4383  -22.9318 H   0  0  0  0  0  0
    4.4877    0.7933  -24.0906 H   0  0  0  0  0  0
    5.0401    0.1959  -21.7234 H   0  0  0  0  0  0
    7.8680    3.0426  -22.7355 H   0  0  0  0  0  0
    4.2050    2.7033  -20.9478 H   0  0  0  0  0  0
    5.5069    1.7495  -20.0362 H   0  0  0  0  0  0
   -1.4112    3.4379  -27.0508 H   0  0  0  0  0  0
    0.5053    2.2419  -20.9228 H   0  0  0  0  0  0
    7.3056    0.8227  -21.8730 H   0  0  0  0  0  0
   -2.8586    3.4978  -28.4767 H   0  0  0  0  0  0
    4.3480    7.3890  -21.2790 N   0  3  0  0  0  0
    6.0350    7.8910  -19.7500 N   0  0  0  0  0  0
    6.7910   11.5850  -23.2050 N   0  0  0  0  0  0
    3.7050    7.4670  -22.5880 C   0  0  0  0  0  0
    5.3880    8.1660  -20.8990 C   0  0  0  0  0  0
    4.9840   10.2140  -22.2880 C   0  0  0  0  0  0
    7.2010    9.5880  -21.8500 C   0  0  0  0  0  0
    5.8570    9.3300  -21.6940 C   0  0  0  0  0  0
    5.4840   11.3270  -23.0340 C   0  0  0  0  0  0
    7.6300   10.7200  -22.6130 C   0  0  0  0  0  0
    3.9630    6.6899  -20.6279 H   0  0  0  0  0  0
    6.8279    8.4770  -19.4520 H   0  0  0  0  0  0
    5.7361    7.0953  -19.1682 H   0  0  0  0  0  0
    4.4300    7.8330  -23.3300 H   0  0  0  0  0  0
    2.8738    8.1862  -22.5450 H   0  0  0  0  0  0
    3.9143   10.0670  -22.1920 H   0  0  0  0  0  0
    7.9349    8.9341  -21.3931 H   0  0  0  0  0  0
    4.7407   11.9812  -23.4752 H   0  0  0  0  0  0
    8.7016   10.8579  -22.7010 H   0  0  0  0  0  0
  1  2  2  0  0  0
  1  3  1  0  0  0
  1 34  1  0  0  0
  2  6  1  0  0  0
  2 35  1  0  0  0
  3  5  2  0  0  0
  3 27  1  0  0  0
  4  5  1  0  0  0
  4  6  2  0  0  0
  4 18  1  0  0  0
  5 24  1  0  0  0
  6 10  1  0  0  0
  7 10  2  0  0  0
  7 23  1  0  0  0
  7 33  1  0  0  0
  8 21  1  0  0  0
  8 22  1  0  0  0
  8 36  1  0  0  0
  8 37  1  0  0  0
  9 21  1  0  0  0
  9 31  1  0  0  0
  9 38  1  0  0  0
  9 39  1  0  0  0
 10 40  1  0  0  0
 11 12  1  0  0  0
 11 14  2  0  0  0
 11 15  1  0  0  0
 12 17  1  0  0  0
 12 28  2  0  0  0
 13 28  1  0  0  0
 13 29  2  0  0  0
 13 55  1  0  0  0
 14 29  1  0  0  0
 14 31  1  0  0  0
 15 30  2  0  0  0
 15 41  1  0  0  0
 16 17  2  0  0  0
 16 18  1  0  0  0
 16 30  1  0  0  0
 17 26  1  0  0  0
 18 23  2  0  0  0
 19 20  1  0  0  0
 19 31  1  0  0  0
 19 42  1  0  0  0
 19 43  1  0  0  0
 20 22  1  0  0  0
 20 32  1  0  0  0
 20 44  1  0  0  0
 21 32  1  0  0  0
 21 45  1  0  0  0
 22 46  1  0  0  0
 22 47  1  0  0  0
 23 48  1  0  0  0
 24 25  3  0  0  0
 25 49  1  0  0  0
 32 50  1  0  0  0
 33 51  1  0  0  0
 52 55  1  0  0  0
 52 56  2  0  0  0
 52 62  1  0  0  0
 53 56  1  0  0  0
 53 63  1  0  0  0
 53 64  1  0  0  0
 54 60  2  0  0  0
 54 61  1  0  0  0
 55 65  1  0  0  0
 55 66  1  0  0  0
 56 59  1  0  0  0
 57 59  2  0  0  0
 57 60  1  0  0  0
 57 67  1  0  0  0
 58 59  1  0  0  0
 58 61  2  0  0  0
 58 68  1  0  0  0
 60 69  1  0  0  0
 61 70  1  0  0  0
M  CHG  1  52   1
M  END
> <s_m_entry_id>
468

> <s_m_entry_name>
000000468.1

> <s_m_Source_Path>
/Users/zaksoul/Documents/2

> <s_m_Source_File>
000000468.mol2

> <i_m_Source_File_Index>
1

$$$$
No_0_492
                    3D
 Schrodinger Suite 2022-4.
 66 72  0  0  1  0            999 V2000
   -5.1870    3.4130  -21.8710 C   0  0  0  0  0  0
   -5.4590    3.5750  -23.2080 C   0  0  0  0  0  0
   -3.9480    3.1620  -21.5310 C   0  0  0  0  0  0
   -3.0670    3.2380  -23.7030 C   0  0  0  0  0  0
   -2.9010    3.0230  -22.2780 C   0  0  0  0  0  0
   -4.4160    3.4960  -24.2230 C   0  0  0  0  0  0
   -3.6720    3.4680  -26.4240 C   0  0  0  0  0  0
    6.0800    2.8000  -21.1930 C   0  0  0  0  0  0
    5.9290    2.8890  -23.7440 C   0  0  0  0  0  0
   -4.6740    3.5970  -25.5590 C   0  0  0  0  0  0
    2.1470    3.4540  -23.7540 C   0  0  0  0  0  0
    1.3320    4.5730  -23.4740 C   0  0  0  0  0  0
    3.1390    5.7740  -22.8290 C   0  0  0  0  0  0
    3.5500    3.6450  -23.4520 C   0  0  0  0  0  0
    1.5920    2.3260  -24.3890 C   0  0  0  0  0  0
   -0.5310    3.1510  -24.2850 C   0  0  0  0  0  0
    0.0040    4.3810  -23.7140 C   0  0  0  0  0  0
   -1.9860    3.1570  -24.6320 C   0  0  0  0  0  0
    4.1450    1.1510  -23.1110 C   0  0  0  0  0  0
    5.0830    0.8150  -21.9620 C   0  0  2  0  0  0
    6.6800    2.3370  -22.5380 C   0  0  2  0  0  0
    5.0760    1.8410  -20.8160 C   0  0  0  0  0  0
   -2.3180    3.2880  -26.0620 C   0  0  0  0  0  0
   -1.5550    2.6160  -21.6780 C   0  0  0  0  0  0
   -0.5230    2.2740  -21.1700 C   0  0  0  0  0  0
   -0.8310    5.4370  -23.3880 F   0  0  0  0  0  0
   -3.7320    2.9470  -20.1450 F   0  0  0  0  0  0
    1.8170    5.7400  -22.9700 N   0  0  0  0  0  0
    4.0300    4.8030  -23.0330 N   0  0  0  0  0  0
    0.2840    2.2360  -24.6860 N   0  0  0  0  0  0
    4.4620    2.5890  -23.6120 N   0  0  0  0  0  0
    6.4880    0.8660  -22.4520 N   0  0  1  0  0  0
   -3.8520    3.4550  -27.8130 O   0  0  0  0  0  0
   -5.9846    3.4953  -21.1416 H   0  0  0  0  0  0
   -6.4744    3.7676  -23.5351 H   0  0  0  0  0  0
    5.6129    3.7876  -21.3211 H   0  0  0  0  0  0
    6.8702    2.8222  -20.4281 H   0  0  0  0  0  0
    6.3165    2.4238  -24.6624 H   0  0  0  0  0  0
    6.0763    3.9776  -23.8005 H   0  0  0  0  0  0
   -5.6851    3.7797  -25.9044 H   0  0  0  0  0  0
    2.2264    1.4889  -24.6570 H   0  0  0  0  0  0
    3.1039    1.1066  -22.7586 H   0  0  0  0  0  0
    4.3005    0.4353  -23.9317 H   0  0  0  0  0  0
    4.8560   -0.1880  -21.5715 H   0  0  0  0  0  0
    7.7494    2.5882  -22.5955 H   0  0  0  0  0  0
    4.0948    2.3367  -20.7776 H   0  0  0  0  0  0
    5.3787    1.3456  -19.8817 H   0  0  0  0  0  0
   -1.5520    3.2488  -26.8280 H   0  0  0  0  0  0
    0.3851    1.9730  -20.7229 H   0  0  0  0  0  0
    7.1370    0.3795  -21.7389 H   0  0  0  0  0  0
   -3.0101    3.3541  -28.2414 H   0  0  0  0  0  0
    3.1570    8.0990  -22.8340 O   0  0  0  0  0  0
    6.7880    7.9070  -21.5900 N   0  0  1  0  0  0
    5.4970    8.5400  -21.1730 C   0  0  0  0  0  0
    6.2050    6.5780  -21.9520 C   0  0  0  0  0  0
    7.5300    8.6010  -22.6980 C   0  0  0  0  0  0
    4.8660    7.1470  -21.4230 C   0  0  0  0  0  0
    3.7020    7.1070  -22.3960 C   0  0  0  0  0  0
    5.1769    9.1892  -22.0013 H   0  0  0  0  0  0
    5.5460    8.6780  -20.0828 H   0  0  0  0  0  0
    6.5652    5.8557  -21.2047 H   0  0  0  0  0  0
    6.1290    6.5500  -23.0490 H   0  0  0  0  0  0
    8.4567    8.0512  -22.9189 H   0  0  0  0  0  0
    6.8988    8.6330  -23.5983 H   0  0  0  0  0  0
    7.7770    9.6268  -22.3871 H   0  0  0  0  0  0
    4.5921    6.6702  -20.4703 H   0  0  0  0  0  0
  1  2  2  0  0  0
  1  3  1  0  0  0
  1 34  1  0  0  0
  2  6  1  0  0  0
  2 35  1  0  0  0
  3  5  2  0  0  0
  3 27  1  0  0  0
  4  5  1  0  0  0
  4  6  2  0  0  0
  4 18  1  0  0  0
  5 24  1  0  0  0
  6 10  1  0  0  0
  7 10  2  0  0  0
  7 23  1  0  0  0
  7 33  1  0  0  0
  8 21  1  0  0  0
  8 22  1  0  0  0
  8 36  1  0  0  0
  8 37  1  0  0  0
  9 21  1  0  0  0
  9 31  1  0  0  0
  9 38  1  0  0  0
  9 39  1  0  0  0
 10 40  1  0  0  0
 11 12  1  0  0  0
 11 14  2  0  0  0
 11 15  1  0  0  0
 12 17  1  0  0  0
 12 28  2  0  0  0
 13 28  1  0  0  0
 13 29  2  0  0  0
 13 58  1  0  0  0
 14 29  1  0  0  0
 14 31  1  0  0  0
 15 30  2  0  0  0
 15 41  1  0  0  0
 16 17  2  0  0  0
 16 18  1  0  0  0
 16 30  1  0  0  0
 17 26  1  0  0  0
 18 23  2  0  0  0
 19 20  1  0  0  0
 19 31  1  0  0  0
 19 42  1  0  0  0
 19 43  1  0  0  0
 20 22  1  0  0  0
 20 32  1  0  0  0
 20 44  1  0  0  0
 21 32  1  0  0  0
 21 45  1  0  0  0
 22 46  1  0  0  0
 22 47  1  0  0  0
 23 48  1  0  0  0
 24 25  3  0  0  0
 25 49  1  0  0  0
 32 50  1  0  0  0
 33 51  1  0  0  0
 52 58  2  0  0  0
 53 54  1  0  0  0
 53 55  1  0  0  0
 53 56  1  0  0  0
 54 57  1  0  0  0
 54 59  1  0  0  0
 54 60  1  0  0  0
 55 57  1  0  0  0
 55 61  1  0  0  0
 55 62  1  0  0  0
 56 63  1  0  0  0
 56 64  1  0  0  0
 56 65  1  0  0  0
 57 58  1  0  0  0
 57 66  1  0  0  0
M  END
> <s_m_entry_id>
469

> <s_m_entry_name>
000000469.1

> <s_m_Source_Path>
/Users/zaksoul/Documents/2

> <s_m_Source_File>
000000469.mol2

> <i_m_Source_File_Index>
1

$$$$
No_0_493
                    3D
 Schrodinger Suite 2022-4.
 68 74  0  0  1  0            999 V2000
   -5.0440    3.5410  -22.2420 C   0  0  0  0  0  0
   -5.3150    3.7120  -23.5790 C   0  0  0  0  0  0
   -3.8020    3.3090  -21.9000 C   0  0  0  0  0  0
   -2.9160    3.4250  -24.0690 C   0  0  0  0  0  0
   -2.7490    3.1980  -22.6460 C   0  0  0  0  0  0
   -4.2680    3.6630  -24.5900 C   0  0  0  0  0  0
   -3.5160    3.6710  -26.7900 C   0  0  0  0  0  0
    6.2300    3.1310  -21.5330 C   0  0  0  0  0  0
    6.0860    3.2440  -24.0830 C   0  0  0  0  0  0
   -4.5230    3.7720  -25.9270 C   0  0  0  0  0  0
    2.2940    3.7380  -24.1000 C   0  0  0  0  0  0
    1.4580    4.8380  -23.8120 C   0  0  0  0  0  0
    3.2400    6.0670  -23.1480 C   0  0  0  0  0  0
    3.6920    3.9520  -23.7920 C   0  0  0  0  0  0
    1.7620    2.6060  -24.7490 C   0  0  0  0  0  0
   -0.3760    3.3910  -24.6430 C   0  0  0  0  0  0
    0.1340    4.6250  -24.0580 C   0  0  0  0  0  0
   -1.8300    3.3730  -24.9950 C   0  0  0  0  0  0
    4.3330    1.4660  -23.4740 C   0  0  0  0  0  0
    5.2730    1.1360  -22.3250 C   0  0  2  0  0  0
    6.8430    2.6930  -22.8810 C   0  0  2  0  0  0
    5.2430    2.1500  -21.1690 C   0  0  0  0  0  0
   -2.1600    3.5120  -26.4240 C   0  0  0  0  0  0
   -1.3990    2.8100  -22.0450 C   0  0  0  0  0  0
   -0.3620    2.4830  -21.5370 C   0  0  0  0  0  0
   -0.7220    5.6620  -23.7240 F   0  0  0  0  0  0
   -3.5860    3.0850  -20.5160 F   0  0  0  0  0  0
    1.9190    6.0100  -23.2940 N   0  0  0  0  0  0
    4.1490    5.1140  -23.3590 N   0  0  0  0  0  0
    0.4570    2.4950  -25.0510 N   0  0  0  0  0  0
    4.6240    2.9150  -23.9590 N   0  0  0  0  0  0
    6.6780    1.2180  -22.8100 N   0  0  1  0  0  0
   -3.6910    3.6680  -28.1790 O   0  0  0  0  0  0
   -5.8455    3.6012  -21.5147 H   0  0  0  0  0  0
   -6.3329    3.8887  -23.9073 H   0  0  0  0  0  0
    5.7454    4.1113  -21.6521 H   0  0  0  0  0  0
    7.0170    3.1613  -20.7651 H   0  0  0  0  0  0
    6.4847    2.7948  -25.0046 H   0  0  0  0  0  0
    6.2131    4.3357  -24.1284 H   0  0  0  0  0  0
   -5.5365    3.9387  -26.2735 H   0  0  0  0  0  0
    2.4127    1.7835  -25.0232 H   0  0  0  0  0  0
    3.2917    1.3994  -23.1259 H   0  0  0  0  0  0
    4.5037    0.7611  -24.3011 H   0  0  0  0  0  0
    5.0641    0.1249  -21.9456 H   0  0  0  0  0  0
    7.9075    2.9654  -22.9325 H   0  0  0  0  0  0
    4.2528    2.6274  -21.1286 H   0  0  0  0  0  0
    5.5517    1.6506  -20.2388 H   0  0  0  0  0  0
   -1.3916    3.4949  -27.1884 H   0  0  0  0  0  0
    0.5500    2.1940  -21.0900 H   0  0  0  0  0  0
    7.3338    0.7366  -22.0997 H   0  0  0  0  0  0
   -2.8460    3.5869  -28.6055 H   0  0  0  0  0  0
    3.1920    8.4010  -23.0750 O   0  0  0  0  0  0
    7.3930    9.4480  -22.0410 O   0  0  0  0  0  0
    4.5940    9.5850  -20.6270 N   0  3  0  0  0  0
    6.1170    9.5540  -22.6750 C   0  0  0  0  0  0
    6.9730    8.7440  -20.8710 C   0  0  0  0  0  0
    5.0170    7.3860  -21.8340 C   0  0  0  0  0  0
    5.5470    8.7830  -21.4640 C   0  0  0  0  0  0
    3.7760    7.4050  -22.7000 C   0  0  0  0  0  0
    4.2639    9.0208  -19.8597 H   0  0  0  0  0  0
    5.0663   10.3994  -20.2668 H   0  0  0  0  0  0
    3.8109    9.8740  -21.1921 H   0  0  0  0  0  0
    6.1210    8.8598  -23.5283 H   0  0  0  0  0  0
    5.7919   10.6002  -22.5760 H   0  0  0  0  0  0
    6.9970    9.4599  -20.0362 H   0  0  0  0  0  0
    7.3359    7.7101  -20.9680 H   0  0  0  0  0  0
    4.8110    6.8191  -20.9141 H   0  0  0  0  0  0
    5.8090    6.8190  -22.3450 H   0  0  0  0  0  0
  1  2  2  0  0  0
  1  3  1  0  0  0
  1 34  1  0  0  0
  2  6  1  0  0  0
  2 35  1  0  0  0
  3  5  2  0  0  0
  3 27  1  0  0  0
  4  5  1  0  0  0
  4  6  2  0  0  0
  4 18  1  0  0  0
  5 24  1  0  0  0
  6 10  1  0  0  0
  7 10  2  0  0  0
  7 23  1  0  0  0
  7 33  1  0  0  0
  8 21  1  0  0  0
  8 22  1  0  0  0
  8 36  1  0  0  0
  8 37  1  0  0  0
  9 21  1  0  0  0
  9 31  1  0  0  0
  9 38  1  0  0  0
  9 39  1  0  0  0
 10 40  1  0  0  0
 11 12  1  0  0  0
 11 14  2  0  0  0
 11 15  1  0  0  0
 12 17  1  0  0  0
 12 28  2  0  0  0
 13 28  1  0  0  0
 13 29  2  0  0  0
 13 59  1  0  0  0
 14 29  1  0  0  0
 14 31  1  0  0  0
 15 30  2  0  0  0
 15 41  1  0  0  0
 16 17  2  0  0  0
 16 18  1  0  0  0
 16 30  1  0  0  0
 17 26  1  0  0  0
 18 23  2  0  0  0
 19 20  1  0  0  0
 19 31  1  0  0  0
 19 42  1  0  0  0
 19 43  1  0  0  0
 20 22  1  0  0  0
 20 32  1  0  0  0
 20 44  1  0  0  0
 21 32  1  0  0  0
 21 45  1  0  0  0
 22 46  1  0  0  0
 22 47  1  0  0  0
 23 48  1  0  0  0
 24 25  3  0  0  0
 25 49  1  0  0  0
 32 50  1  0  0  0
 33 51  1  0  0  0
 52 59  2  0  0  0
 53 55  1  0  0  0
 53 56  1  0  0  0
 54 58  1  0  0  0
 54 60  1  0  0  0
 54 61  1  0  0  0
 54 62  1  0  0  0
 55 58  1  0  0  0
 55 63  1  0  0  0
 55 64  1  0  0  0
 56 58  1  0  0  0
 56 65  1  0  0  0
 56 66  1  0  0  0
 57 58  1  0  0  0
 57 59  1  0  0  0
 57 67  1  0  0  0
 57 68  1  0  0  0
M  CHG  1  54   1
M  END
> <s_m_entry_id>
470

> <s_m_entry_name>
000000470.1

> <s_m_Source_Path>
/Users/zaksoul/Documents/2

> <s_m_Source_File>
000000470.mol2

> <i_m_Source_File_Index>
1

$$$$
No_0_494
                    3D
 Schrodinger Suite 2022-4.
 67 73  0  0  1  0            999 V2000
   -5.0700    3.4180  -21.9010 C   0  0  0  0  0  0
   -5.3370    3.5690  -23.2410 C   0  0  0  0  0  0
   -3.8290    3.1860  -21.5540 C   0  0  0  0  0  0
   -2.9380    3.2640  -23.7210 C   0  0  0  0  0  0
   -2.7760    3.0580  -22.2950 C   0  0  0  0  0  0
   -4.2880    3.5000  -24.2500 C   0  0  0  0  0  0
   -3.5310    3.4720  -26.4470 C   0  0  0  0  0  0
    6.2010    2.9680  -21.1610 C   0  0  0  0  0  0
    6.0630    3.0430  -23.7140 C   0  0  0  0  0  0
   -4.5390    3.5900  -25.5880 C   0  0  0  0  0  0
    2.2730    3.5540  -23.7470 C   0  0  0  0  0  0
    1.4410    4.6620  -23.4770 C   0  0  0  0  0  0
    3.2280    5.8920  -22.8280 C   0  0  0  0  0  0
    3.6710    3.7660  -23.4380 C   0  0  0  0  0  0
    1.7380    2.4140  -24.3790 C   0  0  0  0  0  0
   -0.3970    3.2100  -24.2900 C   0  0  0  0  0  0
    0.1170    4.4500  -23.7230 C   0  0  0  0  0  0
   -1.8500    3.1930  -24.6450 C   0  0  0  0  0  0
    4.3010    1.2820  -23.0810 C   0  0  0  0  0  0
    5.2370    0.9660  -21.9250 C   0  0  2  0  0  0
    6.8150    2.5070  -22.5010 C   0  0  2  0  0  0
    5.2090    1.9970  -20.7850 C   0  0  0  0  0  0
   -2.1760    3.3120  -26.0770 C   0  0  0  0  0  0
   -1.4280    2.6730  -21.6850 C   0  0  0  0  0  0
   -0.3940    2.3490  -21.1700 C   0  0  0  0  0  0
   -0.7350    5.4960  -23.4060 F   0  0  0  0  0  0
   -3.6170    2.9810  -20.1660 F   0  0  0  0  0  0
    1.9070    5.8390  -22.9750 N   0  0  0  0  0  0
    4.1330    4.9320  -23.0220 N   0  0  0  0  0  0
    0.4320    2.3040  -24.6820 N   0  0  0  0  0  0
    4.6000    2.7220  -23.5870 N   0  0  0  0  0  0
    6.6430    1.0330  -22.4090 N   0  0  1  0  0  0
   -3.7040    3.4480  -27.8370 O   0  0  0  0  0  0
   -5.8724    3.4923  -21.1759 H   0  0  0  0  0  0
   -6.3529    3.7457  -23.5753 H   0  0  0  0  0  0
    5.7214    3.9485  -21.2973 H   0  0  0  0  0  0
    6.9869    3.0063  -20.3923 H   0  0  0  0  0  0
    6.4617    2.5777  -24.6275 H   0  0  0  0  0  0
    6.1952    4.1333  -23.7756 H   0  0  0  0  0  0
   -5.5509    3.7566  -25.9393 H   0  0  0  0  0  0
    2.3857    1.5846  -24.6391 H   0  0  0  0  0  0
    3.2588    1.2245  -22.7339 H   0  0  0  0  0  0
    4.4695    0.5644  -23.8975 H   0  0  0  0  0  0
    5.0222   -0.0382  -21.5308 H   0  0  0  0  0  0
    7.8810    2.7732  -22.5544 H   0  0  0  0  0  0
    4.2209    2.4794  -20.7537 H   0  0  0  0  0  0
    5.5137    1.5106  -19.8466 H   0  0  0  0  0  0
   -1.4058    3.2799  -26.8391 H   0  0  0  0  0  0
    0.5160    2.0630  -20.7170 H   0  0  0  0  0  0
    7.2952    0.5604  -21.6895 H   0  0  0  0  0  0
   -2.8580    3.3570  -28.2595 H   0  0  0  0  0  0
    3.1920    8.2270  -22.7890 O   0  0  0  0  0  0
    6.9300    8.8150  -21.2680 N   0  0  0  0  0  0
    4.9600    9.7430  -21.2130 N   0  3  0  0  0  0
    5.6250    8.6030  -21.3400 C   0  0  0  0  0  0
    5.8480   10.8860  -21.0650 C   0  0  0  0  0  0
    7.2560   10.2190  -21.0760 C   0  0  0  0  0  0
    5.0200    7.2360  -21.5500 C   0  0  0  0  0  0
    3.7690    7.2350  -22.3990 C   0  0  0  0  0  0
    7.5845    8.0236  -21.3469 H   0  0  0  0  0  0
    3.9301    9.7430  -21.2280 H   0  0  0  0  0  0
    5.6759   11.3522  -20.0836 H   0  0  0  0  0  0
    5.7490   11.5382  -21.9453 H   0  0  0  0  0  0
    7.8220   10.5810  -21.9470 H   0  0  0  0  0  0
    7.7268   10.3489  -20.0904 H   0  0  0  0  0  0
    4.7990    6.7819  -20.5728 H   0  0  0  0  0  0
    5.7699    6.5721  -22.0049 H   0  0  0  0  0  0
  1  2  2  0  0  0
  1  3  1  0  0  0
  1 34  1  0  0  0
  2  6  1  0  0  0
  2 35  1  0  0  0
  3  5  2  0  0  0
  3 27  1  0  0  0
  4  5  1  0  0  0
  4  6  2  0  0  0
  4 18  1  0  0  0
  5 24  1  0  0  0
  6 10  1  0  0  0
  7 10  2  0  0  0
  7 23  1  0  0  0
  7 33  1  0  0  0
  8 21  1  0  0  0
  8 22  1  0  0  0
  8 36  1  0  0  0
  8 37  1  0  0  0
  9 21  1  0  0  0
  9 31  1  0  0  0
  9 38  1  0  0  0
  9 39  1  0  0  0
 10 40  1  0  0  0
 11 12  1  0  0  0
 11 14  2  0  0  0
 11 15  1  0  0  0
 12 17  1  0  0  0
 12 28  2  0  0  0
 13 28  1  0  0  0
 13 29  2  0  0  0
 13 59  1  0  0  0
 14 29  1  0  0  0
 14 31  1  0  0  0
 15 30  2  0  0  0
 15 41  1  0  0  0
 16 17  2  0  0  0
 16 18  1  0  0  0
 16 30  1  0  0  0
 17 26  1  0  0  0
 18 23  2  0  0  0
 19 20  1  0  0  0
 19 31  1  0  0  0
 19 42  1  0  0  0
 19 43  1  0  0  0
 20 22  1  0  0  0
 20 32  1  0  0  0
 20 44  1  0  0  0
 21 32  1  0  0  0
 21 45  1  0  0  0
 22 46  1  0  0  0
 22 47  1  0  0  0
 23 48  1  0  0  0
 24 25  3  0  0  0
 25 49  1  0  0  0
 32 50  1  0  0  0
 33 51  1  0  0  0
 52 59  2  0  0  0
 53 55  1  0  0  0
 53 57  1  0  0  0
 53 60  1  0  0  0
 54 55  2  0  0  0
 54 56  1  0  0  0
 54 61  1  0  0  0
 55 58  1  0  0  0
 56 57  1  0  0  0
 56 62  1  0  0  0
 56 63  1  0  0  0
 57 64  1  0  0  0
 57 65  1  0  0  0
 58 59  1  0  0  0
 58 66  1  0  0  0
 58 67  1  0  0  0
M  CHG  1  54   1
M  END
> <s_m_entry_id>
471

> <s_m_entry_name>
000000471.1

> <s_m_Source_Path>
/Users/zaksoul/Documents/2

> <s_m_Source_File>
000000471.mol2

> <i_m_Source_File_Index>
1

$$$$
No_0_495
                    3D
 Schrodinger Suite 2022-4.
 67 73  0  0  1  0            999 V2000
   -5.0410    3.6550  -21.7850 C   0  0  0  0  0  0
   -5.3200    3.8330  -23.1190 C   0  0  0  0  0  0
   -3.8000    3.4010  -21.4540 C   0  0  0  0  0  0
   -2.9300    3.5060  -23.6300 C   0  0  0  0  0  0
   -2.7560    3.2730  -22.2090 C   0  0  0  0  0  0
   -4.2820    3.7680  -24.1400 C   0  0  0  0  0  0
   -3.5500    3.7680  -26.3460 C   0  0  0  0  0  0
    6.2310    3.0510  -21.1740 C   0  0  0  0  0  0
    6.0660    3.1710  -23.7230 C   0  0  0  0  0  0
   -4.5470    3.8840  -25.4730 C   0  0  0  0  0  0
    2.2830    3.7300  -23.7060 C   0  0  0  0  0  0
    1.4690    4.8440  -23.4090 C   0  0  0  0  0  0
    3.2770    6.0400  -22.7580 C   0  0  0  0  0  0
    3.6870    3.9200  -23.4090 C   0  0  0  0  0  0
    1.7270    2.6090  -24.3520 C   0  0  0  0  0  0
   -0.3970    3.4300  -24.2270 C   0  0  0  0  0  0
    0.1400    4.6540  -23.6440 C   0  0  0  0  0  0
   -1.8530    3.4370  -24.5660 C   0  0  0  0  0  0
    4.2890    1.4230  -23.1020 C   0  0  0  0  0  0
    5.2330    1.0740  -21.9610 C   0  0  2  0  0  0
    6.8250    2.6050  -22.5280 C   0  0  2  0  0  0
    5.2300    2.0860  -20.8030 C   0  0  0  0  0  0
   -2.1930    3.5850  -25.9920 C   0  0  0  0  0  0
   -1.4070    2.8610  -21.6210 C   0  0  0  0  0  0
   -0.3720    2.5150  -21.1230 C   0  0  0  0  0  0
   -0.6960    5.7040  -23.3000 F   0  0  0  0  0  0
   -3.5760    3.1700  -20.0720 F   0  0  0  0  0  0
    1.9540    6.0060  -22.8920 N   0  0  0  0  0  0
    4.1680    5.0730  -22.9790 N   0  0  0  0  0  0
    0.4170    2.5210  -24.6430 N   0  0  0  0  0  0
    4.6000    2.8670  -23.5870 N   0  0  0  0  0  0
    6.6350    1.1330  -22.4590 N   0  0  1  0  0  0
   -3.7370    3.7710  -27.7330 O   0  0  0  0  0  0
   -5.8348    3.7273  -21.0504 H   0  0  0  0  0  0
   -6.3375    4.0277  -23.4381 H   0  0  0  0  0  0
    5.7616    4.0393  -21.2881 H   0  0  0  0  0  0
    7.0252    3.0661  -20.4131 H   0  0  0  0  0  0
    6.4497    2.7176  -24.6489 H   0  0  0  0  0  0
    6.2123    4.2603  -23.7674 H   0  0  0  0  0  0
   -5.5601    4.0696  -25.8110 H   0  0  0  0  0  0
    2.3606    1.7756  -24.6332 H   0  0  0  0  0  0
    3.2498    1.3726  -22.7448 H   0  0  0  0  0  0
    4.4404    0.7166  -23.9315 H   0  0  0  0  0  0
    5.0100    0.0659  -21.5816 H   0  0  0  0  0  0
    7.8936    2.8593  -22.5875 H   0  0  0  0  0  0
    4.2481    2.5795  -20.7536 H   0  0  0  0  0  0
    5.5378    1.5793  -19.8764 H   0  0  0  0  0  0
   -1.4313    3.5559  -26.7627 H   0  0  0  0  0  0
    0.5388    2.2101  -20.6841 H   0  0  0  0  0  0
    7.2880    0.6392  -21.7547 H   0  0  0  0  0  0
   -2.8969    3.6770  -28.1664 H   0  0  0  0  0  0
    3.1370    8.3500  -22.4340 O   0  0  0  0  0  0
    7.1000    9.0590  -21.7780 N   0  0  0  0  0  0
    5.1590    9.8230  -21.1510 N   0  3  0  0  0  0
    5.8280    8.7570  -21.5650 C   0  0  0  0  0  0
    5.9990   11.0090  -21.0810 C   0  0  0  0  0  0
    7.3940   10.4560  -21.5030 C   0  0  0  0  0  0
    5.2580    7.3770  -21.7880 C   0  0  0  0  0  0
    3.8400    7.3690  -22.3120 C   0  0  0  0  0  0
    7.7537    8.3323  -22.1029 H   0  0  0  0  0  0
    4.1578    9.7460  -20.9219 H   0  0  0  0  0  0
    6.0480   11.3568  -20.0386 H   0  0  0  0  0  0
    5.6569   11.7392  -21.8292 H   0  0  0  0  0  0
    7.7121   10.9492  -22.4334 H   0  0  0  0  0  0
    8.0820   10.5190  -20.6470 H   0  0  0  0  0  0
    5.3030    6.8083  -20.8475 H   0  0  0  0  0  0
    5.9071    6.8229  -22.4821 H   0  0  0  0  0  0
  1  2  2  0  0  0
  1  3  1  0  0  0
  1 34  1  0  0  0
  2  6  1  0  0  0
  2 35  1  0  0  0
  3  5  2  0  0  0
  3 27  1  0  0  0
  4  5  1  0  0  0
  4  6  2  0  0  0
  4 18  1  0  0  0
  5 24  1  0  0  0
  6 10  1  0  0  0
  7 10  2  0  0  0
  7 23  1  0  0  0
  7 33  1  0  0  0
  8 21  1  0  0  0
  8 22  1  0  0  0
  8 36  1  0  0  0
  8 37  1  0  0  0
  9 21  1  0  0  0
  9 31  1  0  0  0
  9 38  1  0  0  0
  9 39  1  0  0  0
 10 40  1  0  0  0
 11 12  1  0  0  0
 11 14  2  0  0  0
 11 15  1  0  0  0
 12 17  1  0  0  0
 12 28  2  0  0  0
 13 28  1  0  0  0
 13 29  2  0  0  0
 13 59  1  0  0  0
 14 29  1  0  0  0
 14 31  1  0  0  0
 15 30  2  0  0  0
 15 41  1  0  0  0
 16 17  2  0  0  0
 16 18  1  0  0  0
 16 30  1  0  0  0
 17 26  1  0  0  0
 18 23  2  0  0  0
 19 20  1  0  0  0
 19 31  1  0  0  0
 19 42  1  0  0  0
 19 43  1  0  0  0
 20 22  1  0  0  0
 20 32  1  0  0  0
 20 44  1  0  0  0
 21 32  1  0  0  0
 21 45  1  0  0  0
 22 46  1  0  0  0
 22 47  1  0  0  0
 23 48  1  0  0  0
 24 25  3  0  0  0
 25 49  1  0  0  0
 32 50  1  0  0  0
 33 51  1  0  0  0
 52 59  2  0  0  0
 53 55  1  0  0  0
 53 57  1  0  0  0
 53 60  1  0  0  0
 54 55  2  0  0  0
 54 56  1  0  0  0
 54 61  1  0  0  0
 55 58  1  0  0  0
 56 57  1  0  0  0
 56 62  1  0  0  0
 56 63  1  0  0  0
 57 64  1  0  0  0
 57 65  1  0  0  0
 58 59  1  0  0  0
 58 66  1  0  0  0
 58 67  1  0  0  0
M  CHG  1  54   1
M  END
> <s_m_entry_id>
472

> <s_m_entry_name>
000000472.1

> <s_m_Source_Path>
/Users/zaksoul/Documents/2

> <s_m_Source_File>
000000472.mol2

> <i_m_Source_File_Index>
1

$$$$
No_0_496
                    3D
 Schrodinger Suite 2022-4.
 76 82  0  0  1  0            999 V2000
   -5.0590    3.1970  -21.8400 C   0  0  0  0  0  0
   -5.3480    3.3540  -23.1750 C   0  0  0  0  0  0
   -3.8120    2.9700  -21.5130 C   0  0  0  0  0  0
   -2.9560    3.0630  -23.6940 C   0  0  0  0  0  0
   -2.7700    2.8510  -22.2720 C   0  0  0  0  0  0
   -4.3150    3.2950  -24.2000 C   0  0  0  0  0  0
   -3.5930    3.2820  -26.4090 C   0  0  0  0  0  0
    6.2240    2.8030  -21.2800 C   0  0  0  0  0  0
    6.0450    2.8900  -23.8300 C   0  0  0  0  0  0
   -4.5880    3.3910  -25.5340 C   0  0  0  0  0  0
    2.2530    3.3810  -23.8000 C   0  0  0  0  0  0
    1.4190    4.4830  -23.5120 C   0  0  0  0  0  0
    3.2090    5.7200  -22.8840 C   0  0  0  0  0  0
    3.6540    3.5990  -23.5130 C   0  0  0  0  0  0
    1.7130    2.2420  -24.4300 C   0  0  0  0  0  0
   -0.4240    3.0260  -24.3030 C   0  0  0  0  0  0
    0.0930    4.2660  -23.7380 C   0  0  0  0  0  0
   -1.8820    3.0030  -24.6350 C   0  0  0  0  0  0
    4.3020    1.1170  -23.1780 C   0  0  0  0  0  0
    5.2580    0.7990  -22.0390 C   0  0  2  0  0  0
    6.8190    2.3520  -22.6320 C   0  0  2  0  0  0
    5.2430    1.8250  -20.8930 C   0  0  0  0  0  0
   -2.2320    3.1270  -26.0610 C   0  0  0  0  0  0
   -1.4110    2.4710  -21.6850 C   0  0  0  0  0  0
   -0.3670    2.1490  -21.1880 C   0  0  0  0  0  0
   -0.7590    5.3060  -23.4020 F   0  0  0  0  0  0
   -3.5770    2.7590  -20.1300 F   0  0  0  0  0  0
    1.8870    5.6600  -23.0120 N   0  0  0  0  0  0
    4.1170    4.7660  -23.0980 N   0  0  0  0  0  0
    0.4040    2.1270  -24.7130 N   0  0  0  0  0  0
    4.5860    2.5610  -23.6820 N   0  0  0  0  0  0
    6.6560    0.8770  -22.5440 N   0  0  1  0  0  0
   -3.7870    3.2650  -27.7960 O   0  0  0  0  0  0
   -5.8507    3.2632  -21.1025 H   0  0  0  0  0  0
   -6.3704    3.5266  -23.4911 H   0  0  0  0  0  0
    5.7368    3.7815  -21.4031 H   0  0  0  0  0  0
    7.0218    2.8414  -20.5236 H   0  0  0  0  0  0
    6.4324    2.4320  -24.7520 H   0  0  0  0  0  0
    6.1712    3.9812  -23.8875 H   0  0  0  0  0  0
   -5.6063    3.5535  -25.8681 H   0  0  0  0  0  0
    2.3604    1.4169  -24.7040 H   0  0  0  0  0  0
    3.2654    1.0524  -22.8156 H   0  0  0  0  0  0
    4.4625    0.4045  -24.0005 H   0  0  0  0  0  0
    5.0551   -0.2083  -21.6464 H   0  0  0  0  0  0
    7.8825    2.6244  -22.7006 H   0  0  0  0  0  0
    4.2527    2.3015  -20.8445 H   0  0  0  0  0  0
    5.5648    1.3357  -19.9619 H   0  0  0  0  0  0
   -1.4732    3.1029  -26.8348 H   0  0  0  0  0  0
    0.5516    1.8658  -20.7507 H   0  0  0  0  0  0
    7.3225    0.4041  -21.8379 H   0  0  0  0  0  0
   -2.9480    3.1799  -28.2333 H   0  0  0  0  0  0
    3.1630    8.0560  -22.8330 O   0  0  0  0  0  0
    7.7340   11.4300  -23.4150 N   0  3  0  0  0  0
    6.4080    9.0930  -22.2720 C   0  0  0  0  0  0
    6.5260   10.8520  -24.1010 C   0  0  0  0  0  0
    8.5420   10.4170  -22.6520 C   0  0  0  0  0  0
    7.6470    9.7300  -21.6020 C   0  0  0  0  0  0
    5.6190   10.1640  -23.0610 C   0  0  0  0  0  0
    5.5170    8.4440  -21.1850 C   0  0  0  0  0  0
    4.9920    7.0500  -21.5920 C   0  0  0  0  0  0
    3.7500    7.0630  -22.4570 C   0  0  0  0  0  0
    7.4429   12.1652  -22.7898 H   0  0  0  0  0  0
    8.3221   11.8811  -24.0981 H   0  0  0  0  0  0
    6.7431    8.3118  -22.9702 H   0  0  0  0  0  0
    6.8488   10.1144  -24.8505 H   0  0  0  0  0  0
    5.9670   11.6580  -24.5990 H   0  0  0  0  0  0
    9.3791   10.9211  -22.1469 H   0  0  0  0  0  0
    8.9347    9.6616  -23.3485 H   0  0  0  0  0  0
    8.2232    8.9507  -21.0818 H   0  0  0  0  0  0
    7.3211   10.4719  -20.8581 H   0  0  0  0  0  0
    5.2260   10.9170  -22.3620 H   0  0  0  0  0  0
    4.7684    9.6897  -23.5724 H   0  0  0  0  0  0
    4.6656    9.1055  -20.9671 H   0  0  0  0  0  0
    6.0863    8.3600  -20.2475 H   0  0  0  0  0  0
    4.7989    6.4546  -20.6874 H   0  0  0  0  0  0
    5.7901    6.4980  -22.1100 H   0  0  0  0  0  0
  1  2  2  0  0  0
  1  3  1  0  0  0
  1 34  1  0  0  0
  2  6  1  0  0  0
  2 35  1  0  0  0
  3  5  2  0  0  0
  3 27  1  0  0  0
  4  5  1  0  0  0
  4  6  2  0  0  0
  4 18  1  0  0  0
  5 24  1  0  0  0
  6 10  1  0  0  0
  7 10  2  0  0  0
  7 23  1  0  0  0
  7 33  1  0  0  0
  8 21  1  0  0  0
  8 22  1  0  0  0
  8 36  1  0  0  0
  8 37  1  0  0  0
  9 21  1  0  0  0
  9 31  1  0  0  0
  9 38  1  0  0  0
  9 39  1  0  0  0
 10 40  1  0  0  0
 11 12  1  0  0  0
 11 14  2  0  0  0
 11 15  1  0  0  0
 12 17  1  0  0  0
 12 28  2  0  0  0
 13 28  1  0  0  0
 13 29  2  0  0  0
 13 61  1  0  0  0
 14 29  1  0  0  0
 14 31  1  0  0  0
 15 30  2  0  0  0
 15 41  1  0  0  0
 16 17  2  0  0  0
 16 18  1  0  0  0
 16 30  1  0  0  0
 17 26  1  0  0  0
 18 23  2  0  0  0
 19 20  1  0  0  0
 19 31  1  0  0  0
 19 42  1  0  0  0
 19 43  1  0  0  0
 20 22  1  0  0  0
 20 32  1  0  0  0
 20 44  1  0  0  0
 21 32  1  0  0  0
 21 45  1  0  0  0
 22 46  1  0  0  0
 22 47  1  0  0  0
 23 48  1  0  0  0
 24 25  3  0  0  0
 25 49  1  0  0  0
 32 50  1  0  0  0
 33 51  1  0  0  0
 52 61  2  0  0  0
 53 55  1  0  0  0
 53 56  1  0  0  0
 53 62  1  0  0  0
 53 63  1  0  0  0
 54 57  1  0  0  0
 54 58  1  0  0  0
 54 59  1  0  0  0
 54 64  1  0  0  0
 55 58  1  0  0  0
 55 65  1  0  0  0
 55 66  1  0  0  0
 56 57  1  0  0  0
 56 67  1  0  0  0
 56 68  1  0  0  0
 57 69  1  0  0  0
 57 70  1  0  0  0
 58 71  1  0  0  0
 58 72  1  0  0  0
 59 60  1  0  0  0
 59 73  1  0  0  0
 59 74  1  0  0  0
 60 61  1  0  0  0
 60 75  1  0  0  0
 60 76  1  0  0  0
M  CHG  1  53   1
M  END
> <s_m_entry_id>
473

> <s_m_entry_name>
000000473.1

> <s_m_Source_Path>
/Users/zaksoul/Documents/2

> <s_m_Source_File>
000000473.mol2

> <i_m_Source_File_Index>
1

$$$$
No_0_497
                    3D
 Schrodinger Suite 2022-4.
 72 77  0  0  1  0            999 V2000
   -5.1240    3.5800  -22.0390 C   0  0  0  0  0  0
   -5.3970    3.7410  -23.3770 C   0  0  0  0  0  0
   -3.8840    3.3370  -21.6990 C   0  0  0  0  0  0
   -3.0030    3.4210  -23.8710 C   0  0  0  0  0  0
   -2.8350    3.2060  -22.4460 C   0  0  0  0  0  0
   -4.3530    3.6700  -24.3910 C   0  0  0  0  0  0
   -3.6090    3.6480  -26.5930 C   0  0  0  0  0  0
    6.1470    3.0430  -21.3600 C   0  0  0  0  0  0
    5.9960    3.1330  -23.9110 C   0  0  0  0  0  0
   -4.6110    3.7690  -25.7270 C   0  0  0  0  0  0
    2.2100    3.6720  -23.9210 C   0  0  0  0  0  0
    1.3880    4.7850  -23.6410 C   0  0  0  0  0  0
    3.1860    5.9980  -22.9940 C   0  0  0  0  0  0
    3.6110    3.8720  -23.6190 C   0  0  0  0  0  0
    1.6630    2.5400  -24.5570 C   0  0  0  0  0  0
   -0.4660    3.3510  -24.4530 C   0  0  0  0  0  0
    0.0610    4.5850  -23.8810 C   0  0  0  0  0  0
   -1.9200    3.3470  -24.8000 C   0  0  0  0  0  0
    4.2240    1.3820  -23.2790 C   0  0  0  0  0  0
    5.1640    1.0520  -22.1290 C   0  0  2  0  0  0
    6.7510    2.5850  -22.7050 C   0  0  2  0  0  0
    5.1490    2.0770  -20.9830 C   0  0  0  0  0  0
   -2.2530    3.4760  -26.2300 C   0  0  0  0  0  0
   -1.4870    2.8080  -21.8460 C   0  0  0  0  0  0
   -0.4530    2.4730  -21.3380 C   0  0  0  0  0  0
   -0.7810    5.6350  -23.5540 F   0  0  0  0  0  0
   -3.6660    3.1230  -20.3130 F   0  0  0  0  0  0
    1.8650    5.9550  -23.1360 N   0  0  0  0  0  0
    4.0840    5.0330  -23.1990 N   0  0  0  0  0  0
    0.3550    2.4420  -24.8540 N   0  0  0  0  0  0
    4.5310    2.8230  -23.7790 N   0  0  0  0  0  0
    6.5680    1.1120  -22.6200 N   0  0  1  0  0  0
   -3.7880    3.6340  -27.9810 O   0  0  0  0  0  0
   -5.9229    3.6563  -21.3103 H   0  0  0  0  0  0
   -6.4136    3.9267  -23.7042 H   0  0  0  0  0  0
    5.6738    4.0278  -21.4871 H   0  0  0  0  0  0
    6.9366    3.0713  -20.5947 H   0  0  0  0  0  0
    6.3865    2.6699  -24.8292 H   0  0  0  0  0  0
    6.1364    4.2226  -23.9665 H   0  0  0  0  0  0
   -5.6235    3.9446  -26.0722 H   0  0  0  0  0  0
    2.3025    1.7068  -24.8250 H   0  0  0  0  0  0
    3.1831    1.3306  -22.9270 H   0  0  0  0  0  0
    4.3835    0.6672  -24.0998 H   0  0  0  0  0  0
    4.9440    0.0470  -21.7395 H   0  0  0  0  0  0
    7.8187    2.8433  -22.7625 H   0  0  0  0  0  0
    4.1647    2.5666  -20.9446 H   0  0  0  0  0  0
    5.4549    1.5824  -20.0493 H   0  0  0  0  0  0
   -1.4869    3.4429  -26.9961 H   0  0  0  0  0  0
    0.4571    2.1780  -20.8910 H   0  0  0  0  0  0
    7.2205    0.6307  -21.9066 H   0  0  0  0  0  0
   -2.9453    3.5391  -28.4093 H   0  0  0  0  0  0
    3.1620    8.3290  -22.9470 O   0  0  0  0  0  0
    5.3850   10.5540  -23.0810 N   0  3  0  0  0  0
    6.2000    9.4380  -22.4780 C   0  0  0  0  0  0
    5.7980   10.8570  -24.4940 C   0  0  0  0  0  0
    5.3720   11.8030  -22.2410 C   0  0  0  0  0  0
    4.9740    7.3220  -21.6850 C   0  0  0  0  0  0
    5.5020    8.7200  -21.2980 C   0  0  0  0  0  0
    3.7400    7.3340  -22.5610 C   0  0  0  0  0  0
    4.4328   10.2259  -23.1230 H   0  0  0  0  0  0
    7.1698    9.8339  -22.1421 H   0  0  0  0  0  0
    6.4450    8.7031  -23.2589 H   0  0  0  0  0  0
    5.1783   11.6746  -24.8908 H   0  0  0  0  0  0
    6.8561   11.1570  -24.5120 H   0  0  0  0  0  0
    5.6620    9.9600  -25.1160 H   0  0  0  0  0  0
    4.7623   12.5727  -22.7368 H   0  0  0  0  0  0
    4.9432   11.5771  -21.2535 H   0  0  0  0  0  0
    6.4002   12.1741  -22.1180 H   0  0  0  0  0  0
    4.7679    6.7447  -20.7716 H   0  0  0  0  0  0
    5.7729    6.7591  -22.1899 H   0  0  0  0  0  0
    4.6671    9.3380  -20.9360 H   0  0  0  0  0  0
    6.2070    8.6250  -20.4590 H   0  0  0  0  0  0
  1  2  2  0  0  0
  1  3  1  0  0  0
  1 34  1  0  0  0
  2  6  1  0  0  0
  2 35  1  0  0  0
  3  5  2  0  0  0
  3 27  1  0  0  0
  4  5  1  0  0  0
  4  6  2  0  0  0
  4 18  1  0  0  0
  5 24  1  0  0  0
  6 10  1  0  0  0
  7 10  2  0  0  0
  7 23  1  0  0  0
  7 33  1  0  0  0
  8 21  1  0  0  0
  8 22  1  0  0  0
  8 36  1  0  0  0
  8 37  1  0  0  0
  9 21  1  0  0  0
  9 31  1  0  0  0
  9 38  1  0  0  0
  9 39  1  0  0  0
 10 40  1  0  0  0
 11 12  1  0  0  0
 11 14  2  0  0  0
 11 15  1  0  0  0
 12 17  1  0  0  0
 12 28  2  0  0  0
 13 28  1  0  0  0
 13 29  2  0  0  0
 13 59  1  0  0  0
 14 29  1  0  0  0
 14 31  1  0  0  0
 15 30  2  0  0  0
 15 41  1  0  0  0
 16 17  2  0  0  0
 16 18  1  0  0  0
 16 30  1  0  0  0
 17 26  1  0  0  0
 18 23  2  0  0  0
 19 20  1  0  0  0
 19 31  1  0  0  0
 19 42  1  0  0  0
 19 43  1  0  0  0
 20 22  1  0  0  0
 20 32  1  0  0  0
 20 44  1  0  0  0
 21 32  1  0  0  0
 21 45  1  0  0  0
 22 46  1  0  0  0
 22 47  1  0  0  0
 23 48  1  0  0  0
 24 25  3  0  0  0
 25 49  1  0  0  0
 32 50  1  0  0  0
 33 51  1  0  0  0
 52 59  2  0  0  0
 53 54  1  0  0  0
 53 55  1  0  0  0
 53 56  1  0  0  0
 53 60  1  0  0  0
 54 58  1  0  0  0
 54 61  1  0  0  0
 54 62  1  0  0  0
 55 63  1  0  0  0
 55 64  1  0  0  0
 55 65  1  0  0  0
 56 66  1  0  0  0
 56 67  1  0  0  0
 56 68  1  0  0  0
 57 58  1  0  0  0
 57 59  1  0  0  0
 57 69  1  0  0  0
 57 70  1  0  0  0
 58 71  1  0  0  0
 58 72  1  0  0  0
M  CHG  1  53   1
M  END
> <s_m_entry_id>
474

> <s_m_entry_name>
000000474.1

> <s_m_Source_Path>
/Users/zaksoul/Documents/2

> <s_m_Source_File>
000000474.mol2

> <i_m_Source_File_Index>
1

$$$$
No_0_498
                    3D
 Schrodinger Suite 2022-4.
 67 72  0  0  1  0            999 V2000
   -4.9660    3.2450  -22.2730 C   0  0  0  0  0  0
   -5.2220    3.4490  -23.6080 C   0  0  0  0  0  0
   -3.7220    3.0450  -21.9190 C   0  0  0  0  0  0
   -2.8070    3.2620  -24.0680 C   0  0  0  0  0  0
   -2.6550    2.9940  -22.6500 C   0  0  0  0  0  0
   -4.1580    3.4700  -24.6030 C   0  0  0  0  0  0
   -3.3740    3.5760  -26.7890 C   0  0  0  0  0  0
    6.3040    3.2010  -21.3930 C   0  0  0  0  0  0
    6.1940    3.3930  -23.9410 C   0  0  0  0  0  0
   -4.3970    3.6140  -25.9400 C   0  0  0  0  0  0
    2.3880    3.7560  -24.0040 C   0  0  0  0  0  0
    1.5100    4.8160  -23.6940 C   0  0  0  0  0  0
    3.2370    6.0830  -22.9620 C   0  0  0  0  0  0
    3.7730    4.0080  -23.6650 C   0  0  0  0  0  0
    1.9070    2.6280  -24.6970 C   0  0  0  0  0  0
   -0.2590    3.3340  -24.6010 C   0  0  0  0  0  0
    0.1980    4.5650  -23.9690 C   0  0  0  0  0  0
   -1.7060    3.2770  -24.9780 C   0  0  0  0  0  0
    4.4960    1.5370  -23.4170 C   0  0  0  0  0  0
    5.4300    1.2020  -22.2640 C   0  0  2  0  0  0
    6.9530    2.8290  -22.7440 C   0  0  2  0  0  0
    5.3460    2.1750  -21.0770 C   0  0  0  0  0  0
   -2.0180    3.4520  -26.4070 C   0  0  0  0  0  0
   -1.3000    2.6340  -22.0400 C   0  0  0  0  0  0
   -0.2610    2.3260  -21.5260 C   0  0  0  0  0  0
   -0.6980    5.5610  -23.6150 F   0  0  0  0  0  0
   -3.5190    2.7830  -20.5390 F   0  0  0  0  0  0
    1.9220    5.9850  -23.1310 N   0  0  0  0  0  0
    4.1830    5.1700  -23.1880 N   0  0  0  0  0  0
    0.6110    2.4820  -25.0240 N   0  0  0  0  0  0
    4.7440    3.0100  -23.8510 N   0  0  0  0  0  0
    6.8380    1.3480  -22.7240 N   0  0  1  0  0  0
   -3.5280    3.6130  -28.1810 O   0  0  0  0  0  0
   -5.7801    3.2530  -21.5573 H   0  0  0  0  0  0
   -6.2401    3.6016  -23.9474 H   0  0  0  0  0  0
    5.7867    4.1670  -21.4888 H   0  0  0  0  0  0
    7.0774    3.2333  -20.6115 H   0  0  0  0  0  0
    6.6229    2.9883  -24.8695 H   0  0  0  0  0  0
    6.2838    4.4893  -23.9481 H   0  0  0  0  0  0
   -5.4104    3.7566  -26.2975 H   0  0  0  0  0  0
    2.5900    1.8375  -24.9863 H   0  0  0  0  0  0
    3.4524    1.4219  -23.0890 H   0  0  0  0  0  0
    4.7038    0.8660  -24.2635 H   0  0  0  0  0  0
    5.2505    0.1723  -21.9211 H   0  0  0  0  0  0
    8.0081    3.1390  -22.7692 H   0  0  0  0  0  0
    4.3390    2.6159  -21.0376 H   0  0  0  0  0  0
    5.6579    1.6562  -20.1585 H   0  0  0  0  0  0
   -1.2374    3.4862  -27.1584 H   0  0  0  0  0  0
    0.6541    2.0550  -21.0740 H   0  0  0  0  0  0
    7.4989    0.8668  -22.0182 H   0  0  0  0  0  0
   -2.6737    3.5754  -28.5948 H   0  0  0  0  0  0
    3.1430    8.4160  -22.8570 O   0  0  0  0  0  0
    5.3140   10.7620  -22.5460 O   0  0  0  0  0  0
    8.0010    8.7280  -22.9890 N   0  0  0  0  0  0
    4.9110    7.4130  -21.5330 C   0  0  0  0  0  0
    5.4260    8.8260  -21.1950 C   0  0  0  0  0  0
    5.7590    9.6450  -22.4230 C   0  0  0  0  0  0
    6.6310    9.0560  -23.5080 C   0  0  0  0  0  0
    3.7190    7.4240  -22.4620 C   0  0  0  0  0  0
    8.5980    8.3100  -23.7860 H   0  0  0  0  0  0
    8.4718    9.6277  -22.6211 H   0  0  0  0  0  0
    4.6450    6.8891  -20.6031 H   0  0  0  0  0  0
    5.7235    6.8277  -21.9883 H   0  0  0  0  0  0
    6.3179    8.7460  -20.5561 H   0  0  0  0  0  0
    4.6718    9.3561  -20.5949 H   0  0  0  0  0  0
    6.1602    8.1423  -23.8999 H   0  0  0  0  0  0
    6.7160    9.7713  -24.3393 H   0  0  0  0  0  0
  1  2  2  0  0  0
  1  3  1  0  0  0
  1 34  1  0  0  0
  2  6  1  0  0  0
  2 35  1  0  0  0
  3  5  2  0  0  0
  3 27  1  0  0  0
  4  5  1  0  0  0
  4  6  2  0  0  0
  4 18  1  0  0  0
  5 24  1  0  0  0
  6 10  1  0  0  0
  7 10  2  0  0  0
  7 23  1  0  0  0
  7 33  1  0  0  0
  8 21  1  0  0  0
  8 22  1  0  0  0
  8 36  1  0  0  0
  8 37  1  0  0  0
  9 21  1  0  0  0
  9 31  1  0  0  0
  9 38  1  0  0  0
  9 39  1  0  0  0
 10 40  1  0  0  0
 11 12  1  0  0  0
 11 14  2  0  0  0
 11 15  1  0  0  0
 12 17  1  0  0  0
 12 28  2  0  0  0
 13 28  1  0  0  0
 13 29  2  0  0  0
 13 59  1  0  0  0
 14 29  1  0  0  0
 14 31  1  0  0  0
 15 30  2  0  0  0
 15 41  1  0  0  0
 16 17  2  0  0  0
 16 18  1  0  0  0
 16 30  1  0  0  0
 17 26  1  0  0  0
 18 23  2  0  0  0
 19 20  1  0  0  0
 19 31  1  0  0  0
 19 42  1  0  0  0
 19 43  1  0  0  0
 20 22  1  0  0  0
 20 32  1  0  0  0
 20 44  1  0  0  0
 21 32  1  0  0  0
 21 45  1  0  0  0
 22 46  1  0  0  0
 22 47  1  0  0  0
 23 48  1  0  0  0
 24 25  3  0  0  0
 25 49  1  0  0  0
 32 50  1  0  0  0
 33 51  1  0  0  0
 52 59  2  0  0  0
 53 57  2  0  0  0
 54 58  1  0  0  0
 54 60  1  0  0  0
 54 61  1  0  0  0
 55 56  1  0  0  0
 55 59  1  0  0  0
 55 62  1  0  0  0
 55 63  1  0  0  0
 56 57  1  0  0  0
 56 64  1  0  0  0
 56 65  1  0  0  0
 57 58  1  0  0  0
 58 66  1  0  0  0
 58 67  1  0  0  0
M  END
> <s_m_entry_id>
475

> <s_m_entry_name>
000000475.1

> <s_m_Source_Path>
/Users/zaksoul/Documents/2

> <s_m_Source_File>
000000475.mol2

> <i_m_Source_File_Index>
1

$$$$
No_0_499
                    3D
 Schrodinger Suite 2022-4.
 68 73  0  0  1  0            999 V2000
   -5.0220    3.4180  -22.1910 C   0  0  0  0  0  0
   -5.2630    3.6110  -23.5300 C   0  0  0  0  0  0
   -3.7850    3.2020  -21.8230 C   0  0  0  0  0  0
   -2.8480    3.3770  -23.9650 C   0  0  0  0  0  0
   -2.7120    3.1240  -22.5440 C   0  0  0  0  0  0
   -4.1900    3.6010  -24.5160 C   0  0  0  0  0  0
   -3.3850    3.6680  -26.6950 C   0  0  0  0  0  0
    6.2370    3.1970  -21.2070 C   0  0  0  0  0  0
    6.1530    3.3580  -23.7580 C   0  0  0  0  0  0
   -4.4140    3.7330  -25.8560 C   0  0  0  0  0  0
    2.3540    3.7850  -23.8600 C   0  0  0  0  0  0
    1.4910    4.8630  -23.5710 C   0  0  0  0  0  0
    3.2330    6.1100  -22.8380 C   0  0  0  0  0  0
    3.7400    4.0170  -23.5120 C   0  0  0  0  0  0
    1.8600    2.6570  -24.5440 C   0  0  0  0  0  0
   -0.2940    3.4000  -24.4770 C   0  0  0  0  0  0
    0.1790    4.6310  -23.8550 C   0  0  0  0  0  0
   -1.7380    3.3630  -24.8650 C   0  0  0  0  0  0
    4.4190    1.5380  -23.2280 C   0  0  0  0  0  0
    5.3370    1.2010  -22.0620 C   0  0  2  0  0  0
    6.8910    2.7970  -22.5480 C   0  0  2  0  0  0
    5.2590    2.1900  -20.8870 C   0  0  0  0  0  0
   -2.0350    3.5260  -26.2990 C   0  0  0  0  0  0
   -1.3700    2.7490  -21.9170 C   0  0  0  0  0  0
   -0.3400    2.4300  -21.3900 C   0  0  0  0  0  0
   -0.7050    5.6460  -23.5210 F   0  0  0  0  0  0
   -3.5990    2.9530  -20.4380 F   0  0  0  0  0  0
    1.9180    6.0320  -23.0180 N   0  0  0  0  0  0
    4.1650    5.1790  -23.0450 N   0  0  0  0  0  0
    0.5650    2.5280  -24.8810 N   0  0  0  0  0  0
    4.6960    3.0010  -23.6770 N   0  0  0  0  0  0
    6.7510    1.3180  -22.5110 N   0  0  1  0  0  0
   -3.5260    3.6900  -28.0890 O   0  0  0  0  0  0
   -5.8423    3.4491  -21.4830 H   0  0  0  0  0  0
   -6.2751    3.7765  -23.8811 H   0  0  0  0  0  0
    5.7372    4.1704  -21.3191 H   0  0  0  0  0  0
    7.0044    3.2253  -20.4194 H   0  0  0  0  0  0
    6.5840    2.9351  -24.6775 H   0  0  0  0  0  0
    6.2619    4.4524  -23.7782 H   0  0  0  0  0  0
   -5.4216    3.8886  -26.2243 H   0  0  0  0  0  0
    2.5324    1.8521  -24.8180 H   0  0  0  0  0  0
    3.3710    1.4442  -22.9072 H   0  0  0  0  0  0
    4.6228    0.8531  -24.0643 H   0  0  0  0  0  0
    5.1372    0.1786  -21.7088 H   0  0  0  0  0  0
    7.9515    3.0886  -22.5672 H   0  0  0  0  0  0
    4.2597    2.6493  -20.8628 H   0  0  0  0  0  0
    5.5538    1.6781  -19.9591 H   0  0  0  0  0  0
   -1.2473    3.5380  -27.0436 H   0  0  0  0  0  0
    0.5660    2.1490  -20.9260 H   0  0  0  0  0  0
    7.3978    0.8348  -21.7937 H   0  0  0  0  0  0
   -2.6689    3.6326  -28.4948 H   0  0  0  0  0  0
    3.1330    8.4320  -22.7270 O   0  0  0  0  0  0
    6.4360    9.3510  -21.7160 N   0  3  0  0  0  0
    5.0610   10.6240  -23.2010 N   0  0  0  0  0  0
    7.3640   10.5400  -23.4850 N   0  0  0  0  0  0
    5.3430    8.8330  -20.8970 C   0  0  0  0  0  0
    6.2670   10.1660  -22.7890 C   0  0  0  0  0  0
    4.9150    7.4410  -21.4070 C   0  0  0  0  0  0
    3.7330    7.4490  -22.3500 C   0  0  0  0  0  0
    7.3829    9.0600  -21.4340 H   0  0  0  0  0  0
    4.9980   11.2400  -24.0241 H   0  0  0  0  0  0
    4.2069   10.3570  -22.6910 H   0  0  0  0  0  0
    7.2680   11.1571  -24.3041 H   0  0  0  0  0  0
    8.2952   10.2079  -23.1959 H   0  0  0  0  0  0
    4.4871    9.5219  -20.9510 H   0  0  0  0  0  0
    5.6740    8.7550  -19.8509 H   0  0  0  0  0  0
    4.6920    6.7910  -20.5480 H   0  0  0  0  0  0
    5.7706    6.9552  -21.8988 H   0  0  0  0  0  0
  1  2  2  0  0  0
  1  3  1  0  0  0
  1 34  1  0  0  0
  2  6  1  0  0  0
  2 35  1  0  0  0
  3  5  2  0  0  0
  3 27  1  0  0  0
  4  5  1  0  0  0
  4  6  2  0  0  0
  4 18  1  0  0  0
  5 24  1  0  0  0
  6 10  1  0  0  0
  7 10  2  0  0  0
  7 23  1  0  0  0
  7 33  1  0  0  0
  8 21  1  0  0  0
  8 22  1  0  0  0
  8 36  1  0  0  0
  8 37  1  0  0  0
  9 21  1  0  0  0
  9 31  1  0  0  0
  9 38  1  0  0  0
  9 39  1  0  0  0
 10 40  1  0  0  0
 11 12  1  0  0  0
 11 14  2  0  0  0
 11 15  1  0  0  0
 12 17  1  0  0  0
 12 28  2  0  0  0
 13 28  1  0  0  0
 13 29  2  0  0  0
 13 59  1  0  0  0
 14 29  1  0  0  0
 14 31  1  0  0  0
 15 30  2  0  0  0
 15 41  1  0  0  0
 16 17  2  0  0  0
 16 18  1  0  0  0
 16 30  1  0  0  0
 17 26  1  0  0  0
 18 23  2  0  0  0
 19 20  1  0  0  0
 19 31  1  0  0  0
 19 42  1  0  0  0
 19 43  1  0  0  0
 20 22  1  0  0  0
 20 32  1  0  0  0
 20 44  1  0  0  0
 21 32  1  0  0  0
 21 45  1  0  0  0
 22 46  1  0  0  0
 22 47  1  0  0  0
 23 48  1  0  0  0
 24 25  3  0  0  0
 25 49  1  0  0  0
 32 50  1  0  0  0
 33 51  1  0  0  0
 52 59  2  0  0  0
 53 56  1  0  0  0
 53 57  2  0  0  0
 53 60  1  0  0  0
 54 57  1  0  0  0
 54 61  1  0  0  0
 54 62  1  0  0  0
 55 57  1  0  0  0
 55 63  1  0  0  0
 55 64  1  0  0  0
 56 58  1  0  0  0
 56 65  1  0  0  0
 56 66  1  0  0  0
 58 59  1  0  0  0
 58 67  1  0  0  0
 58 68  1  0  0  0
M  CHG  1  53   1
M  END
> <s_m_entry_id>
476

> <s_m_entry_name>
000000476.1

> <s_m_Source_Path>
/Users/zaksoul/Documents/2

> <s_m_Source_File>
000000476.mol2

> <i_m_Source_File_Index>
1

$$$$
No_0_500
                    3D
 Schrodinger Suite 2022-4.
 68 73  0  0  1  0            999 V2000
   -4.9690    3.6430  -22.1600 C   0  0  0  0  0  0
   -5.2390    3.8000  -23.4990 C   0  0  0  0  0  0
   -3.7260    3.4220  -21.8150 C   0  0  0  0  0  0
   -2.8380    3.5230  -23.9830 C   0  0  0  0  0  0
   -2.6720    3.3100  -22.5580 C   0  0  0  0  0  0
   -4.1910    3.7480  -24.5090 C   0  0  0  0  0  0
   -3.4370    3.7420  -26.7070 C   0  0  0  0  0  0
    6.3070    3.3080  -21.4340 C   0  0  0  0  0  0
    6.1650    3.3970  -23.9860 C   0  0  0  0  0  0
   -4.4450    3.8450  -25.8460 C   0  0  0  0  0  0
    2.3700    3.8680  -24.0120 C   0  0  0  0  0  0
    1.5260    4.9660  -23.7340 C   0  0  0  0  0  0
    3.3000    6.2100  -23.0790 C   0  0  0  0  0  0
    3.7660    4.0930  -23.7030 C   0  0  0  0  0  0
    1.8460    2.7280  -24.6510 C   0  0  0  0  0  0
   -0.2980    3.5000  -24.5550 C   0  0  0  0  0  0
    0.2050    4.7420  -23.9800 C   0  0  0  0  0  0
   -1.7500    3.4700  -24.9080 C   0  0  0  0  0  0
    4.4220    1.6140  -23.3630 C   0  0  0  0  0  0
    5.3630    1.3000  -22.2100 C   0  0  2  0  0  0
    6.9240    2.8620  -22.7780 C   0  0  2  0  0  0
    5.3250    2.3230  -21.0630 C   0  0  0  0  0  0
   -2.0790    3.5950  -26.3390 C   0  0  0  0  0  0
   -1.3190    2.9360  -21.9530 C   0  0  0  0  0  0
   -0.2820    2.6190  -21.4410 C   0  0  0  0  0  0
   -0.6580    5.7770  -23.6560 F   0  0  0  0  0  0
   -3.5100    3.2110  -20.4290 F   0  0  0  0  0  0
    1.9800    6.1440  -23.2250 N   0  0  0  0  0  0
    4.2160    5.2620  -23.2810 N   0  0  0  0  0  0
    0.5410    2.6060  -24.9530 N   0  0  0  0  0  0
    4.7050    3.0610  -23.8600 N   0  0  0  0  0  0
    6.7680    1.3860  -22.6950 N   0  0  1  0  0  0
   -3.6100    3.7260  -28.0970 O   0  0  0  0  0  0
   -5.7719    3.7042  -21.4343 H   0  0  0  0  0  0
   -6.2573    3.9686  -23.8301 H   0  0  0  0  0  0
    5.8156    4.2836  -21.5631 H   0  0  0  0  0  0
    7.0928    3.3484  -20.6653 H   0  0  0  0  0  0
    6.5677    2.9428  -24.9034 H   0  0  0  0  0  0
    6.2851    4.4891  -24.0405 H   0  0  0  0  0  0
   -5.4590    4.0026  -26.1954 H   0  0  0  0  0  0
    2.5011    1.9063  -24.9169 H   0  0  0  0  0  0
    3.3806    1.5434  -23.0159 H   0  0  0  0  0  0
    4.5977    0.9032  -24.1839 H   0  0  0  0  0  0
    5.1592    0.2912  -21.8216 H   0  0  0  0  0  0
    7.9871    3.1396  -22.8305 H   0  0  0  0  0  0
    4.3321    2.7952  -21.0277 H   0  0  0  0  0  0
    5.6357    1.8338  -20.1280 H   0  0  0  0  0  0
   -1.3091    3.5749  -27.1019 H   0  0  0  0  0  0
    0.6314    2.3402  -20.9903 H   0  0  0  0  0  0
    7.4254    0.9156  -21.9788 H   0  0  0  0  0  0
   -2.7638    3.6468  -28.5216 H   0  0  0  0  0  0
    3.0930    8.5100  -22.7880 O   0  0  0  0  0  0
    6.4850    9.6200  -22.5770 N   0  3  0  0  0  0
    4.7030   10.8620  -23.5800 N   0  0  0  0  0  0
    6.8580   10.9650  -24.4380 N   0  0  0  0  0  0
    5.6690    8.9820  -21.5480 C   0  0  0  0  0  0
    5.9990   10.4740  -23.5160 C   0  0  0  0  0  0
    5.2100    7.5890  -22.0280 C   0  0  0  0  0  0
    3.8280    7.5560  -22.6420 C   0  0  0  0  0  0
    7.4882    9.3870  -22.5630 H   0  0  0  0  0  0
    4.3959   11.5123  -24.3173 H   0  0  0  0  0  0
    4.0251   10.5060  -22.8911 H   0  0  0  0  0  0
    6.5200   11.6139  -25.1629 H   0  0  0  0  0  0
    7.8501   10.6890  -24.4160 H   0  0  0  0  0  0
    4.7877    9.6062  -21.3389 H   0  0  0  0  0  0
    6.2598    8.8750  -20.6263 H   0  0  0  0  0  0
    5.2510    6.8811  -21.1871 H   0  0  0  0  0  0
    5.9379    7.1940  -22.7519 H   0  0  0  0  0  0
  1  2  2  0  0  0
  1  3  1  0  0  0
  1 34  1  0  0  0
  2  6  1  0  0  0
  2 35  1  0  0  0
  3  5  2  0  0  0
  3 27  1  0  0  0
  4  5  1  0  0  0
  4  6  2  0  0  0
  4 18  1  0  0  0
  5 24  1  0  0  0
  6 10  1  0  0  0
  7 10  2  0  0  0
  7 23  1  0  0  0
  7 33  1  0  0  0
  8 21  1  0  0  0
  8 22  1  0  0  0
  8 36  1  0  0  0
  8 37  1  0  0  0
  9 21  1  0  0  0
  9 31  1  0  0  0
  9 38  1  0  0  0
  9 39  1  0  0  0
 10 40  1  0  0  0
 11 12  1  0  0  0
 11 14  2  0  0  0
 11 15  1  0  0  0
 12 17  1  0  0  0
 12 28  2  0  0  0
 13 28  1  0  0  0
 13 29  2  0  0  0
 13 59  1  0  0  0
 14 29  1  0  0  0
 14 31  1  0  0  0
 15 30  2  0  0  0
 15 41  1  0  0  0
 16 17  2  0  0  0
 16 18  1  0  0  0
 16 30  1  0  0  0
 17 26  1  0  0  0
 18 23  2  0  0  0
 19 20  1  0  0  0
 19 31  1  0  0  0
 19 42  1  0  0  0
 19 43  1  0  0  0
 20 22  1  0  0  0
 20 32  1  0  0  0
 20 44  1  0  0  0
 21 32  1  0  0  0
 21 45  1  0  0  0
 22 46  1  0  0  0
 22 47  1  0  0  0
 23 48  1  0  0  0
 24 25  3  0  0  0
 25 49  1  0  0  0
 32 50  1  0  0  0
 33 51  1  0  0  0
 52 59  2  0  0  0
 53 56  1  0  0  0
 53 57  2  0  0  0
 53 60  1  0  0  0
 54 57  1  0  0  0
 54 61  1  0  0  0
 54 62  1  0  0  0
 55 57  1  0  0  0
 55 63  1  0  0  0
 55 64  1  0  0  0
 56 58  1  0  0  0
 56 65  1  0  0  0
 56 66  1  0  0  0
 58 59  1  0  0  0
 58 67  1  0  0  0
 58 68  1  0  0  0
M  CHG  1  53   1
M  END
> <s_m_entry_id>
477

> <s_m_entry_name>
000000477.1

> <s_m_Source_Path>
/Users/zaksoul/Documents/2

> <s_m_Source_File>
000000477.mol2

> <i_m_Source_File_Index>
1

$$$$
No_0_501
                    3D
 Schrodinger Suite 2022-4.
 71 77  0  0  1  0            999 V2000
   -5.0810    3.9340  -22.2160 C   0  0  0  0  0  0
   -5.3240    4.1280  -23.5560 C   0  0  0  0  0  0
   -3.8510    3.6690  -21.8560 C   0  0  0  0  0  0
   -2.9230    3.7940  -24.0060 C   0  0  0  0  0  0
   -2.7880    3.5440  -22.5830 C   0  0  0  0  0  0
   -4.2590    4.0690  -24.5480 C   0  0  0  0  0  0
   -3.4670    4.0910  -26.7340 C   0  0  0  0  0  0
    6.1660    3.2620  -21.3080 C   0  0  0  0  0  0
    6.0710    3.4120  -23.8590 C   0  0  0  0  0  0
   -4.4870    4.2020  -25.8880 C   0  0  0  0  0  0
    2.2920    3.9910  -23.9380 C   0  0  0  0  0  0
    1.4750    5.1060  -23.6500 C   0  0  0  0  0  0
    3.2720    6.2850  -22.9370 C   0  0  0  0  0  0
    3.6890    4.1700  -23.6010 C   0  0  0  0  0  0
    1.7480    2.8810  -24.6120 C   0  0  0  0  0  0
   -0.3740    3.7110  -24.5350 C   0  0  0  0  0  0
    0.1520    4.9260  -23.9230 C   0  0  0  0  0  0
   -1.8210    3.7300  -24.9130 C   0  0  0  0  0  0
    4.2690    1.6660  -23.3060 C   0  0  0  0  0  0
    5.1800    1.3000  -22.1450 C   0  0  2  0  0  0
    6.7940    2.8290  -22.6510 C   0  0  2  0  0  0
    5.1510    2.2980  -20.9760 C   0  0  0  0  0  0
   -2.1210    3.8960  -26.3460 C   0  0  0  0  0  0
   -1.4570    3.1180  -21.9640 C   0  0  0  0  0  0
   -0.4380    2.7610  -21.4420 C   0  0  0  0  0  0
   -0.6870    5.9770  -23.5900 F   0  0  0  0  0  0
   -3.6660    3.4210  -20.4710 F   0  0  0  0  0  0
    1.9530    6.2590  -23.1070 N   0  0  0  0  0  0
    4.1640    5.3160  -23.1440 N   0  0  0  0  0  0
    0.4460    2.8030  -24.9390 N   0  0  0  0  0  0
    4.6010    3.1150  -23.7660 N   0  0  0  0  0  0
    6.5950    1.3560  -22.6040 N   0  0  1  0  0  0
   -3.6170    4.1110  -28.1260 O   0  0  0  0  0  0
   -5.8950    4.0013  -21.5033 H   0  0  0  0  0  0
   -6.3312    4.3329  -23.9004 H   0  0  0  0  0  0
    5.7048    4.2540  -21.4230 H   0  0  0  0  0  0
    6.9393    3.2640  -20.5257 H   0  0  0  0  0  0
    6.4776    2.9671  -24.7792 H   0  0  0  0  0  0
    6.2234    4.5010  -23.8873 H   0  0  0  0  0  0
   -5.4899    4.3968  -26.2504 H   0  0  0  0  0  0
    2.3843    2.0470  -24.8850 H   0  0  0  0  0  0
    3.2201    1.6176  -22.9782 H   0  0  0  0  0  0
    4.4385    0.9697  -24.1405 H   0  0  0  0  0  0
    4.9418    0.2887  -21.7837 H   0  0  0  0  0  0
    7.8653    3.0771  -22.6792 H   0  0  0  0  0  0
    4.1709    2.7966  -20.9477 H   0  0  0  0  0  0
    5.4316    1.7792  -20.0475 H   0  0  0  0  0  0
   -1.3388    3.8719  -27.0961 H   0  0  0  0  0  0
    0.4589    2.4460  -20.9821 H   0  0  0  0  0  0
    7.2271    0.8512  -21.8885 H   0  0  0  0  0  0
   -2.7660    4.0170  -28.5376 H   0  0  0  0  0  0
    6.4690    9.3720  -22.4570 O   0  0  0  0  0  0
    3.2720    8.6160  -22.8340 O   0  0  0  0  0  0
    6.8440   12.2380  -23.6220 N   0  3  0  0  0  0
    6.6990   10.9420  -24.3520 C   0  0  0  0  0  0
    6.0970   11.8350  -22.3920 C   0  0  0  0  0  0
    5.8680   10.4940  -23.1290 C   0  0  0  0  0  0
    5.0670    7.5540  -21.5910 C   0  0  0  0  0  0
    5.7070    8.9280  -21.3170 C   0  0  0  0  0  0
    3.8290    7.6050  -22.4600 C   0  0  0  0  0  0
    6.3122   12.9438  -24.1069 H   0  0  0  0  0  0
    7.8146   12.3679  -23.3831 H   0  0  0  0  0  0
    7.6691   10.4280  -24.2830 H   0  0  0  0  0  0
    5.9881   11.1170  -25.1729 H   0  0  0  0  0  0
    5.1389   12.3751  -22.4110 H   0  0  0  0  0  0
    6.8490   11.6450  -21.6120 H   0  0  0  0  0  0
    4.8100   10.3220  -23.3760 H   0  0  0  0  0  0
    4.8219    7.0688  -20.6347 H   0  0  0  0  0  0
    5.8119    6.8921  -22.0569 H   0  0  0  0  0  0
    4.9176    9.6615  -21.0962 H   0  0  0  0  0  0
    6.3670    8.8560  -20.4400 H   0  0  0  0  0  0
  1  2  2  0  0  0
  1  3  1  0  0  0
  1 34  1  0  0  0
  2  6  1  0  0  0
  2 35  1  0  0  0
  3  5  2  0  0  0
  3 27  1  0  0  0
  4  5  1  0  0  0
  4  6  2  0  0  0
  4 18  1  0  0  0
  5 24  1  0  0  0
  6 10  1  0  0  0
  7 10  2  0  0  0
  7 23  1  0  0  0
  7 33  1  0  0  0
  8 21  1  0  0  0
  8 22  1  0  0  0
  8 36  1  0  0  0
  8 37  1  0  0  0
  9 21  1  0  0  0
  9 31  1  0  0  0
  9 38  1  0  0  0
  9 39  1  0  0  0
 10 40  1  0  0  0
 11 12  1  0  0  0
 11 14  2  0  0  0
 11 15  1  0  0  0
 12 17  1  0  0  0
 12 28  2  0  0  0
 13 28  1  0  0  0
 13 29  2  0  0  0
 13 60  1  0  0  0
 14 29  1  0  0  0
 14 31  1  0  0  0
 15 30  2  0  0  0
 15 41  1  0  0  0
 16 17  2  0  0  0
 16 18  1  0  0  0
 16 30  1  0  0  0
 17 26  1  0  0  0
 18 23  2  0  0  0
 19 20  1  0  0  0
 19 31  1  0  0  0
 19 42  1  0  0  0
 19 43  1  0  0  0
 20 22  1  0  0  0
 20 32  1  0  0  0
 20 44  1  0  0  0
 21 32  1  0  0  0
 21 45  1  0  0  0
 22 46  1  0  0  0
 22 47  1  0  0  0
 23 48  1  0  0  0
 24 25  3  0  0  0
 25 49  1  0  0  0
 32 50  1  0  0  0
 33 51  1  0  0  0
 52 57  1  0  0  0
 52 59  1  0  0  0
 53 60  2  0  0  0
 54 55  1  0  0  0
 54 56  1  0  0  0
 54 61  1  0  0  0
 54 62  1  0  0  0
 55 57  1  0  0  0
 55 63  1  0  0  0
 55 64  1  0  0  0
 56 57  1  0  0  0
 56 65  1  0  0  0
 56 66  1  0  0  0
 57 67  1  0  0  0
 58 59  1  0  0  0
 58 60  1  0  0  0
 58 68  1  0  0  0
 58 69  1  0  0  0
 59 70  1  0  0  0
 59 71  1  0  0  0
M  CHG  1  54   1
M  END
> <s_m_entry_id>
478

> <s_m_entry_name>
000000478.1

> <s_m_Source_Path>
/Users/zaksoul/Documents/2

> <s_m_Source_File>
000000478.mol2

> <i_m_Source_File_Index>
1

$$$$
No_0_502
                    3D
 Schrodinger Suite 2022-4.
 73 79  0  0  1  0            999 V2000
   -5.1780    3.5110  -22.3370 C   0  0  0  0  0  0
   -5.3830    3.6940  -23.6840 C   0  0  0  0  0  0
   -3.9560    3.2630  -21.9390 C   0  0  0  0  0  0
   -2.9670    3.3840  -24.0620 C   0  0  0  0  0  0
   -2.8700    3.1450  -22.6350 C   0  0  0  0  0  0
   -4.2900    3.6400  -24.6450 C   0  0  0  0  0  0
   -3.4350    3.6560  -26.8060 C   0  0  0  0  0  0
    6.0450    2.9700  -21.0990 C   0  0  0  0  0  0
    6.0230    3.1030  -23.6530 C   0  0  0  0  0  0
   -4.4800    3.7620  -25.9910 C   0  0  0  0  0  0
    2.2420    3.6390  -23.8450 C   0  0  0  0  0  0
    1.4050    4.7470  -23.5880 C   0  0  0  0  0  0
    3.1670    5.9500  -22.8320 C   0  0  0  0  0  0
    3.6260    3.8360  -23.4690 C   0  0  0  0  0  0
    1.7290    2.5180  -24.5260 C   0  0  0  0  0  0
   -0.4030    3.3260  -24.5160 C   0  0  0  0  0  0
    0.0920    4.5500  -23.8990 C   0  0  0  0  0  0
   -1.8390    3.3260  -24.9370 C   0  0  0  0  0  0
    4.2240    1.3410  -23.1400 C   0  0  0  0  0  0
    5.1060    0.9920  -21.9510 C   0  0  2  0  0  0
    6.7170    2.5350  -22.4200 C   0  0  2  0  0  0
    5.0320    1.9980  -20.7900 C   0  0  0  0  0  0
   -2.0990    3.4790  -26.3790 C   0  0  0  0  0  0
   -1.5540    2.7380  -21.9740 C   0  0  0  0  0  0
   -0.5460    2.3950  -21.4200 C   0  0  0  0  0  0
   -0.7670    5.5940  -23.5970 F   0  0  0  0  0  0
   -3.8080    3.0260  -20.5470 F   0  0  0  0  0  0
    1.8540    5.9090  -23.0400 N   0  0  0  0  0  0
    4.0750    4.9890  -23.0070 N   0  0  0  0  0  0
    0.4380    2.4240  -24.8910 N   0  0  0  0  0  0
    4.5540    2.7900  -23.6000 N   0  0  0  0  0  0
    6.5330    1.0610  -22.3690 N   0  0  1  0  0  0
   -3.5440    3.6650  -28.2030 O   0  0  0  0  0  0
   -6.0120    3.5742  -21.6475 H   0  0  0  0  0  0
   -6.3822    3.8848  -24.0586 H   0  0  0  0  0  0
    5.5779    3.9567  -21.2342 H   0  0  0  0  0  0
    6.7955    2.9861  -20.2950 H   0  0  0  0  0  0
    6.4608    2.6561  -24.5578 H   0  0  0  0  0  0
    6.1644    4.1935  -23.6833 H   0  0  0  0  0  0
   -5.4741    3.9427  -26.3836 H   0  0  0  0  0  0
    2.3824    1.6900  -24.7759 H   0  0  0  0  0  0
    3.1667    1.2824  -22.8421 H   0  0  0  0  0  0
    4.4258    0.6399  -23.9632 H   0  0  0  0  0  0
    4.8679   -0.0190  -21.5888 H   0  0  0  0  0  0
    7.7857    2.7954  -22.4190 H   0  0  0  0  0  0
    4.0459    2.4855  -20.7930 H   0  0  0  0  0  0
    5.2902    1.4886  -19.8499 H   0  0  0  0  0  0
   -1.2950    3.4589  -27.1058 H   0  0  0  0  0  0
    0.3408    2.0941  -20.9321 H   0  0  0  0  0  0
    7.1488    0.5681  -21.6313 H   0  0  0  0  0  0
   -2.6804    3.5779  -28.5892 H   0  0  0  0  0  0
    3.1380    8.2820  -22.7450 O   0  0  0  0  0  0
    6.1150    9.3550  -21.8590 N   0  3  0  0  0  0
    8.2550    8.3620  -21.3570 N   0  0  0  0  0  0
    6.7280   11.0820  -23.2580 C   0  0  0  0  0  0
    7.9270   10.1310  -23.0730 C   0  0  0  0  0  0
    4.8710    7.2550  -21.3930 C   0  0  0  0  0  0
    5.4950   10.3060  -22.7600 C   0  0  0  0  0  0
    7.4310    9.1900  -22.0060 C   0  0  0  0  0  0
    5.2990    8.6440  -20.8840 C   0  0  0  0  0  0
    3.6950    7.2800  -22.3480 C   0  0  0  0  0  0
    9.2589    8.3510  -21.5870 H   0  0  0  0  0  0
    7.8866    7.7354  -20.6273 H   0  0  0  0  0  0
    6.6070   11.3129  -24.3267 H   0  0  0  0  0  0
    6.8731   11.9774  -22.6357 H   0  0  0  0  0  0
    8.7839   10.6999  -22.6831 H   0  0  0  0  0  0
    8.0910    9.5689  -24.0042 H   0  0  0  0  0  0
    4.6300    6.6101  -20.5351 H   0  0  0  0  0  0
    5.7270    6.7660  -21.8810 H   0  0  0  0  0  0
    4.8529   10.9851  -22.1799 H   0  0  0  0  0  0
    5.0458    9.7627  -23.6044 H   0  0  0  0  0  0
    4.4042    9.2399  -20.6511 H   0  0  0  0  0  0
    5.8641    8.5320  -19.9469 H   0  0  0  0  0  0
  1  2  2  0  0  0
  1  3  1  0  0  0
  1 34  1  0  0  0
  2  6  1  0  0  0
  2 35  1  0  0  0
  3  5  2  0  0  0
  3 27  1  0  0  0
  4  5  1  0  0  0
  4  6  2  0  0  0
  4 18  1  0  0  0
  5 24  1  0  0  0
  6 10  1  0  0  0
  7 10  2  0  0  0
  7 23  1  0  0  0
  7 33  1  0  0  0
  8 21  1  0  0  0
  8 22  1  0  0  0
  8 36  1  0  0  0
  8 37  1  0  0  0
  9 21  1  0  0  0
  9 31  1  0  0  0
  9 38  1  0  0  0
  9 39  1  0  0  0
 10 40  1  0  0  0
 11 12  1  0  0  0
 11 14  2  0  0  0
 11 15  1  0  0  0
 12 17  1  0  0  0
 12 28  2  0  0  0
 13 28  1  0  0  0
 13 29  2  0  0  0
 13 61  1  0  0  0
 14 29  1  0  0  0
 14 31  1  0  0  0
 15 30  2  0  0  0
 15 41  1  0  0  0
 16 17  2  0  0  0
 16 18  1  0  0  0
 16 30  1  0  0  0
 17 26  1  0  0  0
 18 23  2  0  0  0
 19 20  1  0  0  0
 19 31  1  0  0  0
 19 42  1  0  0  0
 19 43  1  0  0  0
 20 22  1  0  0  0
 20 32  1  0  0  0
 20 44  1  0  0  0
 21 32  1  0  0  0
 21 45  1  0  0  0
 22 46  1  0  0  0
 22 47  1  0  0  0
 23 48  1  0  0  0
 24 25  3  0  0  0
 25 49  1  0  0  0
 32 50  1  0  0  0
 33 51  1  0  0  0
 52 61  2  0  0  0
 53 58  1  0  0  0
 53 59  2  0  0  0
 53 60  1  0  0  0
 54 59  1  0  0  0
 54 62  1  0  0  0
 54 63  1  0  0  0
 55 56  1  0  0  0
 55 58  1  0  0  0
 55 64  1  0  0  0
 55 65  1  0  0  0
 56 59  1  0  0  0
 56 66  1  0  0  0
 56 67  1  0  0  0
 57 60  1  0  0  0
 57 61  1  0  0  0
 57 68  1  0  0  0
 57 69  1  0  0  0
 58 70  1  0  0  0
 58 71  1  0  0  0
 60 72  1  0  0  0
 60 73  1  0  0  0
M  CHG  1  53   1
M  END
> <s_m_entry_id>
479

> <s_m_entry_name>
000000479.1

> <s_m_Source_Path>
/Users/zaksoul/Documents/2

> <s_m_Source_File>
000000479.mol2

> <i_m_Source_File_Index>
1

$$$$
No_0_503
                    3D
 Schrodinger Suite 2022-4.
 67 72  0  0  1  0            999 V2000
   -5.2370    3.4120  -22.2710 C   0  0  0  0  0  0
   -5.4710    3.5550  -23.6190 C   0  0  0  0  0  0
   -4.0070    3.1750  -21.8920 C   0  0  0  0  0  0
   -3.0630    3.2320  -24.0370 C   0  0  0  0  0  0
   -2.9370    3.0360  -22.6060 C   0  0  0  0  0  0
   -4.3980    3.4720  -24.6000 C   0  0  0  0  0  0
   -3.5880    3.4240  -26.7790 C   0  0  0  0  0  0
    6.0090    2.9010  -21.2520 C   0  0  0  0  0  0
    5.9340    2.9580  -23.8070 C   0  0  0  0  0  0
   -4.6160    3.5540  -25.9450 C   0  0  0  0  0  0
    2.1490    3.4910  -23.9370 C   0  0  0  0  0  0
    1.3180    4.6060  -23.6950 C   0  0  0  0  0  0
    3.0950    5.8300  -23.0110 C   0  0  0  0  0  0
    3.5400    3.6970  -23.5950 C   0  0  0  0  0  0
    1.6220    2.3510  -24.5740 C   0  0  0  0  0  0
   -0.5090    3.1590  -24.5430 C   0  0  0  0  0  0
   -0.0010    4.4010  -23.9720 C   0  0  0  0  0  0
   -1.9530    3.1480  -24.9330 C   0  0  0  0  0  0
    4.1460    1.2130  -23.2050 C   0  0  0  0  0  0
    5.0520    0.8990  -22.0250 C   0  0  2  0  0  0
    6.6530    2.4270  -22.5730 C   0  0  2  0  0  0
    5.0020    1.9380  -20.8920 C   0  0  0  0  0  0
   -2.2430    3.2590  -26.3730 C   0  0  0  0  0  0
   -1.6070    2.6480  -21.9610 C   0  0  0  0  0  0
   -0.5880    2.3210  -21.4180 C   0  0  0  0  0  0
   -0.8540    5.4540  -23.6840 F   0  0  0  0  0  0
   -3.8310    2.9790  -20.4970 F   0  0  0  0  0  0
    1.7780    5.7840  -23.1910 N   0  0  0  0  0  0
    3.9990    4.8640  -23.1770 N   0  0  0  0  0  0
    0.3240    2.2460  -24.9080 N   0  0  0  0  0  0
    4.4660    2.6480  -23.7150 N   0  0  0  0  0  0
    6.4700    0.9550  -22.4740 N   0  0  1  0  0  0
   -3.7260    3.3910  -28.1720 O   0  0  0  0  0  0
   -6.0572    3.4963  -21.5673 H   0  0  0  0  0  0
   -6.4778    3.7347  -23.9784 H   0  0  0  0  0  0
    5.5386    3.8833  -21.4065 H   0  0  0  0  0  0
    6.7757    2.9403  -20.4642 H   0  0  0  0  0  0
    6.3520    2.4845  -24.7076 H   0  0  0  0  0  0
    6.0743    4.0470  -23.8726 H   0  0  0  0  0  0
   -5.6179    3.7237  -26.3225 H   0  0  0  0  0  0
    2.2701    1.5153  -24.8118 H   0  0  0  0  0  0
    3.0949    1.1646  -22.8842 H   0  0  0  0  0  0
    4.3306    0.4887  -24.0120 H   0  0  0  0  0  0
    4.8210   -0.1007  -21.6285 H   0  0  0  0  0  0
    7.7216    2.6863  -22.6013 H   0  0  0  0  0  0
    4.0163    2.4263  -20.8900 H   0  0  0  0  0  0
    5.2806    1.4565  -19.9431 H   0  0  0  0  0  0
   -1.4548    3.2168  -27.1160 H   0  0  0  0  0  0
    0.3090    2.0330  -20.9410 H   0  0  0  0  0  0
    7.1009    0.4834  -21.7351 H   0  0  0  0  0  0
   -2.8705    3.2920  -28.5730 H   0  0  0  0  0  0
    3.1170    8.1750  -23.0260 O   0  0  0  0  0  0
    5.3230    8.5360  -21.5300 O   0  0  0  0  0  0
    7.9210    7.7120  -22.8390 N   0  3  0  0  0  0
    6.6100    8.5910  -20.8870 C   0  0  0  0  0  0
    4.8300    7.1910  -21.6600 C   0  0  0  0  0  0
    7.7350    8.8690  -21.9010 C   0  0  0  0  0  0
    3.6330    7.1730  -22.5780 C   0  0  0  0  0  0
    8.6621    7.9220  -23.4891 H   0  0  0  0  0  0
    8.1610    6.8870  -22.3120 H   0  0  0  0  0  0
    7.0654    7.5489  -23.3464 H   0  0  0  0  0  0
    6.8051    7.6367  -20.3758 H   0  0  0  0  0  0
    6.6030    9.3812  -20.1218 H   0  0  0  0  0  0
    4.5380    6.8110  -20.6699 H   0  0  0  0  0  0
    5.6211    6.5499  -22.0761 H   0  0  0  0  0  0
    7.4919    9.7733  -22.4782 H   0  0  0  0  0  0
    8.6746    9.0579  -21.3612 H   0  0  0  0  0  0
  1  2  2  0  0  0
  1  3  1  0  0  0
  1 34  1  0  0  0
  2  6  1  0  0  0
  2 35  1  0  0  0
  3  5  2  0  0  0
  3 27  1  0  0  0
  4  5  1  0  0  0
  4  6  2  0  0  0
  4 18  1  0  0  0
  5 24  1  0  0  0
  6 10  1  0  0  0
  7 10  2  0  0  0
  7 23  1  0  0  0
  7 33  1  0  0  0
  8 21  1  0  0  0
  8 22  1  0  0  0
  8 36  1  0  0  0
  8 37  1  0  0  0
  9 21  1  0  0  0
  9 31  1  0  0  0
  9 38  1  0  0  0
  9 39  1  0  0  0
 10 40  1  0  0  0
 11 12  1  0  0  0
 11 14  2  0  0  0
 11 15  1  0  0  0
 12 17  1  0  0  0
 12 28  2  0  0  0
 13 28  1  0  0  0
 13 29  2  0  0  0
 13 58  1  0  0  0
 14 29  1  0  0  0
 14 31  1  0  0  0
 15 30  2  0  0  0
 15 41  1  0  0  0
 16 17  2  0  0  0
 16 18  1  0  0  0
 16 30  1  0  0  0
 17 26  1  0  0  0
 18 23  2  0  0  0
 19 20  1  0  0  0
 19 31  1  0  0  0
 19 42  1  0  0  0
 19 43  1  0  0  0
 20 22  1  0  0  0
 20 32  1  0  0  0
 20 44  1  0  0  0
 21 32  1  0  0  0
 21 45  1  0  0  0
 22 46  1  0  0  0
 22 47  1  0  0  0
 23 48  1  0  0  0
 24 25  3  0  0  0
 25 49  1  0  0  0
 32 50  1  0  0  0
 33 51  1  0  0  0
 52 58  2  0  0  0
 53 55  1  0  0  0
 53 56  1  0  0  0
 54 57  1  0  0  0
 54 59  1  0  0  0
 54 60  1  0  0  0
 54 61  1  0  0  0
 55 57  1  0  0  0
 55 62  1  0  0  0
 55 63  1  0  0  0
 56 58  1  0  0  0
 56 64  1  0  0  0
 56 65  1  0  0  0
 57 66  1  0  0  0
 57 67  1  0  0  0
M  CHG  1  54   1
M  END
> <s_m_entry_id>
480

> <s_m_entry_name>
000000480.1

> <s_m_Source_Path>
/Users/zaksoul/Documents/2

> <s_m_Source_File>
000000480.mol2

> <i_m_Source_File_Index>
1

$$$$
No_0_504
                    3D
 Schrodinger Suite 2022-4.
 67 72  0  0  1  0            999 V2000
   -5.1410    3.4580  -22.4960 C   0  0  0  0  0  0
   -5.3610    3.6330  -23.8420 C   0  0  0  0  0  0
   -3.9140    3.2120  -22.1110 C   0  0  0  0  0  0
   -2.9490    3.3210  -24.2450 C   0  0  0  0  0  0
   -2.8370    3.0910  -22.8180 C   0  0  0  0  0  0
   -4.2790    3.5740  -24.8150 C   0  0  0  0  0  0
   -3.4490    3.5770  -26.9860 C   0  0  0  0  0  0
    6.0960    2.9280  -21.3820 C   0  0  0  0  0  0
    6.0450    3.0450  -23.9360 C   0  0  0  0  0  0
   -4.4840    3.6870  -26.1590 C   0  0  0  0  0  0
    2.2610    3.5800  -24.0890 C   0  0  0  0  0  0
    1.4270    4.6880  -23.8290 C   0  0  0  0  0  0
    3.1970    5.8970  -23.0990 C   0  0  0  0  0  0
    3.6490    3.7780  -23.7300 C   0  0  0  0  0  0
    1.7410    2.4540  -24.7580 C   0  0  0  0  0  0
   -0.3910    3.2610  -24.7280 C   0  0  0  0  0  0
    0.1110    4.4890  -24.1230 C   0  0  0  0  0  0
   -1.8310    3.2590  -25.1320 C   0  0  0  0  0  0
    4.2520    1.2860  -23.3930 C   0  0  0  0  0  0
    5.1470    0.9440  -22.2110 C   0  0  2  0  0  0
    6.7530    2.4850  -22.7080 C   0  0  2  0  0  0
    5.0860    1.9570  -21.0550 C   0  0  0  0  0  0
   -2.1080    3.4030  -26.5720 C   0  0  0  0  0  0
   -1.5120    2.6880  -22.1690 C   0  0  0  0  0  0
   -0.4990    2.3490  -21.6250 C   0  0  0  0  0  0
   -0.7460    5.5340  -23.8180 F   0  0  0  0  0  0
   -3.7510    2.9840  -20.7200 F   0  0  0  0  0  0
    1.8810    5.8540  -23.2930 N   0  0  0  0  0  0
    4.1030    4.9350  -23.2790 N   0  0  0  0  0  0
    0.4470    2.3570  -25.1070 N   0  0  0  0  0  0
    4.5760    2.7320  -23.8650 N   0  0  0  0  0  0
    6.5690    1.0120  -22.6460 N   0  0  1  0  0  0
   -3.5730    3.5780  -28.3810 O   0  0  0  0  0  0
   -5.9676    3.5253  -21.7980 H   0  0  0  0  0  0
   -6.3646    3.8207  -24.2063 H   0  0  0  0  0  0
    5.6256    3.9131  -21.5173 H   0  0  0  0  0  0
    6.8553    2.9482  -20.5864 H   0  0  0  0  0  0
    6.4719    2.5928  -24.8433 H   0  0  0  0  0  0
    6.1852    4.1354  -23.9743 H   0  0  0  0  0  0
   -5.4825    3.8656  -26.5413 H   0  0  0  0  0  0
    2.3925    1.6248  -25.0090 H   0  0  0  0  0  0
    3.1981    1.2285  -23.0831 H   0  0  0  0  0  0
    4.4458    0.5806  -24.2145 H   0  0  0  0  0  0
    4.9138   -0.0655  -21.8415 H   0  0  0  0  0  0
    7.8217    2.7454  -22.7201 H   0  0  0  0  0  0
    4.0999    2.4445  -21.0500 H   0  0  0  0  0  0
    5.3555    1.4524  -20.1154 H   0  0  0  0  0  0
   -1.3122    3.3789  -27.3076 H   0  0  0  0  0  0
    0.3935    2.0502  -21.1462 H   0  0  0  0  0  0
    7.1941    0.5237  -21.9130 H   0  0  0  0  0  0
   -2.7136    3.4889  -28.7760 H   0  0  0  0  0  0
    3.0890    8.2280  -22.8770 O   0  0  0  0  0  0
    5.5030    8.6070  -21.7520 O   0  0  0  0  0  0
    7.8680    8.0940  -23.5660 N   0  3  0  0  0  0
    6.8790    8.6950  -21.3380 C   0  0  0  0  0  0
    5.0680    7.2480  -21.9330 C   0  0  0  0  0  0
    7.7890    9.1440  -22.4960 C   0  0  0  0  0  0
    3.7300    7.2290  -22.6300 C   0  0  0  0  0  0
    8.4689    8.4150  -24.3089 H   0  0  0  0  0  0
    8.2418    7.2434  -23.1752 H   0  0  0  0  0  0
    6.9459    7.9180  -23.9331 H   0  0  0  0  0  0
    7.2130    7.7140  -20.9690 H   0  0  0  0  0  0
    6.9661    9.4085  -20.5054 H   0  0  0  0  0  0
    4.9780    6.7589  -20.9518 H   0  0  0  0  0  0
    5.8058    6.7061  -22.5429 H   0  0  0  0  0  0
    7.3990   10.0779  -22.9270 H   0  0  0  0  0  0
    8.7981    9.3490  -22.1090 H   0  0  0  0  0  0
  1  2  2  0  0  0
  1  3  1  0  0  0
  1 34  1  0  0  0
  2  6  1  0  0  0
  2 35  1  0  0  0
  3  5  2  0  0  0
  3 27  1  0  0  0
  4  5  1  0  0  0
  4  6  2  0  0  0
  4 18  1  0  0  0
  5 24  1  0  0  0
  6 10  1  0  0  0
  7 10  2  0  0  0
  7 23  1  0  0  0
  7 33  1  0  0  0
  8 21  1  0  0  0
  8 22  1  0  0  0
  8 36  1  0  0  0
  8 37  1  0  0  0
  9 21  1  0  0  0
  9 31  1  0  0  0
  9 38  1  0  0  0
  9 39  1  0  0  0
 10 40  1  0  0  0
 11 12  1  0  0  0
 11 14  2  0  0  0
 11 15  1  0  0  0
 12 17  1  0  0  0
 12 28  2  0  0  0
 13 28  1  0  0  0
 13 29  2  0  0  0
 13 58  1  0  0  0
 14 29  1  0  0  0
 14 31  1  0  0  0
 15 30  2  0  0  0
 15 41  1  0  0  0
 16 17  2  0  0  0
 16 18  1  0  0  0
 16 30  1  0  0  0
 17 26  1  0  0  0
 18 23  2  0  0  0
 19 20  1  0  0  0
 19 31  1  0  0  0
 19 42  1  0  0  0
 19 43  1  0  0  0
 20 22  1  0  0  0
 20 32  1  0  0  0
 20 44  1  0  0  0
 21 32  1  0  0  0
 21 45  1  0  0  0
 22 46  1  0  0  0
 22 47  1  0  0  0
 23 48  1  0  0  0
 24 25  3  0  0  0
 25 49  1  0  0  0
 32 50  1  0  0  0
 33 51  1  0  0  0
 52 58  2  0  0  0
 53 55  1  0  0  0
 53 56  1  0  0  0
 54 57  1  0  0  0
 54 59  1  0  0  0
 54 60  1  0  0  0
 54 61  1  0  0  0
 55 57  1  0  0  0
 55 62  1  0  0  0
 55 63  1  0  0  0
 56 58  1  0  0  0
 56 64  1  0  0  0
 56 65  1  0  0  0
 57 66  1  0  0  0
 57 67  1  0  0  0
M  CHG  1  54   1
M  END
> <s_m_entry_id>
481

> <s_m_entry_name>
000000481.1

> <s_m_Source_Path>
/Users/zaksoul/Documents/2

> <s_m_Source_File>
000000481.mol2

> <i_m_Source_File_Index>
1

$$$$
No_0_505
                    3D
 Schrodinger Suite 2022-4.
 71 76  0  0  1  0            999 V2000
   -5.2350    3.6620  -22.0360 C   0  0  0  0  0  0
   -5.4640    3.8310  -23.3810 C   0  0  0  0  0  0
   -4.0070    3.4100  -21.6580 C   0  0  0  0  0  0
   -3.0570    3.5020  -23.8010 C   0  0  0  0  0  0
   -2.9350    3.2780  -22.3730 C   0  0  0  0  0  0
   -4.3890    3.7600  -24.3620 C   0  0  0  0  0  0
   -3.5740    3.7480  -26.5390 C   0  0  0  0  0  0
    6.0060    3.0630  -21.0010 C   0  0  0  0  0  0
    5.9370    3.1680  -23.5550 C   0  0  0  0  0  0
   -4.6030    3.8690  -25.7050 C   0  0  0  0  0  0
    2.1560    3.7260  -23.6830 C   0  0  0  0  0  0
    1.3310    4.8420  -23.4230 C   0  0  0  0  0  0
    3.1140    6.0420  -22.7120 C   0  0  0  0  0  0
    3.5480    3.9180  -23.3350 C   0  0  0  0  0  0
    1.6240    2.6010  -24.3430 C   0  0  0  0  0  0
   -0.5030    3.4220  -24.3020 C   0  0  0  0  0  0
    0.0120    4.6500  -23.7070 C   0  0  0  0  0  0
   -1.9460    3.4270  -24.6960 C   0  0  0  0  0  0
    4.1370    1.4230  -22.9900 C   0  0  0  0  0  0
    5.0380    1.0810  -21.8140 C   0  0  2  0  0  0
    6.6500    2.6090  -22.3300 C   0  0  2  0  0  0
    4.9920    2.1000  -20.6620 C   0  0  0  0  0  0
   -2.2320    3.5670  -26.1340 C   0  0  0  0  0  0
   -1.6090    2.8690  -21.7320 C   0  0  0  0  0  0
   -0.5940    2.5260  -21.1940 C   0  0  0  0  0  0
   -0.8360    5.7020  -23.4010 F   0  0  0  0  0  0
   -3.8350    3.1870  -20.2680 F   0  0  0  0  0  0
    1.7970    6.0070  -22.8960 N   0  0  0  0  0  0
    4.0130    5.0740  -22.8940 N   0  0  0  0  0  0
    0.3260    2.5110  -24.6820 N   0  0  0  0  0  0
    4.4670    2.8650  -23.4720 N   0  0  0  0  0  0
    6.4580    1.1370  -22.2590 N   0  0  1  0  0  0
   -3.7100    3.7420  -27.9330 O   0  0  0  0  0  0
   -6.0561    3.7383  -21.3324 H   0  0  0  0  0  0
   -6.4686    4.0247  -23.7393 H   0  0  0  0  0  0
    5.5415    4.0506  -21.1383 H   0  0  0  0  0  0
    6.7715    3.0822  -20.2113 H   0  0  0  0  0  0
    6.3547    2.7089  -24.4631 H   0  0  0  0  0  0
    6.0844    4.2571  -23.6004 H   0  0  0  0  0  0
   -5.6031    4.0516  -26.0812 H   0  0  0  0  0  0
    2.2675    1.7658  -24.5950 H   0  0  0  0  0  0
    3.0851    1.3745  -22.6720 H   0  0  0  0  0  0
    4.3197    0.7124  -23.8096 H   0  0  0  0  0  0
    4.8009    0.0753  -21.4367 H   0  0  0  0  0  0
    7.7203    2.8622  -22.3512 H   0  0  0  0  0  0
    4.0090    2.5935  -20.6529 H   0  0  0  0  0  0
    5.2656    1.5983  -19.7221 H   0  0  0  0  0  0
   -1.4421    3.5339  -26.8757 H   0  0  0  0  0  0
    0.2996    2.2241  -20.7192 H   0  0  0  0  0  0
    7.0843    0.6475  -21.5279 H   0  0  0  0  0  0
   -2.8541    3.6450  -28.3337 H   0  0  0  0  0  0
    3.1150    8.3850  -22.6400 O   0  0  0  0  0  0
    5.4680    8.7440  -21.2650 N   0  0  1  0  0  0
    6.7810   10.6260  -22.3440 C   0  0  0  0  0  0
    6.1800    9.2140  -22.5020 C   0  0  0  0  0  0
    5.7430   11.7670  -22.3790 C   0  0  0  0  0  0
    3.6600    7.3730  -22.2530 C   0  0  0  0  0  0
    4.8910    7.3620  -21.3830 C   0  0  0  0  0  0
    5.1270   11.9580  -23.7770 C   0  0  0  0  0  0
    6.1573    8.7330  -20.4336 H   0  0  0  0  0  0
    7.5331   10.7930  -23.1291 H   0  0  0  0  0  0
    7.3469   10.6770  -21.4021 H   0  0  0  0  0  0
    5.4813    9.2080  -23.3516 H   0  0  0  0  0  0
    6.9800    8.5030  -22.7560 H   0  0  0  0  0  0
    6.2197   12.7054  -22.0592 H   0  0  0  0  0  0
    4.9437   11.5579  -21.6527 H   0  0  0  0  0  0
    4.6291    6.9881  -20.3822 H   0  0  0  0  0  0
    5.6430    6.6880  -21.8190 H   0  0  0  0  0  0
    4.3968   12.7802  -23.7480 H   0  0  0  0  0  0
    5.9211   12.1990  -24.4991 H   0  0  0  0  0  0
    4.6210   11.0311  -24.0850 H   0  0  0  0  0  0
  1  2  2  0  0  0
  1  3  1  0  0  0
  1 34  1  0  0  0
  2  6  1  0  0  0
  2 35  1  0  0  0
  3  5  2  0  0  0
  3 27  1  0  0  0
  4  5  1  0  0  0
  4  6  2  0  0  0
  4 18  1  0  0  0
  5 24  1  0  0  0
  6 10  1  0  0  0
  7 10  2  0  0  0
  7 23  1  0  0  0
  7 33  1  0  0  0
  8 21  1  0  0  0
  8 22  1  0  0  0
  8 36  1  0  0  0
  8 37  1  0  0  0
  9 21  1  0  0  0
  9 31  1  0  0  0
  9 38  1  0  0  0
  9 39  1  0  0  0
 10 40  1  0  0  0
 11 12  1  0  0  0
 11 14  2  0  0  0
 11 15  1  0  0  0
 12 17  1  0  0  0
 12 28  2  0  0  0
 13 28  1  0  0  0
 13 29  2  0  0  0
 13 57  1  0  0  0
 14 29  1  0  0  0
 14 31  1  0  0  0
 15 30  2  0  0  0
 15 41  1  0  0  0
 16 17  2  0  0  0
 16 18  1  0  0  0
 16 30  1  0  0  0
 17 26  1  0  0  0
 18 23  2  0  0  0
 19 20  1  0  0  0
 19 31  1  0  0  0
 19 42  1  0  0  0
 19 43  1  0  0  0
 20 22  1  0  0  0
 20 32  1  0  0  0
 20 44  1  0  0  0
 21 32  1  0  0  0
 21 45  1  0  0  0
 22 46  1  0  0  0
 22 47  1  0  0  0
 23 48  1  0  0  0
 24 25  3  0  0  0
 25 49  1  0  0  0
 32 50  1  0  0  0
 33 51  1  0  0  0
 52 57  2  0  0  0
 53 55  1  0  0  0
 53 58  1  0  0  0
 53 60  1  0  0  0
 54 55  1  0  0  0
 54 56  1  0  0  0
 54 61  1  0  0  0
 54 62  1  0  0  0
 55 63  1  0  0  0
 55 64  1  0  0  0
 56 59  1  0  0  0
 56 65  1  0  0  0
 56 66  1  0  0  0
 57 58  1  0  0  0
 58 67  1  0  0  0
 58 68  1  0  0  0
 59 69  1  0  0  0
 59 70  1  0  0  0
 59 71  1  0  0  0
M  END
> <s_m_entry_id>
482

> <s_m_entry_name>
000000482.1

> <s_m_Source_Path>
/Users/zaksoul/Documents/2

> <s_m_Source_File>
000000482.mol2

> <i_m_Source_File_Index>
1

$$$$
No_0_506
                    3D
 Schrodinger Suite 2022-4.
 65 70  0  0  1  0            999 V2000
   -5.2010    3.1790  -22.2880 C   0  0  0  0  0  0
   -5.4350    3.3380  -23.6330 C   0  0  0  0  0  0
   -3.9680    2.9540  -21.9110 C   0  0  0  0  0  0
   -3.0220    3.0580  -24.0540 C   0  0  0  0  0  0
   -2.8950    2.8420  -22.6260 C   0  0  0  0  0  0
   -4.3600    3.2860  -24.6150 C   0  0  0  0  0  0
   -3.5480    3.2820  -26.7930 C   0  0  0  0  0  0
    6.0510    2.8190  -21.2630 C   0  0  0  0  0  0
    5.9770    2.9130  -23.8180 C   0  0  0  0  0  0
   -4.5780    3.3850  -25.9590 C   0  0  0  0  0  0
    2.1850    3.3920  -23.9440 C   0  0  0  0  0  0
    1.3370    4.4910  -23.6870 C   0  0  0  0  0  0
    3.0950    5.7310  -22.9830 C   0  0  0  0  0  0
    3.5730    3.6140  -23.5980 C   0  0  0  0  0  0
    1.6760    2.2530  -24.5980 C   0  0  0  0  0  0
   -0.4680    3.0300  -24.5580 C   0  0  0  0  0  0
    0.0220    4.2700  -23.9680 C   0  0  0  0  0  0
   -1.9110    3.0030  -24.9500 C   0  0  0  0  0  0
    4.2140    1.1330  -23.2440 C   0  0  0  0  0  0
    5.1240    0.8150  -22.0670 C   0  0  2  0  0  0
    6.7030    2.3740  -22.5910 C   0  0  2  0  0  0
    5.0570    1.8370  -20.9200 C   0  0  0  0  0  0
   -2.2010    3.1310  -26.3890 C   0  0  0  0  0  0
   -1.5600    2.4640  -21.9850 C   0  0  0  0  0  0
   -0.5370    2.1440  -21.4460 C   0  0  0  0  0  0
   -0.8470    5.3060  -23.6650 F   0  0  0  0  0  0
   -3.7900    2.7410  -20.5190 F   0  0  0  0  0  0
    1.7790    5.6670  -23.1650 N   0  0  0  0  0  0
    4.0140    4.7810  -23.1620 N   0  0  0  0  0  0
    0.3800    2.1340  -24.9350 N   0  0  0  0  0  0
    4.5140    2.5790  -23.7320 N   0  0  0  0  0  0
    6.5410    0.8990  -22.5140 N   0  0  1  0  0  0
   -3.6840    3.2680  -28.1870 O   0  0  0  0  0  0
   -6.0227    3.2402  -21.5837 H   0  0  0  0  0  0
   -6.4437    3.5086  -23.9913 H   0  0  0  0  0  0
    5.5659    3.7963  -21.4032 H   0  0  0  0  0  0
    6.8166    2.8584  -20.4742 H   0  0  0  0  0  0
    6.4031    2.4587  -24.7247 H   0  0  0  0  0  0
    6.1011    4.0049  -23.8674 H   0  0  0  0  0  0
   -5.5822    3.5455  -26.3342 H   0  0  0  0  0  0
    2.3366    1.4307  -24.8480 H   0  0  0  0  0  0
    3.1639    1.0633  -22.9239 H   0  0  0  0  0  0
    4.4108    0.4225  -24.0604 H   0  0  0  0  0  0
    4.9081   -0.1939  -21.6856 H   0  0  0  0  0  0
    7.7677    2.6495  -22.6142 H   0  0  0  0  0  0
    4.0642    2.3107  -20.9109 H   0  0  0  0  0  0
    5.3424    1.3458  -19.9780 H   0  0  0  0  0  0
   -1.4109    3.1109  -27.1309 H   0  0  0  0  0  0
    0.3639    1.8630  -20.9721 H   0  0  0  0  0  0
    7.1781    0.4254  -21.7817 H   0  0  0  0  0  0
   -2.8269    3.1878  -28.5888 H   0  0  0  0  0  0
    7.7220    9.5350  -22.3010 F   0  0  0  0  0  0
    3.0430    8.0700  -22.9230 O   0  0  0  0  0  0
    5.1620    8.5300  -21.2760 N   0  0  1  0  0  0
    4.8180    7.1090  -21.6210 C   0  0  0  0  0  0
    6.4140    8.7150  -20.4570 C   0  0  0  0  0  0
    7.7110    8.5880  -21.2820 C   0  0  0  0  0  0
    3.6130    7.0750  -22.5300 C   0  0  0  0  0  0
    5.3060    9.0969  -22.1839 H   0  0  0  0  0  0
    4.5970    6.5511  -20.6991 H   0  0  0  0  0  0
    5.6727    6.6382  -22.1288 H   0  0  0  0  0  0
    6.4270    7.9793  -19.6393 H   0  0  0  0  0  0
    6.3870    9.6996  -19.9672 H   0  0  0  0  0  0
    8.5791    8.7450  -20.6249 H   0  0  0  0  0  0
    7.7700    7.5799  -21.7181 H   0  0  0  0  0  0
  1  2  2  0  0  0
  1  3  1  0  0  0
  1 34  1  0  0  0
  2  6  1  0  0  0
  2 35  1  0  0  0
  3  5  2  0  0  0
  3 27  1  0  0  0
  4  5  1  0  0  0
  4  6  2  0  0  0
  4 18  1  0  0  0
  5 24  1  0  0  0
  6 10  1  0  0  0
  7 10  2  0  0  0
  7 23  1  0  0  0
  7 33  1  0  0  0
  8 21  1  0  0  0
  8 22  1  0  0  0
  8 36  1  0  0  0
  8 37  1  0  0  0
  9 21  1  0  0  0
  9 31  1  0  0  0
  9 38  1  0  0  0
  9 39  1  0  0  0
 10 40  1  0  0  0
 11 12  1  0  0  0
 11 14  2  0  0  0
 11 15  1  0  0  0
 12 17  1  0  0  0
 12 28  2  0  0  0
 13 28  1  0  0  0
 13 29  2  0  0  0
 13 58  1  0  0  0
 14 29  1  0  0  0
 14 31  1  0  0  0
 15 30  2  0  0  0
 15 41  1  0  0  0
 16 17  2  0  0  0
 16 18  1  0  0  0
 16 30  1  0  0  0
 17 26  1  0  0  0
 18 23  2  0  0  0
 19 20  1  0  0  0
 19 31  1  0  0  0
 19 42  1  0  0  0
 19 43  1  0  0  0
 20 22  1  0  0  0
 20 32  1  0  0  0
 20 44  1  0  0  0
 21 32  1  0  0  0
 21 45  1  0  0  0
 22 46  1  0  0  0
 22 47  1  0  0  0
 23 48  1  0  0  0
 24 25  3  0  0  0
 25 49  1  0  0  0
 32 50  1  0  0  0
 33 51  1  0  0  0
 52 57  1  0  0  0
 53 58  2  0  0  0
 54 55  1  0  0  0
 54 56  1  0  0  0
 54 59  1  0  0  0
 55 58  1  0  0  0
 55 60  1  0  0  0
 55 61  1  0  0  0
 56 57  1  0  0  0
 56 62  1  0  0  0
 56 63  1  0  0  0
 57 64  1  0  0  0
 57 65  1  0  0  0
M  END
> <s_m_entry_id>
483

> <s_m_entry_name>
000000483.1

> <s_m_Source_Path>
/Users/zaksoul/Documents/2

> <s_m_Source_File>
000000483.mol2

> <i_m_Source_File_Index>
1

$$$$
No_0_507
                    3D
 Schrodinger Suite 2022-4.
 65 70  0  0  1  0            999 V2000
   -5.0630    3.4860  -22.1690 C   0  0  0  0  0  0
   -5.3050    3.6410  -23.5130 C   0  0  0  0  0  0
   -3.8300    3.2460  -21.8000 C   0  0  0  0  0  0
   -2.9000    3.3220  -23.9520 C   0  0  0  0  0  0
   -2.7640    3.1130  -22.5230 C   0  0  0  0  0  0
   -4.2390    3.5670  -24.5030 C   0  0  0  0  0  0
   -3.4450    3.5380  -26.6880 C   0  0  0  0  0  0
    6.1910    2.9660  -21.2330 C   0  0  0  0  0  0
    6.0970    3.0460  -23.7870 C   0  0  0  0  0  0
   -4.4670    3.6610  -25.8460 C   0  0  0  0  0  0
    2.3120    3.5800  -23.8850 C   0  0  0  0  0  0
    1.4820    4.6930  -23.6280 C   0  0  0  0  0  0
    3.2640    5.9110  -22.9460 C   0  0  0  0  0  0
    3.7060    3.7830  -23.5520 C   0  0  0  0  0  0
    1.7810    2.4450  -24.5290 C   0  0  0  0  0  0
   -0.3510    3.2540  -24.4760 C   0  0  0  0  0  0
    0.1620    4.4900  -23.8980 C   0  0  0  0  0  0
   -1.7970    3.2460  -24.8560 C   0  0  0  0  0  0
    4.3140    1.2960  -23.1880 C   0  0  0  0  0  0
    5.2280    0.9710  -22.0170 C   0  0  2  0  0  0
    6.8250    2.5040  -22.5620 C   0  0  2  0  0  0
    5.1860    2.0010  -20.8750 C   0  0  0  0  0  0
   -2.0970    3.3700  -26.2930 C   0  0  0  0  0  0
   -1.4300    2.7190  -21.8910 C   0  0  0  0  0  0
   -0.4070    2.3880  -21.3580 C   0  0  0  0  0  0
   -0.6890    5.5400  -23.5940 F   0  0  0  0  0  0
   -3.6440    3.0380  -20.4090 F   0  0  0  0  0  0
    1.9460    5.8660  -23.1170 N   0  0  0  0  0  0
    4.1670    4.9460  -23.1260 N   0  0  0  0  0  0
    0.4800    2.3440  -24.8550 N   0  0  0  0  0  0
    4.6300    2.7350  -23.6870 N   0  0  0  0  0  0
    6.6420    1.0310  -22.4760 N   0  0  1  0  0  0
   -3.5930    3.5180  -28.0800 O   0  0  0  0  0  0
   -5.8779    3.5643  -21.4585 H   0  0  0  0  0  0
   -6.3140    3.8245  -23.8641 H   0  0  0  0  0  0
    5.7190    3.9494  -21.3752 H   0  0  0  0  0  0
    6.9629    2.9983  -20.4500 H   0  0  0  0  0  0
    6.5096    2.5799  -24.6939 H   0  0  0  0  0  0
    6.2374    4.1355  -23.8446 H   0  0  0  0  0  0
   -5.4716    3.8346  -26.2143 H   0  0  0  0  0  0
    2.4276    1.6117  -24.7790 H   0  0  0  0  0  0
    3.2653    1.2436  -22.8603 H   0  0  0  0  0  0
    4.4925    0.5779  -24.0019 H   0  0  0  0  0  0
    4.9999   -0.0321  -21.6275 H   0  0  0  0  0  0
    7.8935    2.7633  -22.5963 H   0  0  0  0  0  0
    4.2000    2.4884  -20.8609 H   0  0  0  0  0  0
    5.4706    1.5105  -19.9324 H   0  0  0  0  0  0
   -1.3140    3.3339  -27.0418 H   0  0  0  0  0  0
    0.4933    2.0959  -20.8898 H   0  0  0  0  0  0
    7.2789    0.5534  -21.7462 H   0  0  0  0  0  0
   -2.7402    3.4230  -28.4876 H   0  0  0  0  0  0
    7.7160    9.9760  -23.0230 F   0  0  0  0  0  0
    3.1070    8.2290  -22.6600 O   0  0  0  0  0  0
    5.5330    8.7120  -21.5220 N   0  0  1  0  0  0
    5.1900    7.3000  -21.9060 C   0  0  0  0  0  0
    6.9340    8.9230  -21.0060 C   0  0  0  0  0  0
    7.9990    8.9540  -22.1210 C   0  0  0  0  0  0
    3.8060    7.2500  -22.5050 C   0  0  0  0  0  0
    5.4250    9.3561  -22.3821 H   0  0  0  0  0  0
    5.2270    6.6578  -21.0137 H   0  0  0  0  0  0
    5.9208    6.9331  -22.6418 H   0  0  0  0  0  0
    7.1821    8.1286  -20.2867 H   0  0  0  0  0  0
    6.9750    9.8622  -20.4349 H   0  0  0  0  0  0
    8.9909    9.1220  -21.6761 H   0  0  0  0  0  0
    8.0040    7.9901  -22.6510 H   0  0  0  0  0  0
  1  2  2  0  0  0
  1  3  1  0  0  0
  1 34  1  0  0  0
  2  6  1  0  0  0
  2 35  1  0  0  0
  3  5  2  0  0  0
  3 27  1  0  0  0
  4  5  1  0  0  0
  4  6  2  0  0  0
  4 18  1  0  0  0
  5 24  1  0  0  0
  6 10  1  0  0  0
  7 10  2  0  0  0
  7 23  1  0  0  0
  7 33  1  0  0  0
  8 21  1  0  0  0
  8 22  1  0  0  0
  8 36  1  0  0  0
  8 37  1  0  0  0
  9 21  1  0  0  0
  9 31  1  0  0  0
  9 38  1  0  0  0
  9 39  1  0  0  0
 10 40  1  0  0  0
 11 12  1  0  0  0
 11 14  2  0  0  0
 11 15  1  0  0  0
 12 17  1  0  0  0
 12 28  2  0  0  0
 13 28  1  0  0  0
 13 29  2  0  0  0
 13 58  1  0  0  0
 14 29  1  0  0  0
 14 31  1  0  0  0
 15 30  2  0  0  0
 15 41  1  0  0  0
 16 17  2  0  0  0
 16 18  1  0  0  0
 16 30  1  0  0  0
 17 26  1  0  0  0
 18 23  2  0  0  0
 19 20  1  0  0  0
 19 31  1  0  0  0
 19 42  1  0  0  0
 19 43  1  0  0  0
 20 22  1  0  0  0
 20 32  1  0  0  0
 20 44  1  0  0  0
 21 32  1  0  0  0
 21 45  1  0  0  0
 22 46  1  0  0  0
 22 47  1  0  0  0
 23 48  1  0  0  0
 24 25  3  0  0  0
 25 49  1  0  0  0
 32 50  1  0  0  0
 33 51  1  0  0  0
 52 57  1  0  0  0
 53 58  2  0  0  0
 54 55  1  0  0  0
 54 56  1  0  0  0
 54 59  1  0  0  0
 55 58  1  0  0  0
 55 60  1  0  0  0
 55 61  1  0  0  0
 56 57  1  0  0  0
 56 62  1  0  0  0
 56 63  1  0  0  0
 57 64  1  0  0  0
 57 65  1  0  0  0
M  END
> <s_m_entry_id>
484

> <s_m_entry_name>
000000484.1

> <s_m_Source_Path>
/Users/zaksoul/Documents/2

> <s_m_Source_File>
000000484.mol2

> <i_m_Source_File_Index>
1

$$$$
No_0_508
                    3D
 Schrodinger Suite 2022-4.
 71 77  0  0  1  0            999 V2000
   -5.0770    3.5040  -22.0560 C   0  0  0  0  0  0
   -5.3560    3.6620  -23.3930 C   0  0  0  0  0  0
   -3.8310    3.2820  -21.7200 C   0  0  0  0  0  0
   -2.9580    3.3850  -23.8940 C   0  0  0  0  0  0
   -2.7820    3.1710  -22.4700 C   0  0  0  0  0  0
   -4.3140    3.6110  -24.4100 C   0  0  0  0  0  0
   -3.5750    3.6060  -26.6130 C   0  0  0  0  0  0
    6.2040    3.1680  -21.4080 C   0  0  0  0  0  0
    6.0440    3.2590  -23.9590 C   0  0  0  0  0  0
   -4.5780    3.7080  -25.7450 C   0  0  0  0  0  0
    2.2490    3.7300  -23.9580 C   0  0  0  0  0  0
    1.4080    4.8270  -23.6740 C   0  0  0  0  0  0
    3.1860    6.0720  -23.0300 C   0  0  0  0  0  0
    3.6480    3.9550  -23.6590 C   0  0  0  0  0  0
    1.7210    2.5900  -24.5940 C   0  0  0  0  0  0
   -0.4220    3.3620  -24.4830 C   0  0  0  0  0  0
    0.0850    4.6040  -23.9110 C   0  0  0  0  0  0
   -1.8770    3.3320  -24.8260 C   0  0  0  0  0  0
    4.3060    1.4760  -23.3250 C   0  0  0  0  0  0
    5.2550    1.1610  -22.1790 C   0  0  2  0  0  0
    6.8120    2.7230  -22.7560 C   0  0  2  0  0  0
    5.2250    2.1830  -21.0300 C   0  0  0  0  0  0
   -2.2160    3.4580  -26.2540 C   0  0  0  0  0  0
   -1.4260    2.7960  -21.8740 C   0  0  0  0  0  0
   -0.3840    2.4790  -21.3700 C   0  0  0  0  0  0
   -0.7760    5.6380  -23.5800 F   0  0  0  0  0  0
   -3.6060    3.0700  -20.3350 F   0  0  0  0  0  0
    1.8650    6.0060  -23.1670 N   0  0  0  0  0  0
    4.1010    5.1230  -23.2390 N   0  0  0  0  0  0
    0.4150    2.4680  -24.8880 N   0  0  0  0  0  0
    4.5860    2.9220  -23.8230 N   0  0  0  0  0  0
    6.6560    1.2470  -22.6730 N   0  0  1  0  0  0
   -3.7580    3.5910  -28.0020 O   0  0  0  0  0  0
   -5.8743    3.5642  -21.3240 H   0  0  0  0  0  0
   -6.3767    3.8296  -23.7172 H   0  0  0  0  0  0
    5.7124    4.1441  -21.5332 H   0  0  0  0  0  0
    6.9953    3.2084  -20.6450 H   0  0  0  0  0  0
    6.4408    2.8046  -24.8788 H   0  0  0  0  0  0
    6.1651    4.3510  -24.0135 H   0  0  0  0  0  0
   -5.5943    3.8657  -26.0875 H   0  0  0  0  0  0
    2.3746    1.7688  -24.8651 H   0  0  0  0  0  0
    3.2669    1.4054  -22.9709 H   0  0  0  0  0  0
    4.4765    0.7656  -24.1474 H   0  0  0  0  0  0
    5.0532    0.1522  -21.7896 H   0  0  0  0  0  0
    7.8747    3.0005  -22.8155 H   0  0  0  0  0  0
    4.2323    2.6551  -20.9886 H   0  0  0  0  0  0
    5.5422    1.6931  -20.0976 H   0  0  0  0  0  0
   -1.4516    3.4389  -27.0224 H   0  0  0  0  0  0
    0.5321    2.2000  -20.9250 H   0  0  0  0  0  0
    7.3186    0.7757  -21.9623 H   0  0  0  0  0  0
   -2.9148    3.5118  -28.4325 H   0  0  0  0  0  0
    9.4080    9.5740  -21.8920 O   0  0  0  0  0  0
    3.1360    8.4150  -22.9670 O   0  0  0  0  0  0
    5.4790    8.7880  -21.4250 N   0  0  0  0  0  0
    7.3990    9.0960  -23.0680 C   0  0  0  0  0  0
    7.8350    8.2790  -20.6650 C   0  0  0  0  0  0
    5.9940    9.5550  -22.6230 C   0  0  0  0  0  0
    6.4450    8.8150  -20.2640 C   0  0  0  0  0  0
    3.7170    7.4170  -22.5950 C   0  0  0  0  0  0
    8.3280    9.0320  -21.8790 C   0  0  0  0  0  0
    4.9630    7.4050  -21.7400 C   0  0  0  0  0  0
    7.7990    9.8059  -23.8069 H   0  0  0  0  0  0
    7.3290    8.1017  -23.5332 H   0  0  0  0  0  0
    7.7600    7.2079  -20.9040 H   0  0  0  0  0  0
    8.5386    8.4269  -19.8325 H   0  0  0  0  0  0
    6.0180   10.6289  -22.3860 H   0  0  0  0  0  0
    5.2892    9.4410  -23.4598 H   0  0  0  0  0  0
    6.0429    8.2089  -19.4388 H   0  0  0  0  0  0
    6.5430    9.8462  -19.8939 H   0  0  0  0  0  0
    4.7570    6.8701  -20.8011 H   0  0  0  0  0  0
    5.7499    6.8291  -22.2490 H   0  0  0  0  0  0
  1  2  2  0  0  0
  1  3  1  0  0  0
  1 34  1  0  0  0
  2  6  1  0  0  0
  2 35  1  0  0  0
  3  5  2  0  0  0
  3 27  1  0  0  0
  4  5  1  0  0  0
  4  6  2  0  0  0
  4 18  1  0  0  0
  5 24  1  0  0  0
  6 10  1  0  0  0
  7 10  2  0  0  0
  7 23  1  0  0  0
  7 33  1  0  0  0
  8 21  1  0  0  0
  8 22  1  0  0  0
  8 36  1  0  0  0
  8 37  1  0  0  0
  9 21  1  0  0  0
  9 31  1  0  0  0
  9 38  1  0  0  0
  9 39  1  0  0  0
 10 40  1  0  0  0
 11 12  1  0  0  0
 11 14  2  0  0  0
 11 15  1  0  0  0
 12 17  1  0  0  0
 12 28  2  0  0  0
 13 28  1  0  0  0
 13 29  2  0  0  0
 13 59  1  0  0  0
 14 29  1  0  0  0
 14 31  1  0  0  0
 15 30  2  0  0  0
 15 41  1  0  0  0
 16 17  2  0  0  0
 16 18  1  0  0  0
 16 30  1  0  0  0
 17 26  1  0  0  0
 18 23  2  0  0  0
 19 20  1  0  0  0
 19 31  1  0  0  0
 19 42  1  0  0  0
 19 43  1  0  0  0
 20 22  1  0  0  0
 20 32  1  0  0  0
 20 44  1  0  0  0
 21 32  1  0  0  0
 21 45  1  0  0  0
 22 46  1  0  0  0
 22 47  1  0  0  0
 23 48  1  0  0  0
 24 25  3  0  0  0
 25 49  1  0  0  0
 32 50  1  0  0  0
 33 51  1  0  0  0
 52 60  2  0  0  0
 53 59  2  0  0  0
 54 57  1  0  0  0
 54 58  1  0  0  0
 54 61  1  0  0  0
 55 57  1  0  0  0
 55 60  1  0  0  0
 55 62  1  0  0  0
 55 63  1  0  0  0
 56 58  1  0  0  0
 56 60  1  0  0  0
 56 64  1  0  0  0
 56 65  1  0  0  0
 57 66  1  0  0  0
 57 67  1  0  0  0
 58 68  1  0  0  0
 58 69  1  0  0  0
 59 61  1  0  0  0
 61 70  1  0  0  0
 61 71  1  0  0  0
M  END
> <s_m_entry_id>
485

> <s_m_entry_name>
000000485.1

> <s_m_Source_Path>
/Users/zaksoul/Documents/2

> <s_m_Source_File>
000000485.mol2

> <i_m_Source_File_Index>
1

$$$$
No_0_509
                    3D
 Schrodinger Suite 2022-4.
 71 77  0  0  1  0            999 V2000
   -5.1380    3.4530  -22.1350 C   0  0  0  0  0  0
   -5.3960    3.6410  -23.4720 C   0  0  0  0  0  0
   -3.9030    3.1950  -21.7860 C   0  0  0  0  0  0
   -2.9980    3.3150  -23.9470 C   0  0  0  0  0  0
   -2.8470    3.0720  -22.5250 C   0  0  0  0  0  0
   -4.3420    3.5820  -24.4760 C   0  0  0  0  0  0
   -3.5740    3.5980  -26.6700 C   0  0  0  0  0  0
    6.1210    2.8300  -21.3470 C   0  0  0  0  0  0
    5.9980    2.9690  -23.8970 C   0  0  0  0  0  0
   -4.5850    3.7090  -25.8130 C   0  0  0  0  0  0
    2.2160    3.5330  -23.9370 C   0  0  0  0  0  0
    1.3980    4.6460  -23.6450 C   0  0  0  0  0  0
    3.1970    5.8350  -22.9560 C   0  0  0  0  0  0
    3.6150    3.7180  -23.6160 C   0  0  0  0  0  0
    1.6690    2.4170  -24.6000 C   0  0  0  0  0  0
   -0.4560    3.2400  -24.5030 C   0  0  0  0  0  0
    0.0730    4.4590  -23.9030 C   0  0  0  0  0  0
   -1.9070    3.2520  -24.8660 C   0  0  0  0  0  0
    4.2090    1.2190  -23.3180 C   0  0  0  0  0  0
    5.1340    0.8600  -22.1650 C   0  0  2  0  0  0
    6.7370    2.3940  -22.6950 C   0  0  2  0  0  0
    5.1140    1.8630  -21.0000 C   0  0  0  0  0  0
   -2.2230    3.4100  -26.2960 C   0  0  0  0  0  0
   -1.5080    2.6540  -21.9180 C   0  0  0  0  0  0
   -0.4820    2.3020  -21.4060 C   0  0  0  0  0  0
   -0.7670    5.5080  -23.5650 F   0  0  0  0  0  0
   -3.7010    2.9540  -20.4030 F   0  0  0  0  0  0
    1.8770    5.8030  -23.1120 N   0  0  0  0  0  0
    4.0910    4.8680  -23.1700 N   0  0  0  0  0  0
    0.3640    2.3330  -24.9130 N   0  0  0  0  0  0
    4.5300    2.6660  -23.7870 N   0  0  0  0  0  0
    6.5440    0.9210  -22.6400 N   0  0  1  0  0  0
   -3.7390    3.6110  -28.0600 O   0  0  0  0  0  0
   -5.9435    3.5202  -21.4127 H   0  0  0  0  0  0
   -6.4078    3.8398  -23.8063 H   0  0  0  0  0  0
    5.6557    3.8202  -21.4611 H   0  0  0  0  0  0
    6.9028    2.8381  -20.5732 H   0  0  0  0  0  0
    6.3955    2.5221  -24.8202 H   0  0  0  0  0  0
    6.1463    4.0584  -23.9313 H   0  0  0  0  0  0
   -5.5926    3.8977  -26.1653 H   0  0  0  0  0  0
    2.3063    1.5850  -24.8770 H   0  0  0  0  0  0
    3.1641    1.1666  -22.9781 H   0  0  0  0  0  0
    4.3725    0.5188  -24.1504 H   0  0  0  0  0  0
    4.9038   -0.1506  -21.7965 H   0  0  0  0  0  0
    7.8069    2.6463  -22.7354 H   0  0  0  0  0  0
    4.1325    2.3583  -20.9627 H   0  0  0  0  0  0
    5.4065    1.3497  -20.0721 H   0  0  0  0  0  0
   -1.4492    3.3859  -27.0548 H   0  0  0  0  0  0
    0.4216    1.9931  -20.9552 H   0  0  0  0  0  0
    7.1855    0.4217  -21.9290 H   0  0  0  0  0  0
   -2.8921    3.5190  -28.4805 H   0  0  0  0  0  0
    3.1970    8.1720  -22.8570 O   0  0  0  0  0  0
    8.6840    7.8790  -21.8060 O   0  0  0  0  0  0
    5.3330    8.5480  -21.1700 N   0  3  1  0  0  0
    6.3650    8.6510  -20.0890 C   0  0  0  0  0  0
    6.0790    9.3650  -22.1800 C   0  0  0  0  0  0
    4.9640    7.1510  -21.5860 C   0  0  0  0  0  0
    8.5430    9.2480  -21.3940 C   0  0  0  0  0  0
    7.0910    9.6310  -21.0410 C   0  0  2  0  0  0
    3.7540    7.1590  -22.4910 C   0  0  0  0  0  0
    9.5948    7.7010  -22.0090 H   0  0  0  0  0  0
    4.5015    9.0427  -20.8872 H   0  0  0  0  0  0
    6.9360    7.7109  -20.1020 H   0  0  0  0  0  0
    5.9240    9.2571  -19.2839 H   0  0  0  0  0  0
    5.5080   10.2941  -22.3240 H   0  0  0  0  0  0
    6.5567    8.6564  -22.8726 H   0  0  0  0  0  0
    4.7490    6.5471  -20.6921 H   0  0  0  0  0  0
    5.8126    6.6902  -22.1128 H   0  0  0  0  0  0
    8.9120    9.9090  -22.1920 H   0  0  0  0  0  0
    9.1919    9.4370  -20.5261 H   0  0  0  0  0  0
    7.0250   10.6677  -20.6791 H   0  0  0  0  0  0
  1  2  2  0  0  0
  1  3  1  0  0  0
  1 34  1  0  0  0
  2  6  1  0  0  0
  2 35  1  0  0  0
  3  5  2  0  0  0
  3 27  1  0  0  0
  4  5  1  0  0  0
  4  6  2  0  0  0
  4 18  1  0  0  0
  5 24  1  0  0  0
  6 10  1  0  0  0
  7 10  2  0  0  0
  7 23  1  0  0  0
  7 33  1  0  0  0
  8 21  1  0  0  0
  8 22  1  0  0  0
  8 36  1  0  0  0
  8 37  1  0  0  0
  9 21  1  0  0  0
  9 31  1  0  0  0
  9 38  1  0  0  0
  9 39  1  0  0  0
 10 40  1  0  0  0
 11 12  1  0  0  0
 11 14  2  0  0  0
 11 15  1  0  0  0
 12 17  1  0  0  0
 12 28  2  0  0  0
 13 28  1  0  0  0
 13 29  2  0  0  0
 13 60  1  0  0  0
 14 29  1  0  0  0
 14 31  1  0  0  0
 15 30  2  0  0  0
 15 41  1  0  0  0
 16 17  2  0  0  0
 16 18  1  0  0  0
 16 30  1  0  0  0
 17 26  1  0  0  0
 18 23  2  0  0  0
 19 20  1  0  0  0
 19 31  1  0  0  0
 19 42  1  0  0  0
 19 43  1  0  0  0
 20 22  1  0  0  0
 20 32  1  0  0  0
 20 44  1  0  0  0
 21 32  1  0  0  0
 21 45  1  0  0  0
 22 46  1  0  0  0
 22 47  1  0  0  0
 23 48  1  0  0  0
 24 25  3  0  0  0
 25 49  1  0  0  0
 32 50  1  0  0  0
 33 51  1  0  0  0
 52 60  2  0  0  0
 53 58  1  0  0  0
 53 61  1  0  0  0
 54 55  1  0  0  0
 54 56  1  0  0  0
 54 57  1  0  0  0
 54 62  1  0  0  0
 55 59  1  0  0  0
 55 63  1  0  0  0
 55 64  1  0  0  0
 56 59  1  0  0  0
 56 65  1  0  0  0
 56 66  1  0  0  0
 57 60  1  0  0  0
 57 67  1  0  0  0
 57 68  1  0  0  0
 58 59  1  0  0  0
 58 69  1  0  0  0
 58 70  1  0  0  0
 59 71  1  0  0  0
M  CHG  1  54   1
M  END
> <s_m_entry_id>
486

> <s_m_entry_name>
000000486.1

> <s_m_Source_Path>
/Users/zaksoul/Documents/2

> <s_m_Source_File>
000000486.mol2

> <i_m_Source_File_Index>
1

$$$$
No_0_510
                    3D
 Schrodinger Suite 2022-4.
 67 73  0  0  1  0            999 V2000
   -5.0520    3.5560  -22.2100 C   0  0  0  0  0  0
   -5.2890    3.7500  -23.5500 C   0  0  0  0  0  0
   -3.8180    3.3270  -21.8400 C   0  0  0  0  0  0
   -2.8760    3.4910  -23.9820 C   0  0  0  0  0  0
   -2.7450    3.2380  -22.5600 C   0  0  0  0  0  0
   -4.2160    3.7280  -24.5340 C   0  0  0  0  0  0
   -3.4070    3.7850  -26.7130 C   0  0  0  0  0  0
    6.2030    3.2210  -21.2120 C   0  0  0  0  0  0
    6.1240    3.3820  -23.7630 C   0  0  0  0  0  0
   -4.4360    3.8610  -25.8750 C   0  0  0  0  0  0
    2.3300    3.8460  -23.8700 C   0  0  0  0  0  0
    1.4770    4.9340  -23.5830 C   0  0  0  0  0  0
    3.2310    6.1630  -22.8490 C   0  0  0  0  0  0
    3.7170    4.0650  -23.5210 C   0  0  0  0  0  0
    1.8250    2.7230  -24.5540 C   0  0  0  0  0  0
   -0.3220    3.4880  -24.4900 C   0  0  0  0  0  0
    0.1630    4.7150  -23.8690 C   0  0  0  0  0  0
   -1.7650    3.4650  -24.8810 C   0  0  0  0  0  0
    4.3710    1.5790  -23.2340 C   0  0  0  0  0  0
    5.2840    1.2340  -22.0670 C   0  0  2  0  0  0
    6.8550    2.8140  -22.5510 C   0  0  2  0  0  0
    5.2140    2.2250  -20.8930 C   0  0  0  0  0  0
   -2.0590    3.6300  -26.3150 C   0  0  0  0  0  0
   -1.4070    2.8500  -21.9310 C   0  0  0  0  0  0
   -0.3820    2.5200  -21.4030 C   0  0  0  0  0  0
   -0.7110    5.7380  -23.5370 F   0  0  0  0  0  0
   -3.6360    3.0770  -20.4550 F   0  0  0  0  0  0
    1.9150    6.0990  -23.0310 N   0  0  0  0  0  0
    4.1540    5.2220  -23.0550 N   0  0  0  0  0  0
    0.5290    2.6070  -24.8920 N   0  0  0  0  0  0
    4.6630    3.0390  -23.6830 N   0  0  0  0  0  0
    6.7000    1.3360  -22.5140 N   0  0  1  0  0  0
   -3.5450    3.8080  -28.1060 O   0  0  0  0  0  0
   -5.8731    3.5951  -21.5034 H   0  0  0  0  0  0
   -6.2992    3.9246  -23.9021 H   0  0  0  0  0  0
    5.7125    4.1990  -21.3260 H   0  0  0  0  0  0
    6.9695    3.2422  -20.4233 H   0  0  0  0  0  0
    6.5508    2.9542  -24.6822 H   0  0  0  0  0  0
    6.2441    4.4752  -23.7842 H   0  0  0  0  0  0
   -5.4416    4.0266  -26.2443 H   0  0  0  0  0  0
    2.4895    1.9109  -24.8260 H   0  0  0  0  0  0
    3.3215    1.4963  -22.9151 H   0  0  0  0  0  0
    4.5688    0.8917  -24.0697 H   0  0  0  0  0  0
    5.0730    0.2143  -21.7126 H   0  0  0  0  0  0
    7.9182    3.0957  -22.5692 H   0  0  0  0  0  0
    4.2191    2.6937  -20.8698 H   0  0  0  0  0  0
    5.5035    1.7105  -19.9649 H   0  0  0  0  0  0
   -1.2703    3.6330  -27.0586 H   0  0  0  0  0  0
    0.5206    2.2311  -20.9372 H   0  0  0  0  0  0
    7.3408    0.8471  -21.7951 H   0  0  0  0  0  0
   -2.6886    3.7417  -28.5119 H   0  0  0  0  0  0
    3.1690    8.5000  -22.7270 O   0  0  0  0  0  0
    5.4730    8.8350  -21.0880 N   0  0  0  0  0  0
    3.7440    7.4970  -22.3620 C   0  0  0  0  0  0
    4.6990   11.0300  -20.9530 C   0  0  0  0  0  0
    5.5080   10.9870  -21.9840 C   0  0  0  0  0  0
    6.0470    9.6100  -22.2510 C   0  0  0  0  0  0
    4.5130    9.6920  -20.2920 C   0  0  0  0  0  0
    4.9560    7.4690  -21.4600 C   0  0  0  0  0  0
    4.2414   11.9732  -20.6582 H   0  0  0  0  0  0
    5.7229   11.8955  -22.5447 H   0  0  0  0  0  0
    5.6150    9.2290  -23.1881 H   0  0  0  0  0  0
    7.1435    9.6290  -22.1660 H   0  0  0  0  0  0
    4.8612    9.7520  -19.2503 H   0  0  0  0  0  0
    3.4854    9.3421  -20.4699 H   0  0  0  0  0  0
    4.7170    6.9070  -20.5451 H   0  0  0  0  0  0
    5.7588    6.8951  -21.9459 H   0  0  0  0  0  0
  1  2  2  0  0  0
  1  3  1  0  0  0
  1 34  1  0  0  0
  2  6  1  0  0  0
  2 35  1  0  0  0
  3  5  2  0  0  0
  3 27  1  0  0  0
  4  5  1  0  0  0
  4  6  2  0  0  0
  4 18  1  0  0  0
  5 24  1  0  0  0
  6 10  1  0  0  0
  7 10  2  0  0  0
  7 23  1  0  0  0
  7 33  1  0  0  0
  8 21  1  0  0  0
  8 22  1  0  0  0
  8 36  1  0  0  0
  8 37  1  0  0  0
  9 21  1  0  0  0
  9 31  1  0  0  0
  9 38  1  0  0  0
  9 39  1  0  0  0
 10 40  1  0  0  0
 11 12  1  0  0  0
 11 14  2  0  0  0
 11 15  1  0  0  0
 12 17  1  0  0  0
 12 28  2  0  0  0
 13 28  1  0  0  0
 13 29  2  0  0  0
 13 54  1  0  0  0
 14 29  1  0  0  0
 14 31  1  0  0  0
 15 30  2  0  0  0
 15 41  1  0  0  0
 16 17  2  0  0  0
 16 18  1  0  0  0
 16 30  1  0  0  0
 17 26  1  0  0  0
 18 23  2  0  0  0
 19 20  1  0  0  0
 19 31  1  0  0  0
 19 42  1  0  0  0
 19 43  1  0  0  0
 20 22  1  0  0  0
 20 32  1  0  0  0
 20 44  1  0  0  0
 21 32  1  0  0  0
 21 45  1  0  0  0
 22 46  1  0  0  0
 22 47  1  0  0  0
 23 48  1  0  0  0
 24 25  3  0  0  0
 25 49  1  0  0  0
 32 50  1  0  0  0
 33 51  1  0  0  0
 52 54  2  0  0  0
 53 57  1  0  0  0
 53 58  1  0  0  0
 53 59  1  0  0  0
 54 59  1  0  0  0
 55 56  2  0  0  0
 55 58  1  0  0  0
 55 60  1  0  0  0
 56 57  1  0  0  0
 56 61  1  0  0  0
 57 62  1  0  0  0
 57 63  1  0  0  0
 58 64  1  0  0  0
 58 65  1  0  0  0
 59 66  1  0  0  0
 59 67  1  0  0  0
M  END
> <s_m_entry_id>
487

> <s_m_entry_name>
000000487.1

> <s_m_Source_Path>
/Users/zaksoul/Documents/2

> <s_m_Source_File>
000000487.mol2

> <i_m_Source_File_Index>
1

$$$$
No_0_511
                    3D
 Schrodinger Suite 2022-4.
 66 72  0  0  1  0            999 V2000
   -5.0400    3.2840  -22.1190 C   0  0  0  0  0  0
   -5.3100    3.5170  -23.4470 C   0  0  0  0  0  0
   -3.7990    3.0280  -21.7900 C   0  0  0  0  0  0
   -2.9140    3.2350  -23.9510 C   0  0  0  0  0  0
   -2.7480    2.9430  -22.5400 C   0  0  0  0  0  0
   -4.2640    3.5060  -24.4610 C   0  0  0  0  0  0
   -3.5140    3.6080  -26.6580 C   0  0  0  0  0  0
    6.2310    2.7590  -21.4390 C   0  0  0  0  0  0
    6.0860    2.9880  -23.9820 C   0  0  0  0  0  0
   -4.5190    3.6770  -25.7900 C   0  0  0  0  0  0
    2.2980    3.5110  -23.9740 C   0  0  0  0  0  0
    1.4700    4.6030  -23.6350 C   0  0  0  0  0  0
    3.2620    5.7860  -22.9180 C   0  0  0  0  0  0
    3.6980    3.7000  -23.6570 C   0  0  0  0  0  0
    1.7580    2.4130  -24.6720 C   0  0  0  0  0  0
   -0.3750    3.2080  -24.5290 C   0  0  0  0  0  0
    0.1450    4.4100  -23.8900 C   0  0  0  0  0  0
   -1.8280    3.2160  -24.8810 C   0  0  0  0  0  0
    4.3210    1.1980  -23.4520 C   0  0  0  0  0  0
    5.2590    0.8090  -22.3200 C   0  0  2  0  0  0
    6.8410    2.3780  -22.8060 C   0  0  2  0  0  0
    5.2370    1.7690  -21.1190 C   0  0  0  0  0  0
   -2.1580    3.4230  -26.3020 C   0  0  0  0  0  0
   -1.4000    2.5180  -21.9590 C   0  0  0  0  0  0
   -0.3660    2.1600  -21.4670 C   0  0  0  0  0  0
   -0.7030    5.4370  -23.5080 F   0  0  0  0  0  0
   -3.5840    2.7400  -20.4170 F   0  0  0  0  0  0
    1.9410    5.7460  -23.0650 N   0  0  0  0  0  0
    4.1640    4.8380  -23.1730 N   0  0  0  0  0  0
    0.4510    2.3250  -24.9770 N   0  0  0  0  0  0
    4.6230    2.6650  -23.8710 N   0  0  0  0  0  0
    6.6640    0.9020  -22.8020 N   0  0  1  0  0  0
   -3.6890    3.6690  -28.0460 O   0  0  0  0  0  0
   -5.8409    3.3171  -21.3893 H   0  0  0  0  0  0
   -6.3265    3.7167  -23.7661 H   0  0  0  0  0  0
    5.7536    3.7471  -21.5147 H   0  0  0  0  0  0
    7.0193    2.7479  -20.6719 H   0  0  0  0  0  0
    6.4814    2.5784  -24.9232 H   0  0  0  0  0  0
    6.2223    4.0795  -23.9780 H   0  0  0  0  0  0
   -5.5310    3.8678  -26.1283 H   0  0  0  0  0  0
    2.4018    1.5984  -24.9834 H   0  0  0  0  0  0
    3.2792    1.1224  -23.1071 H   0  0  0  0  0  0
    4.4855    0.5297  -24.3101 H   0  0  0  0  0  0
    5.0420   -0.2163  -21.9860 H   0  0  0  0  0  0
    7.9077    2.6434  -22.8464 H   0  0  0  0  0  0
    4.2503    2.2512  -21.0564 H   0  0  0  0  0  0
    5.5428    1.2260  -20.2126 H   0  0  0  0  0  0
   -1.3895    3.4340  -27.0665 H   0  0  0  0  0  0
    0.5445    1.8448  -21.0348 H   0  0  0  0  0  0
    7.3164    0.3844  -22.1143 H   0  0  0  0  0  0
   -2.8448    3.6017  -28.4765 H   0  0  0  0  0  0
    4.8920    7.0710  -21.8390 O   0  0  0  0  0  0
    5.2860   10.1730  -21.4340 N   0  3  0  0  0  0
    3.0550    8.1980  -22.6200 N   0  0  0  0  0  0
    4.0340    9.7280  -20.7480 C   0  0  0  0  0  0
    4.7900   10.0270  -22.8370 C   0  0  0  0  0  0
    3.4790    9.5380  -22.1800 C   0  0  0  0  0  0
    3.8080    7.0990  -22.4100 C   0  0  0  0  0  0
    6.0058    9.4862  -21.2720 H   0  0  0  0  0  0
    5.4310   11.1519  -21.2420 H   0  0  0  0  0  0
    2.1753    8.1180  -23.0888 H   0  0  0  0  0  0
    3.5581   10.6319  -20.3400 H   0  0  0  0  0  0
    4.2320    8.7222  -20.3491 H   0  0  0  0  0  0
    5.2842    9.1386  -23.2572 H   0  0  0  0  0  0
    4.5970   11.0429  -23.2120 H   0  0  0  0  0  0
    2.6745   10.2645  -22.3669 H   0  0  0  0  0  0
  1  2  2  0  0  0
  1  3  1  0  0  0
  1 34  1  0  0  0
  2  6  1  0  0  0
  2 35  1  0  0  0
  3  5  2  0  0  0
  3 27  1  0  0  0
  4  5  1  0  0  0
  4  6  2  0  0  0
  4 18  1  0  0  0
  5 24  1  0  0  0
  6 10  1  0  0  0
  7 10  2  0  0  0
  7 23  1  0  0  0
  7 33  1  0  0  0
  8 21  1  0  0  0
  8 22  1  0  0  0
  8 36  1  0  0  0
  8 37  1  0  0  0
  9 21  1  0  0  0
  9 31  1  0  0  0
  9 38  1  0  0  0
  9 39  1  0  0  0
 10 40  1  0  0  0
 11 12  1  0  0  0
 11 14  2  0  0  0
 11 15  1  0  0  0
 12 17  1  0  0  0
 12 28  2  0  0  0
 13 28  1  0  0  0
 13 29  2  0  0  0
 13 58  1  0  0  0
 14 29  1  0  0  0
 14 31  1  0  0  0
 15 30  2  0  0  0
 15 41  1  0  0  0
 16 17  2  0  0  0
 16 18  1  0  0  0
 16 30  1  0  0  0
 17 26  1  0  0  0
 18 23  2  0  0  0
 19 20  1  0  0  0
 19 31  1  0  0  0
 19 42  1  0  0  0
 19 43  1  0  0  0
 20 22  1  0  0  0
 20 32  1  0  0  0
 20 44  1  0  0  0
 21 32  1  0  0  0
 21 45  1  0  0  0
 22 46  1  0  0  0
 22 47  1  0  0  0
 23 48  1  0  0  0
 24 25  3  0  0  0
 25 49  1  0  0  0
 32 50  1  0  0  0
 33 51  1  0  0  0
 52 58  2  0  0  0
 53 55  1  0  0  0
 53 56  1  0  0  0
 53 59  1  0  0  0
 53 60  1  0  0  0
 54 57  1  0  0  0
 54 58  1  0  0  0
 54 61  1  0  0  0
 55 57  1  0  0  0
 55 62  1  0  0  0
 55 63  1  0  0  0
 56 57  1  0  0  0
 56 64  1  0  0  0
 56 65  1  0  0  0
 57 66  1  0  0  0
M  CHG  1  53   1
M  END
> <s_m_entry_id>
488

> <s_m_entry_name>
000000488.1

> <s_m_Source_Path>
/Users/zaksoul/Documents/2

> <s_m_Source_File>
000000488.mol2

> <i_m_Source_File_Index>
1

$$$$
No_0_512
                    3D
 Schrodinger Suite 2022-4.
 66 72  0  0  1  0            999 V2000
   -5.1470    3.3440  -22.2870 C   0  0  0  0  0  0
   -5.3830    3.5530  -23.6250 C   0  0  0  0  0  0
   -3.9120    3.1150  -21.9180 C   0  0  0  0  0  0
   -2.9680    3.3060  -24.0570 C   0  0  0  0  0  0
   -2.8380    3.0380  -22.6370 C   0  0  0  0  0  0
   -4.3080    3.5460  -24.6080 C   0  0  0  0  0  0
   -3.4970    3.6290  -26.7850 C   0  0  0  0  0  0
    6.1080    3.0310  -21.2790 C   0  0  0  0  0  0
    6.0320    3.2200  -23.8280 C   0  0  0  0  0  0
   -4.5280    3.6930  -25.9470 C   0  0  0  0  0  0
    2.2360    3.6750  -23.9350 C   0  0  0  0  0  0
    1.3800    4.7570  -23.6360 C   0  0  0  0  0  0
    3.1290    5.9830  -22.8860 C   0  0  0  0  0  0
    3.6230    3.8940  -23.5810 C   0  0  0  0  0  0
    1.7360    2.5580  -24.6310 C   0  0  0  0  0  0
   -0.4140    3.3170  -24.5620 C   0  0  0  0  0  0
    0.0660    4.5370  -23.9260 C   0  0  0  0  0  0
   -1.8570    3.2940  -24.9540 C   0  0  0  0  0  0
    4.2830    1.4070  -23.3210 C   0  0  0  0  0  0
    5.1950    1.0510  -22.1570 C   0  0  2  0  0  0
    6.7620    2.6410  -22.6220 C   0  0  2  0  0  0
    5.1220    2.0290  -20.9720 C   0  0  0  0  0  0
   -2.1490    3.4730  -26.3870 C   0  0  0  0  0  0
   -1.5000    2.6460  -22.0110 C   0  0  0  0  0  0
   -0.4750    2.3140  -21.4850 C   0  0  0  0  0  0
   -0.8100    5.5540  -23.5840 F   0  0  0  0  0  0
   -3.7320    2.8510  -20.5360 F   0  0  0  0  0  0
    1.8140    5.9170  -23.0700 N   0  0  0  0  0  0
    4.0550    5.0470  -23.1010 N   0  0  0  0  0  0
    0.4400    2.4430  -24.9730 N   0  0  0  0  0  0
    4.5710    2.8730  -23.7540 N   0  0  0  0  0  0
    6.6120    1.1630  -22.6010 N   0  0  1  0  0  0
   -3.6340    3.6670  -28.1780 O   0  0  0  0  0  0
   -5.9687    3.3731  -21.5806 H   0  0  0  0  0  0
   -6.3932    3.7296  -23.9761 H   0  0  0  0  0  0
    5.6154    4.0091  -21.3820 H   0  0  0  0  0  0
    6.8730    3.0451  -20.4887 H   0  0  0  0  0  0
    6.4613    2.8038  -24.7513 H   0  0  0  0  0  0
    6.1480    4.3138  -23.8361 H   0  0  0  0  0  0
   -5.5332    3.8607  -26.3165 H   0  0  0  0  0  0
    2.4027    1.7508  -24.9121 H   0  0  0  0  0  0
    3.2334    1.3182  -23.0041 H   0  0  0  0  0  0
    4.4849    0.7297  -24.1639 H   0  0  0  0  0  0
    4.9871    0.0268  -21.8139 H   0  0  0  0  0  0
    7.8245    2.9255  -22.6351 H   0  0  0  0  0  0
    4.1257    2.4944  -20.9447 H   0  0  0  0  0  0
    5.4105    1.5045  -20.0491 H   0  0  0  0  0  0
   -1.3594    3.4881  -27.1295 H   0  0  0  0  0  0
    0.4278    2.0211  -21.0221 H   0  0  0  0  0  0
    7.2531    0.6672  -21.8872 H   0  0  0  0  0  0
   -2.7764    3.6086  -28.5826 H   0  0  0  0  0  0
    3.0760    8.3200  -22.7980 O   0  0  0  0  0  0
    4.5880   10.4550  -21.0390 N   0  3  0  0  0  0
    4.6740    7.2850  -21.5210 N   0  0  0  0  0  0
    5.5700    9.7080  -21.8840 C   0  0  0  0  0  0
    4.2670    9.3380  -20.0990 C   0  0  0  0  0  0
    5.2570    8.5130  -20.9520 C   0  0  0  0  0  0
    3.6380    7.3130  -22.3830 C   0  0  0  0  0  0
    3.7711   10.6570  -21.5939 H   0  0  0  0  0  0
    5.0789   11.1748  -20.5321 H   0  0  0  0  0  0
    5.0739    6.4103  -21.2471 H   0  0  0  0  0  0
    6.5698   10.0729  -21.6061 H   0  0  0  0  0  0
    5.0708    9.5019  -22.8423 H   0  0  0  0  0  0
    3.2569    8.9870  -20.3570 H   0  0  0  0  0  0
    4.7769    9.5650  -19.1511 H   0  0  0  0  0  0
    6.1457    8.2621  -20.3542 H   0  0  0  0  0  0
  1  2  2  0  0  0
  1  3  1  0  0  0
  1 34  1  0  0  0
  2  6  1  0  0  0
  2 35  1  0  0  0
  3  5  2  0  0  0
  3 27  1  0  0  0
  4  5  1  0  0  0
  4  6  2  0  0  0
  4 18  1  0  0  0
  5 24  1  0  0  0
  6 10  1  0  0  0
  7 10  2  0  0  0
  7 23  1  0  0  0
  7 33  1  0  0  0
  8 21  1  0  0  0
  8 22  1  0  0  0
  8 36  1  0  0  0
  8 37  1  0  0  0
  9 21  1  0  0  0
  9 31  1  0  0  0
  9 38  1  0  0  0
  9 39  1  0  0  0
 10 40  1  0  0  0
 11 12  1  0  0  0
 11 14  2  0  0  0
 11 15  1  0  0  0
 12 17  1  0  0  0
 12 28  2  0  0  0
 13 28  1  0  0  0
 13 29  2  0  0  0
 13 58  1  0  0  0
 14 29  1  0  0  0
 14 31  1  0  0  0
 15 30  2  0  0  0
 15 41  1  0  0  0
 16 17  2  0  0  0
 16 18  1  0  0  0
 16 30  1  0  0  0
 17 26  1  0  0  0
 18 23  2  0  0  0
 19 20  1  0  0  0
 19 31  1  0  0  0
 19 42  1  0  0  0
 19 43  1  0  0  0
 20 22  1  0  0  0
 20 32  1  0  0  0
 20 44  1  0  0  0
 21 32  1  0  0  0
 21 45  1  0  0  0
 22 46  1  0  0  0
 22 47  1  0  0  0
 23 48  1  0  0  0
 24 25  3  0  0  0
 25 49  1  0  0  0
 32 50  1  0  0  0
 33 51  1  0  0  0
 52 58  2  0  0  0
 53 55  1  0  0  0
 53 56  1  0  0  0
 53 59  1  0  0  0
 53 60  1  0  0  0
 54 57  1  0  0  0
 54 58  1  0  0  0
 54 61  1  0  0  0
 55 57  1  0  0  0
 55 62  1  0  0  0
 55 63  1  0  0  0
 56 57  1  0  0  0
 56 64  1  0  0  0
 56 65  1  0  0  0
 57 66  1  0  0  0
M  CHG  1  53   1
M  END
> <s_m_entry_id>
489

> <s_m_entry_name>
000000489.1

> <s_m_Source_Path>
/Users/zaksoul/Documents/2

> <s_m_Source_File>
000000489.mol2

> <i_m_Source_File_Index>
1

$$$$
No_0_513
                    3D
 Schrodinger Suite 2022-4.
 70 76  0  0  1  0            999 V2000
   -5.1770    3.7220  -22.3100 C   0  0  0  0  0  0
   -5.4060    3.9380  -23.6480 C   0  0  0  0  0  0
   -3.9490    3.4580  -21.9400 C   0  0  0  0  0  0
   -2.9980    3.6240  -24.0770 C   0  0  0  0  0  0
   -2.8780    3.3510  -22.6580 C   0  0  0  0  0  0
   -4.3300    3.9020  -24.6300 C   0  0  0  0  0  0
   -3.5140    3.9640  -26.8050 C   0  0  0  0  0  0
    6.0630    3.0930  -21.2890 C   0  0  0  0  0  0
    5.9960    3.2850  -23.8380 C   0  0  0  0  0  0
   -4.5440    4.0560  -25.9690 C   0  0  0  0  0  0
    2.2140    3.8470  -23.9490 C   0  0  0  0  0  0
    1.3890    4.9520  -23.6510 C   0  0  0  0  0  0
    3.1710    6.1280  -22.8980 C   0  0  0  0  0  0
    3.6060    4.0270  -23.5930 C   0  0  0  0  0  0
    1.6830    2.7450  -24.6470 C   0  0  0  0  0  0
   -0.4440    3.5630  -24.5790 C   0  0  0  0  0  0
    0.0700    4.7700  -23.9420 C   0  0  0  0  0  0
   -1.8860    3.5810  -24.9730 C   0  0  0  0  0  0
    4.1960    1.5210  -23.3340 C   0  0  0  0  0  0
    5.0970    1.1400  -22.1700 C   0  0  2  0  0  0
    6.7080    2.6850  -22.6320 C   0  0  2  0  0  0
    5.0490    2.1180  -20.9840 C   0  0  0  0  0  0
   -2.1720    3.7700  -26.4060 C   0  0  0  0  0  0
   -1.5520    2.9220  -22.0310 C   0  0  0  0  0  0
   -0.5360    2.5600  -21.5030 C   0  0  0  0  0  0
   -0.7780    5.8110  -23.6000 F   0  0  0  0  0  0
   -3.7780    3.1880  -20.5570 F   0  0  0  0  0  0
    1.8540    6.0990  -23.0830 N   0  0  0  0  0  0
    4.0700    5.1670  -23.1120 N   0  0  0  0  0  0
    0.3860    2.6660  -24.9900 N   0  0  0  0  0  0
    4.5260    2.9790  -23.7660 N   0  0  0  0  0  0
    6.5160    1.2110  -22.6120 N   0  0  1  0  0  0
   -3.6490    4.0070  -28.1990 O   0  0  0  0  0  0
   -5.9986    3.7742  -21.6048 H   0  0  0  0  0  0
   -6.4104    4.1429  -24.0005 H   0  0  0  0  0  0
    5.5984    4.0847  -21.3920 H   0  0  0  0  0  0
    6.8276    3.0849  -20.4982 H   0  0  0  0  0  0
    6.4139    2.8580  -24.7616 H   0  0  0  0  0  0
    6.1422    4.3752  -23.8451 H   0  0  0  0  0  0
   -5.5438    4.2517  -26.3394 H   0  0  0  0  0  0
    2.3271    1.9193  -24.9269 H   0  0  0  0  0  0
    3.1438    1.4614  -23.0189 H   0  0  0  0  0  0
    4.3797    0.8397  -24.1778 H   0  0  0  0  0  0
    4.8599    0.1218  -21.8279 H   0  0  0  0  0  0
    7.7782    2.9392  -22.6441 H   0  0  0  0  0  0
    4.0662    2.6114  -20.9578 H   0  0  0  0  0  0
    5.3225    1.5850  -20.0614 H   0  0  0  0  0  0
   -1.3813    3.7630  -27.1475 H   0  0  0  0  0  0
    0.3575    2.2418  -21.0387 H   0  0  0  0  0  0
    7.1426    0.6977  -21.8977 H   0  0  0  0  0  0
   -2.7931    3.9239  -28.6027 H   0  0  0  0  0  0
    7.2800    9.2270  -21.7830 O   0  0  0  0  0  0
    3.1860    8.4680  -22.8050 O   0  0  0  0  0  0
    3.3820    9.7070  -20.2520 N   0  3  0  0  0  0
    4.7620    7.3780  -21.5470 N   0  0  0  0  0  0
    6.9460    8.3000  -20.7520 C   0  0  0  0  0  0
    5.9510    9.5760  -22.1630 C   0  0  0  0  0  0
    4.7780    9.2910  -19.8920 C   0  0  0  0  0  0
    5.4580    8.5860  -21.0780 C   0  0  0  0  0  0
    3.7160    7.4430  -22.3930 C   0  0  0  0  0  0
    2.9541   10.1659  -19.4631 H   0  0  0  0  0  0
    3.4120   10.3421  -21.0342 H   0  0  0  0  0  0
    2.8415    8.8932  -20.5002 H   0  0  0  0  0  0
    5.0861    6.4907  -21.2189 H   0  0  0  0  0  0
    7.1689    8.7877  -19.7916 H   0  0  0  0  0  0
    7.1761    7.2937  -21.1321 H   0  0  0  0  0  0
    5.7590    9.1109  -23.1412 H   0  0  0  0  0  0
    5.7611   10.5923  -21.7873 H   0  0  0  0  0  0
    4.7460    8.6082  -19.0302 H   0  0  0  0  0  0
    5.3631   10.1781  -19.6080 H   0  0  0  0  0  0
  1  2  2  0  0  0
  1  3  1  0  0  0
  1 34  1  0  0  0
  2  6  1  0  0  0
  2 35  1  0  0  0
  3  5  2  0  0  0
  3 27  1  0  0  0
  4  5  1  0  0  0
  4  6  2  0  0  0
  4 18  1  0  0  0
  5 24  1  0  0  0
  6 10  1  0  0  0
  7 10  2  0  0  0
  7 23  1  0  0  0
  7 33  1  0  0  0
  8 21  1  0  0  0
  8 22  1  0  0  0
  8 36  1  0  0  0
  8 37  1  0  0  0
  9 21  1  0  0  0
  9 31  1  0  0  0
  9 38  1  0  0  0
  9 39  1  0  0  0
 10 40  1  0  0  0
 11 12  1  0  0  0
 11 14  2  0  0  0
 11 15  1  0  0  0
 12 17  1  0  0  0
 12 28  2  0  0  0
 13 28  1  0  0  0
 13 29  2  0  0  0
 13 60  1  0  0  0
 14 29  1  0  0  0
 14 31  1  0  0  0
 15 30  2  0  0  0
 15 41  1  0  0  0
 16 17  2  0  0  0
 16 18  1  0  0  0
 16 30  1  0  0  0
 17 26  1  0  0  0
 18 23  2  0  0  0
 19 20  1  0  0  0
 19 31  1  0  0  0
 19 42  1  0  0  0
 19 43  1  0  0  0
 20 22  1  0  0  0
 20 32  1  0  0  0
 20 44  1  0  0  0
 21 32  1  0  0  0
 21 45  1  0  0  0
 22 46  1  0  0  0
 22 47  1  0  0  0
 23 48  1  0  0  0
 24 25  3  0  0  0
 25 49  1  0  0  0
 32 50  1  0  0  0
 33 51  1  0  0  0
 52 56  1  0  0  0
 52 57  1  0  0  0
 53 60  2  0  0  0
 54 58  1  0  0  0
 54 61  1  0  0  0
 54 62  1  0  0  0
 54 63  1  0  0  0
 55 59  1  0  0  0
 55 60  1  0  0  0
 55 64  1  0  0  0
 56 59  1  0  0  0
 56 65  1  0  0  0
 56 66  1  0  0  0
 57 59  1  0  0  0
 57 67  1  0  0  0
 57 68  1  0  0  0
 58 59  1  0  0  0
 58 69  1  0  0  0
 58 70  1  0  0  0
M  CHG  1  54   1
M  END
> <s_m_entry_id>
490

> <s_m_entry_name>
000000490.1

> <s_m_Source_Path>
/Users/zaksoul/Documents/2

> <s_m_Source_File>
000000490.mol2

> <i_m_Source_File_Index>
1

$$$$
No_0_514
                    3D
 Schrodinger Suite 2022-4.
 69 75  0  0  1  0            999 V2000
   -5.2000    3.3930  -22.2340 C   0  0  0  0  0  0
   -5.4230    3.6080  -23.5740 C   0  0  0  0  0  0
   -3.9720    3.1440  -21.8570 C   0  0  0  0  0  0
   -3.0090    3.3250  -23.9880 C   0  0  0  0  0  0
   -2.8940    3.0520  -22.5680 C   0  0  0  0  0  0
   -4.3400    3.5860  -24.5490 C   0  0  0  0  0  0
   -3.5110    3.6620  -26.7190 C   0  0  0  0  0  0
    6.0410    2.9080  -21.1410 C   0  0  0  0  0  0
    5.9870    3.1030  -23.6900 C   0  0  0  0  0  0
   -4.5470    3.7400  -25.8890 C   0  0  0  0  0  0
    2.2000    3.6150  -23.8250 C   0  0  0  0  0  0
    1.3580    4.7090  -23.5310 C   0  0  0  0  0  0
    3.1200    5.9070  -22.7650 C   0  0  0  0  0  0
    3.5870    3.8130  -23.4600 C   0  0  0  0  0  0
    1.6880    2.5070  -24.5280 C   0  0  0  0  0  0
   -0.4500    3.2980  -24.4730 C   0  0  0  0  0  0
    0.0430    4.5100  -23.8310 C   0  0  0  0  0  0
   -1.8910    3.2980  -24.8770 C   0  0  0  0  0  0
    4.2070    1.3150  -23.2000 C   0  0  0  0  0  0
    5.1050    0.9440  -22.0300 C   0  0  2  0  0  0
    6.7000    2.5110  -22.4800 C   0  0  2  0  0  0
    5.0370    1.9200  -20.8440 C   0  0  0  0  0  0
   -2.1690    3.4850  -26.3110 C   0  0  0  0  0  0
   -1.5660    2.6390  -21.9330 C   0  0  0  0  0  0
   -0.5500    2.2900  -21.3990 C   0  0  0  0  0  0
   -0.8200    5.5400  -23.4930 F   0  0  0  0  0  0
   -3.8060    2.8750  -20.4740 F   0  0  0  0  0  0
    1.8050    5.8610  -22.9590 N   0  0  0  0  0  0
    4.0330    4.9580  -22.9750 N   0  0  0  0  0  0
    0.3930    2.4120  -24.8790 N   0  0  0  0  0  0
    4.5210    2.7770  -23.6280 N   0  0  0  0  0  0
    6.5270    1.0340  -22.4630 N   0  0  1  0  0  0
   -3.6370    3.7050  -28.1130 O   0  0  0  0  0  0
   -6.0271    3.4331  -21.5344 H   0  0  0  0  0  0
   -6.4279    3.7997  -23.9324 H   0  0  0  0  0  0
    5.5635    3.8934  -21.2460 H   0  0  0  0  0  0
    6.8004    2.9090  -20.3452 H   0  0  0  0  0  0
    6.4171    2.6820  -24.6108 H   0  0  0  0  0  0
    6.1202    4.1949  -23.6950 H   0  0  0  0  0  0
   -5.5471    3.9226  -26.2652 H   0  0  0  0  0  0
    2.3449    1.6905  -24.8052 H   0  0  0  0  0  0
    3.1536    1.2413  -22.8920 H   0  0  0  0  0  0
    4.4047    0.6371  -24.0434 H   0  0  0  0  0  0
    4.8791   -0.0778  -21.6911 H   0  0  0  0  0  0
    7.7670    2.7785  -22.4850 H   0  0  0  0  0  0
    4.0477    2.4005  -20.8238 H   0  0  0  0  0  0
    5.3113    1.3895  -19.9202 H   0  0  0  0  0  0
   -1.3739    3.4890  -27.0478 H   0  0  0  0  0  0
    0.3450    1.9830  -20.9300 H   0  0  0  0  0  0
    7.1552    0.5278  -21.7449 H   0  0  0  0  0  0
   -2.7776    3.6338  -28.5116 H   0  0  0  0  0  0
    3.1460    8.2520  -22.7080 O   0  0  0  0  0  0
    8.3050    8.9890  -21.6100 N   0  3  0  0  0  0
    4.6330    7.1870  -21.3440 N   0  0  0  0  0  0
    7.3860    7.9900  -22.2350 C   0  0  0  0  0  0
    7.2550    9.9960  -21.2590 C   0  0  0  0  0  0
    5.2590    8.4230  -20.8510 C   0  0  0  0  0  0
    6.2570    8.9890  -21.8820 C   0  0  0  0  0  0
    3.6440    7.2280  -22.2550 C   0  0  0  0  0  0
    8.8975    9.3767  -22.3274 H   0  0  0  0  0  0
    8.6761    8.5989  -20.7578 H   0  0  0  0  0  0
    4.9510    6.3071  -20.9910 H   0  0  0  0  0  0
    7.3010    7.1499  -21.5300 H   0  0  0  0  0  0
    7.5389    8.0530  -23.3225 H   0  0  0  0  0  0
    7.3580   10.8257  -21.9738 H   0  0  0  0  0  0
    7.1189    9.9470  -20.1685 H   0  0  0  0  0  0
    5.7849    8.2161  -19.9073 H   0  0  0  0  0  0
    4.4800    9.1720  -20.6460 H   0  0  0  0  0  0
    5.7568    9.3912  -22.7754 H   0  0  0  0  0  0
  1  2  2  0  0  0
  1  3  1  0  0  0
  1 34  1  0  0  0
  2  6  1  0  0  0
  2 35  1  0  0  0
  3  5  2  0  0  0
  3 27  1  0  0  0
  4  5  1  0  0  0
  4  6  2  0  0  0
  4 18  1  0  0  0
  5 24  1  0  0  0
  6 10  1  0  0  0
  7 10  2  0  0  0
  7 23  1  0  0  0
  7 33  1  0  0  0
  8 21  1  0  0  0
  8 22  1  0  0  0
  8 36  1  0  0  0
  8 37  1  0  0  0
  9 21  1  0  0  0
  9 31  1  0  0  0
  9 38  1  0  0  0
  9 39  1  0  0  0
 10 40  1  0  0  0
 11 12  1  0  0  0
 11 14  2  0  0  0
 11 15  1  0  0  0
 12 17  1  0  0  0
 12 28  2  0  0  0
 13 28  1  0  0  0
 13 29  2  0  0  0
 13 59  1  0  0  0
 14 29  1  0  0  0
 14 31  1  0  0  0
 15 30  2  0  0  0
 15 41  1  0  0  0
 16 17  2  0  0  0
 16 18  1  0  0  0
 16 30  1  0  0  0
 17 26  1  0  0  0
 18 23  2  0  0  0
 19 20  1  0  0  0
 19 31  1  0  0  0
 19 42  1  0  0  0
 19 43  1  0  0  0
 20 22  1  0  0  0
 20 32  1  0  0  0
 20 44  1  0  0  0
 21 32  1  0  0  0
 21 45  1  0  0  0
 22 46  1  0  0  0
 22 47  1  0  0  0
 23 48  1  0  0  0
 24 25  3  0  0  0
 25 49  1  0  0  0
 32 50  1  0  0  0
 33 51  1  0  0  0
 52 59  2  0  0  0
 53 55  1  0  0  0
 53 56  1  0  0  0
 53 60  1  0  0  0
 53 61  1  0  0  0
 54 57  1  0  0  0
 54 59  1  0  0  0
 54 62  1  0  0  0
 55 58  1  0  0  0
 55 63  1  0  0  0
 55 64  1  0  0  0
 56 58  1  0  0  0
 56 65  1  0  0  0
 56 66  1  0  0  0
 57 58  1  0  0  0
 57 67  1  0  0  0
 57 68  1  0  0  0
 58 69  1  0  0  0
M  CHG  1  53   1
M  END
> <s_m_entry_id>
491

> <s_m_entry_name>
000000491.1

> <s_m_Source_Path>
/Users/zaksoul/Documents/2

> <s_m_Source_File>
000000491.mol2

> <i_m_Source_File_Index>
1

$$$$
No_0_515
                    3D
 Schrodinger Suite 2022-4.
 72 78  0  0  1  0            999 V2000
   -5.0980    3.3670  -22.2050 C   0  0  0  0  0  0
   -5.3470    3.5550  -23.5440 C   0  0  0  0  0  0
   -3.8600    3.1410  -21.8460 C   0  0  0  0  0  0
   -2.9380    3.2950  -23.9970 C   0  0  0  0  0  0
   -2.7940    3.0490  -22.5750 C   0  0  0  0  0  0
   -4.2820    3.5290  -24.5380 C   0  0  0  0  0  0
   -3.4940    3.5760  -26.7240 C   0  0  0  0  0  0
    6.1660    3.0410  -21.3090 C   0  0  0  0  0  0
    6.0640    3.1900  -23.8600 C   0  0  0  0  0  0
   -4.5160    3.6560  -25.8770 C   0  0  0  0  0  0
    2.2690    3.6530  -23.9350 C   0  0  0  0  0  0
    1.4180    4.7410  -23.6450 C   0  0  0  0  0  0
    3.1780    5.9750  -22.9330 C   0  0  0  0  0  0
    3.6590    3.8740  -23.5990 C   0  0  0  0  0  0
    1.7580    2.5260  -24.6080 C   0  0  0  0  0  0
   -0.3880    3.2910  -24.5280 C   0  0  0  0  0  0
    0.1010    4.5200  -23.9170 C   0  0  0  0  0  0
   -1.8350    3.2660  -24.9050 C   0  0  0  0  0  0
    4.3170    1.3890  -23.3060 C   0  0  0  0  0  0
    5.2400    1.0500  -22.1460 C   0  0  2  0  0  0
    6.8060    2.6280  -22.6520 C   0  0  2  0  0  0
    5.1810    2.0460  -20.9760 C   0  0  0  0  0  0
   -2.1420    3.4230  -26.3380 C   0  0  0  0  0  0
   -1.4500    2.6640  -21.9570 C   0  0  0  0  0  0
   -0.4200    2.3370  -21.4360 C   0  0  0  0  0  0
   -0.7690    5.5450  -23.5820 F   0  0  0  0  0  0
   -3.6650    2.8980  -20.4610 F   0  0  0  0  0  0
    1.8610    5.9090  -23.1020 N   0  0  0  0  0  0
    4.1000    5.0330  -23.1420 N   0  0  0  0  0  0
    0.4590    2.4080  -24.9340 N   0  0  0  0  0  0
    4.6040    2.8470  -23.7650 N   0  0  0  0  0  0
    6.6520    1.1500  -22.6060 N   0  0  1  0  0  0
   -3.6450    3.5920  -28.1160 O   0  0  0  0  0  0
   -5.9125    3.4092  -21.4909 H   0  0  0  0  0  0
   -6.3605    3.7286  -23.8872 H   0  0  0  0  0  0
    5.6747    4.0186  -21.4230 H   0  0  0  0  0  0
    6.9401    3.0662  -20.5279 H   0  0  0  0  0  0
    6.4830    2.7579  -24.7807 H   0  0  0  0  0  0
    6.1831    4.2832  -23.8873 H   0  0  0  0  0  0
   -5.5248    3.8196  -26.2384 H   0  0  0  0  0  0
    2.4203    1.7131  -24.8830 H   0  0  0  0  0  0
    3.2705    1.3083  -22.9770 H   0  0  0  0  0  0
    4.5077    0.6979  -24.1403 H   0  0  0  0  0  0
    5.0331    0.0318  -21.7847 H   0  0  0  0  0  0
    7.8689    2.9096  -22.6813 H   0  0  0  0  0  0
    4.1861    2.5142  -20.9467 H   0  0  0  0  0  0
    5.4788    1.5353  -20.0484 H   0  0  0  0  0  0
   -1.3601    3.4240  -27.0888 H   0  0  0  0  0  0
    0.4871    2.0500  -20.9779 H   0  0  0  0  0  0
    7.3002    0.6644  -21.8915 H   0  0  0  0  0  0
   -2.7920    3.5247  -28.5287 H   0  0  0  0  0  0
    3.1340    8.3140  -22.8790 O   0  0  0  0  0  0
    8.2090    9.7490  -21.9430 N   0  3  2  0  0  0
    4.7410    7.3020  -21.6080 N   0  0  0  0  0  0
    7.5020    8.5530  -22.4990 C   0  0  0  0  0  0
    7.5810    9.6890  -20.5860 C   0  0  0  0  0  0
    5.3290    8.5540  -21.1100 C   0  0  0  0  0  0
    7.9810   11.0310  -22.6940 C   0  0  0  0  0  0
    6.8650    8.4160  -21.0950 C   0  0  1  0  0  0
    3.6950    7.3110  -22.4560 C   0  0  0  0  0  0
    9.1973    9.5629  -21.8740 H   0  0  0  0  0  0
    5.1320    6.4329  -21.3050 H   0  0  0  0  0  0
    8.2507    7.7523  -22.5900 H   0  0  0  0  0  0
    6.7169    8.9280  -23.1721 H   0  0  0  0  0  0
    6.8255   10.4875  -20.5470 H   0  0  0  0  0  0
    8.3619    9.3590  -19.8851 H   0  0  0  0  0  0
    4.9692    8.7469  -20.0886 H   0  0  0  0  0  0
    5.0421    9.3837  -21.7728 H   0  0  0  0  0  0
    8.5399   11.8449  -22.2091 H   0  0  0  0  0  0
    8.3272   10.9159  -23.7317 H   0  0  0  0  0  0
    6.9077   11.2718  -22.6910 H   0  0  0  0  0  0
    7.1993    7.5093  -20.5696 H   0  0  0  0  0  0
  1  2  2  0  0  0
  1  3  1  0  0  0
  1 34  1  0  0  0
  2  6  1  0  0  0
  2 35  1  0  0  0
  3  5  2  0  0  0
  3 27  1  0  0  0
  4  5  1  0  0  0
  4  6  2  0  0  0
  4 18  1  0  0  0
  5 24  1  0  0  0
  6 10  1  0  0  0
  7 10  2  0  0  0
  7 23  1  0  0  0
  7 33  1  0  0  0
  8 21  1  0  0  0
  8 22  1  0  0  0
  8 36  1  0  0  0
  8 37  1  0  0  0
  9 21  1  0  0  0
  9 31  1  0  0  0
  9 38  1  0  0  0
  9 39  1  0  0  0
 10 40  1  0  0  0
 11 12  1  0  0  0
 11 14  2  0  0  0
 11 15  1  0  0  0
 12 17  1  0  0  0
 12 28  2  0  0  0
 13 28  1  0  0  0
 13 29  2  0  0  0
 13 60  1  0  0  0
 14 29  1  0  0  0
 14 31  1  0  0  0
 15 30  2  0  0  0
 15 41  1  0  0  0
 16 17  2  0  0  0
 16 18  1  0  0  0
 16 30  1  0  0  0
 17 26  1  0  0  0
 18 23  2  0  0  0
 19 20  1  0  0  0
 19 31  1  0  0  0
 19 42  1  0  0  0
 19 43  1  0  0  0
 20 22  1  0  0  0
 20 32  1  0  0  0
 20 44  1  0  0  0
 21 32  1  0  0  0
 21 45  1  0  0  0
 22 46  1  0  0  0
 22 47  1  0  0  0
 23 48  1  0  0  0
 24 25  3  0  0  0
 25 49  1  0  0  0
 32 50  1  0  0  0
 33 51  1  0  0  0
 52 60  2  0  0  0
 53 55  1  0  0  0
 53 56  1  0  0  0
 53 58  1  0  0  0
 53 61  1  0  0  0
 54 57  1  0  0  0
 54 60  1  0  0  0
 54 62  1  0  0  0
 55 59  1  0  0  0
 55 63  1  0  0  0
 55 64  1  0  0  0
 56 59  1  0  0  0
 56 65  1  0  0  0
 56 66  1  0  0  0
 57 59  1  0  0  0
 57 67  1  0  0  0
 57 68  1  0  0  0
 58 69  1  0  0  0
 58 70  1  0  0  0
 58 71  1  0  0  0
 59 72  1  0  0  0
M  CHG  1  53   1
M  END
> <s_m_entry_id>
492

> <s_m_entry_name>
000000492.1

> <s_m_Source_Path>
/Users/zaksoul/Documents/2

> <s_m_Source_File>
000000492.mol2

> <i_m_Source_File_Index>
1

$$$$
No_0_516
                    3D
 Schrodinger Suite 2022-4.
 73 79  0  0  1  0            999 V2000
   -5.1740    3.4630  -21.9920 C   0  0  0  0  0  0
   -5.4070    3.6780  -23.3290 C   0  0  0  0  0  0
   -3.9440    3.2010  -21.6260 C   0  0  0  0  0  0
   -3.0010    3.3650  -23.7670 C   0  0  0  0  0  0
   -2.8750    3.0940  -22.3480 C   0  0  0  0  0  0
   -4.3350    3.6410  -24.3150 C   0  0  0  0  0  0
   -3.5280    3.7020  -26.4940 C   0  0  0  0  0  0
    6.0710    2.8450  -21.0120 C   0  0  0  0  0  0
    5.9940    3.0350  -23.5610 C   0  0  0  0  0  0
   -4.5540    3.7940  -25.6530 C   0  0  0  0  0  0
    2.2120    3.5930  -23.6580 C   0  0  0  0  0  0
    1.3860    4.6980  -23.3580 C   0  0  0  0  0  0
    3.1700    5.8760  -22.6130 C   0  0  0  0  0  0
    3.6050    3.7740  -23.3080 C   0  0  0  0  0  0
    1.6790    2.4900  -24.3530 C   0  0  0  0  0  0
   -0.4490    3.3060  -24.2780 C   0  0  0  0  0  0
    0.0660    4.5140  -23.6440 C   0  0  0  0  0  0
   -1.8930    3.3220  -24.6670 C   0  0  0  0  0  0
    4.1980    1.2700  -23.0490 C   0  0  0  0  0  0
    5.1030    0.8910  -21.8870 C   0  0  2  0  0  0
    6.7120    2.4370  -22.3560 C   0  0  2  0  0  0
    5.0590    1.8700  -20.7020 C   0  0  0  0  0  0
   -2.1830    3.5090  -26.0990 C   0  0  0  0  0  0
   -1.5460    2.6660  -21.7250 C   0  0  0  0  0  0
   -0.5290    2.3070  -21.2010 C   0  0  0  0  0  0
   -0.7810    5.5540  -23.3000 F   0  0  0  0  0  0
   -3.7670    2.9320  -20.2440 F   0  0  0  0  0  0
    1.8530    5.8460  -22.7940 N   0  0  0  0  0  0
    4.0690    4.9160  -22.8300 N   0  0  0  0  0  0
    0.3800    2.4090  -24.6910 N   0  0  0  0  0  0
    4.5250    2.7280  -23.4830 N   0  0  0  0  0  0
    6.5210    0.9630  -22.3340 N   0  0  1  0  0  0
   -3.6670    3.7430  -27.8870 O   0  0  0  0  0  0
   -5.9924    3.5152  -21.2831 H   0  0  0  0  0  0
   -6.4129    3.8808  -23.6784 H   0  0  0  0  0  0
    5.6047    3.8361  -21.1139 H   0  0  0  0  0  0
    6.8387    2.8389  -20.2242 H   0  0  0  0  0  0
    6.4100    2.6069  -24.4849 H   0  0  0  0  0  0
    6.1392    4.1253  -23.5701 H   0  0  0  0  0  0
   -5.5553    3.9876  -26.0202 H   0  0  0  0  0  0
    2.3233    1.6651  -24.6350 H   0  0  0  0  0  0
    3.1473    1.2094  -22.7290 H   0  0  0  0  0  0
    4.3788    0.5873  -23.8923 H   0  0  0  0  0  0
    4.8679   -0.1270  -21.5430 H   0  0  0  0  0  0
    7.7818    2.6923  -22.3732 H   0  0  0  0  0  0
    4.0759    2.3626  -20.6727 H   0  0  0  0  0  0
    5.3364    1.3383  -19.7799 H   0  0  0  0  0  0
   -1.3957    3.5020  -26.8441 H   0  0  0  0  0  0
    0.3667    1.9901  -20.7401 H   0  0  0  0  0  0
    7.1509    0.4508  -21.6218 H   0  0  0  0  0  0
   -2.8125    3.6608  -28.2939 H   0  0  0  0  0  0
    3.2200    8.2160  -22.5670 O   0  0  0  0  0  0
    8.4570    8.8420  -23.8380 N   0  3  0  0  0  0
    4.7180    7.1520  -21.2170 N   0  0  0  0  0  0
    7.6700    7.6300  -21.8070 C   0  0  0  0  0  0
    5.4200    8.3820  -20.8250 C   0  0  0  0  0  0
    8.9000    8.1270  -22.5940 C   0  0  0  0  0  0
    6.5910    9.7460  -22.5290 C   0  0  0  0  0  0
    7.6310   10.0720  -23.5730 C   0  0  0  0  0  0
    6.5560    8.6560  -21.7840 C   0  0  0  0  0  0
    3.7150    7.1920  -22.1120 C   0  0  0  0  0  0
    7.9331    8.2071  -24.4199 H   0  0  0  0  0  0
    9.2654    9.0931  -24.3853 H   0  0  0  0  0  0
    4.9918    6.2795  -20.8122 H   0  0  0  0  0  0
    7.9681    7.3899  -20.7757 H   0  0  0  0  0  0
    7.2998    6.6976  -22.2582 H   0  0  0  0  0  0
    5.8192    8.2679  -19.8064 H   0  0  0  0  0  0
    4.7154    9.2265  -20.8410 H   0  0  0  0  0  0
    9.4837    8.8146  -21.9643 H   0  0  0  0  0  0
    9.5303    7.2685  -22.8691 H   0  0  0  0  0  0
    5.8201   10.5069  -22.4170 H   0  0  0  0  0  0
    7.1328   10.3851  -24.5024 H   0  0  0  0  0  0
    8.2821   10.8772  -23.2019 H   0  0  0  0  0  0
  1  2  2  0  0  0
  1  3  1  0  0  0
  1 34  1  0  0  0
  2  6  1  0  0  0
  2 35  1  0  0  0
  3  5  2  0  0  0
  3 27  1  0  0  0
  4  5  1  0  0  0
  4  6  2  0  0  0
  4 18  1  0  0  0
  5 24  1  0  0  0
  6 10  1  0  0  0
  7 10  2  0  0  0
  7 23  1  0  0  0
  7 33  1  0  0  0
  8 21  1  0  0  0
  8 22  1  0  0  0
  8 36  1  0  0  0
  8 37  1  0  0  0
  9 21  1  0  0  0
  9 31  1  0  0  0
  9 38  1  0  0  0
  9 39  1  0  0  0
 10 40  1  0  0  0
 11 12  1  0  0  0
 11 14  2  0  0  0
 11 15  1  0  0  0
 12 17  1  0  0  0
 12 28  2  0  0  0
 13 28  1  0  0  0
 13 29  2  0  0  0
 13 61  1  0  0  0
 14 29  1  0  0  0
 14 31  1  0  0  0
 15 30  2  0  0  0
 15 41  1  0  0  0
 16 17  2  0  0  0
 16 18  1  0  0  0
 16 30  1  0  0  0
 17 26  1  0  0  0
 18 23  2  0  0  0
 19 20  1  0  0  0
 19 31  1  0  0  0
 19 42  1  0  0  0
 19 43  1  0  0  0
 20 22  1  0  0  0
 20 32  1  0  0  0
 20 44  1  0  0  0
 21 32  1  0  0  0
 21 45  1  0  0  0
 22 46  1  0  0  0
 22 47  1  0  0  0
 23 48  1  0  0  0
 24 25  3  0  0  0
 25 49  1  0  0  0
 32 50  1  0  0  0
 33 51  1  0  0  0
 52 61  2  0  0  0
 53 57  1  0  0  0
 53 59  1  0  0  0
 53 62  1  0  0  0
 53 63  1  0  0  0
 54 56  1  0  0  0
 54 61  1  0  0  0
 54 64  1  0  0  0
 55 57  1  0  0  0
 55 60  1  0  0  0
 55 65  1  0  0  0
 55 66  1  0  0  0
 56 60  1  0  0  0
 56 67  1  0  0  0
 56 68  1  0  0  0
 57 69  1  0  0  0
 57 70  1  0  0  0
 58 59  1  0  0  0
 58 60  2  0  0  0
 58 71  1  0  0  0
 59 72  1  0  0  0
 59 73  1  0  0  0
M  CHG  1  53   1
M  END
> <s_m_entry_id>
493

> <s_m_entry_name>
000000493.1

> <s_m_Source_Path>
/Users/zaksoul/Documents/2

> <s_m_Source_File>
000000493.mol2

> <i_m_Source_File_Index>
1

$$$$
No_0_517
                    3D
 Schrodinger Suite 2022-4.
 69 75  0  0  1  0            999 V2000
   -5.1070    3.4180  -22.2780 C   0  0  0  0  0  0
   -5.3470    3.5990  -23.6200 C   0  0  0  0  0  0
   -3.8690    3.2040  -21.9090 C   0  0  0  0  0  0
   -2.9320    3.3590  -24.0530 C   0  0  0  0  0  0
   -2.7970    3.1190  -22.6290 C   0  0  0  0  0  0
   -4.2750    3.5790  -24.6050 C   0  0  0  0  0  0
   -3.4690    3.6260  -26.7850 C   0  0  0  0  0  0
    6.1520    3.1950  -21.2940 C   0  0  0  0  0  0
    6.0690    3.3340  -23.8460 C   0  0  0  0  0  0
   -4.4990    3.6990  -25.9460 C   0  0  0  0  0  0
    2.2700    3.7630  -23.9520 C   0  0  0  0  0  0
    1.4080    4.8450  -23.6720 C   0  0  0  0  0  0
    3.1510    6.0970  -22.9510 C   0  0  0  0  0  0
    3.6560    3.9980  -23.6060 C   0  0  0  0  0  0
    1.7750    2.6300  -24.6250 C   0  0  0  0  0  0
   -0.3790    3.3760  -24.5650 C   0  0  0  0  0  0
    0.0950    4.6120  -23.9540 C   0  0  0  0  0  0
   -1.8230    3.3360  -24.9530 C   0  0  0  0  0  0
    4.3330    1.5200  -23.2990 C   0  0  0  0  0  0
    5.2500    1.1930  -22.1310 C   0  0  2  0  0  0
    6.8060    2.7830  -22.6310 C   0  0  2  0  0  0
    5.1740    2.1930  -20.9650 C   0  0  0  0  0  0
   -2.1200    3.4860  -26.3880 C   0  0  0  0  0  0
   -1.4550    2.7480  -21.9990 C   0  0  0  0  0  0
   -0.4260    2.4330  -21.4690 C   0  0  0  0  0  0
   -0.7870    5.6300  -23.6290 F   0  0  0  0  0  0
   -3.6840    2.9670  -20.5220 F   0  0  0  0  0  0
    1.8360    6.0180  -23.1300 N   0  0  0  0  0  0
    4.0830    5.1630  -23.1500 N   0  0  0  0  0  0
    0.4800    2.4990  -24.9610 N   0  0  0  0  0  0
    4.6110    2.9790  -23.7610 N   0  0  0  0  0  0
    6.6650    1.3050  -22.5800 N   0  0  1  0  0  0
   -3.6100    3.6350  -28.1790 O   0  0  0  0  0  0
   -5.9272    3.4551  -21.5702 H   0  0  0  0  0  0
   -6.3596    3.7616  -23.9712 H   0  0  0  0  0  0
    5.6534    4.1680  -21.4151 H   0  0  0  0  0  0
    6.9198    3.2303  -20.5071 H   0  0  0  0  0  0
    6.4989    2.9031  -24.7623 H   0  0  0  0  0  0
    6.1779    4.4282  -23.8763 H   0  0  0  0  0  0
   -5.5061    3.8526  -26.3165 H   0  0  0  0  0  0
    2.4460    1.8216  -24.8918 H   0  0  0  0  0  0
    3.2847    1.4302  -22.9781 H   0  0  0  0  0  0
    4.5368    0.8279  -24.1293 H   0  0  0  0  0  0
    5.0501    0.1742  -21.7675 H   0  0  0  0  0  0
    7.8664    3.0746  -22.6522 H   0  0  0  0  0  0
    4.1747    2.6523  -20.9448 H   0  0  0  0  0  0
    5.4686    1.6886  -20.0329 H   0  0  0  0  0  0
   -1.3322    3.4910  -27.1326 H   0  0  0  0  0  0
    0.4799    2.1550  -21.0030 H   0  0  0  0  0  0
    7.3119    0.8270  -21.8593 H   0  0  0  0  0  0
   -2.7532    3.5737  -28.5847 H   0  0  0  0  0  0
    3.0870    8.4370  -22.9050 O   0  0  0  0  0  0
    6.1920    9.9050  -23.0900 N   0  0  0  0  0  0
    7.6520    9.0370  -21.7240 N   0  3  0  0  0  0
    4.6890    7.4470  -21.6150 N   0  0  0  0  0  0
    6.3630    9.2110  -21.9760 C   0  0  0  0  0  0
    8.4990    9.6570  -22.7310 C   0  0  0  0  0  0
    7.4540   10.2800  -23.7070 C   0  0  0  0  0  0
    5.2390    8.7110  -21.1070 C   0  0  0  0  0  0
    3.6520    7.4390  -22.4750 C   0  0  0  0  0  0
    5.2406   10.1189  -23.4218 H   0  0  0  0  0  0
    7.9470    8.5110  -20.8890 H   0  0  0  0  0  0
    5.0940    6.5840  -21.3130 H   0  0  0  0  0  0
    9.0662    8.8757  -23.2582 H   0  0  0  0  0  0
    9.0842   10.4633  -22.2648 H   0  0  0  0  0  0
    7.5530   11.3754  -23.6920 H   0  0  0  0  0  0
    7.5380    9.7891  -24.6878 H   0  0  0  0  0  0
    5.6070    8.5640  -20.0809 H   0  0  0  0  0  0
    4.4415    9.4676  -21.0680 H   0  0  0  0  0  0
  1  2  2  0  0  0
  1  3  1  0  0  0
  1 34  1  0  0  0
  2  6  1  0  0  0
  2 35  1  0  0  0
  3  5  2  0  0  0
  3 27  1  0  0  0
  4  5  1  0  0  0
  4  6  2  0  0  0
  4 18  1  0  0  0
  5 24  1  0  0  0
  6 10  1  0  0  0
  7 10  2  0  0  0
  7 23  1  0  0  0
  7 33  1  0  0  0
  8 21  1  0  0  0
  8 22  1  0  0  0
  8 36  1  0  0  0
  8 37  1  0  0  0
  9 21  1  0  0  0
  9 31  1  0  0  0
  9 38  1  0  0  0
  9 39  1  0  0  0
 10 40  1  0  0  0
 11 12  1  0  0  0
 11 14  2  0  0  0
 11 15  1  0  0  0
 12 17  1  0  0  0
 12 28  2  0  0  0
 13 28  1  0  0  0
 13 29  2  0  0  0
 13 60  1  0  0  0
 14 29  1  0  0  0
 14 31  1  0  0  0
 15 30  2  0  0  0
 15 41  1  0  0  0
 16 17  2  0  0  0
 16 18  1  0  0  0
 16 30  1  0  0  0
 17 26  1  0  0  0
 18 23  2  0  0  0
 19 20  1  0  0  0
 19 31  1  0  0  0
 19 42  1  0  0  0
 19 43  1  0  0  0
 20 22  1  0  0  0
 20 32  1  0  0  0
 20 44  1  0  0  0
 21 32  1  0  0  0
 21 45  1  0  0  0
 22 46  1  0  0  0
 22 47  1  0  0  0
 23 48  1  0  0  0
 24 25  3  0  0  0
 25 49  1  0  0  0
 32 50  1  0  0  0
 33 51  1  0  0  0
 52 60  2  0  0  0
 53 56  1  0  0  0
 53 58  1  0  0  0
 53 61  1  0  0  0
 54 56  2  0  0  0
 54 57  1  0  0  0
 54 62  1  0  0  0
 55 59  1  0  0  0
 55 60  1  0  0  0
 55 63  1  0  0  0
 56 59  1  0  0  0
 57 58  1  0  0  0
 57 64  1  0  0  0
 57 65  1  0  0  0
 58 66  1  0  0  0
 58 67  1  0  0  0
 59 68  1  0  0  0
 59 69  1  0  0  0
M  CHG  1  54   1
M  END
> <s_m_entry_id>
494

> <s_m_entry_name>
000000494.1

> <s_m_Source_Path>
/Users/zaksoul/Documents/2

> <s_m_Source_File>
000000494.mol2

> <i_m_Source_File_Index>
1

$$$$
No_0_518
                    3D
 Schrodinger Suite 2022-4.
 69 75  0  0  1  0            999 V2000
   -5.0630    3.5010  -22.2750 C   0  0  0  0  0  0
   -5.2870    3.7340  -23.6110 C   0  0  0  0  0  0
   -3.8370    3.2280  -21.9050 C   0  0  0  0  0  0
   -2.8790    3.4180  -24.0370 C   0  0  0  0  0  0
   -2.7640    3.1270  -22.6210 C   0  0  0  0  0  0
   -4.2080    3.7060  -24.5900 C   0  0  0  0  0  0
   -3.3860    3.7930  -26.7620 C   0  0  0  0  0  0
    6.1720    2.8210  -21.2280 C   0  0  0  0  0  0
    6.1130    3.0460  -23.7750 C   0  0  0  0  0  0
   -4.4170    3.8780  -25.9280 C   0  0  0  0  0  0
    2.3340    3.6210  -23.8900 C   0  0  0  0  0  0
    1.5110    4.7260  -23.5810 C   0  0  0  0  0  0
    3.2950    5.8860  -22.8080 C   0  0  0  0  0  0
    3.7250    3.7920  -23.5280 C   0  0  0  0  0  0
    1.8010    2.5300  -24.6030 C   0  0  0  0  0  0
   -0.3230    3.3540  -24.5320 C   0  0  0  0  0  0
    0.1920    4.5510  -23.8780 C   0  0  0  0  0  0
   -1.7650    3.3820  -24.9300 C   0  0  0  0  0  0
    4.3060    1.2820  -23.2990 C   0  0  0  0  0  0
    5.2020    0.8830  -22.1360 C   0  0  2  0  0  0
    6.8200    2.4290  -22.5740 C   0  0  2  0  0  0
    5.1540    1.8460  -20.9390 C   0  0  0  0  0  0
   -2.0450    3.5900  -26.3610 C   0  0  0  0  0  0
   -1.4410    2.6850  -21.9950 C   0  0  0  0  0  0
   -0.4280    2.3140  -21.4690 C   0  0  0  0  0  0
   -0.6530    5.5910  -23.5260 F   0  0  0  0  0  0
   -3.6710    2.9400  -20.5250 F   0  0  0  0  0  0
    1.9790    5.8640  -22.9980 N   0  0  0  0  0  0
    4.1920    4.9250  -23.0320 N   0  0  0  0  0  0
    0.5050    2.4600  -24.9510 N   0  0  0  0  0  0
    4.6420    2.7440  -23.7110 N   0  0  0  0  0  0
    6.6230    0.9560  -22.5730 N   0  0  1  0  0  0
   -3.5160    3.8540  -28.1550 O   0  0  0  0  0  0
   -5.8862    3.5462  -21.5712 H   0  0  0  0  0  0
   -6.2898    3.9468  -23.9633 H   0  0  0  0  0  0
    5.7111    3.8155  -21.3208 H   0  0  0  0  0  0
    6.9344    2.8018  -20.4353 H   0  0  0  0  0  0
    6.5331    2.6289  -24.7021 H   0  0  0  0  0  0
    6.2633    4.1357  -23.7679 H   0  0  0  0  0  0
   -5.4153    4.0817  -26.2982 H   0  0  0  0  0  0
    2.4433    1.7060  -24.8920 H   0  0  0  0  0  0
    3.2529    1.2214  -22.9870 H   0  0  0  0  0  0
    4.4897    0.6097  -24.1500 H   0  0  0  0  0  0
    4.9607   -0.1388  -21.8079 H   0  0  0  0  0  0
    7.8911    2.6794  -22.5801 H   0  0  0  0  0  0
    4.1729    2.3426  -20.9087 H   0  0  0  0  0  0
    5.4224    1.3012  -20.0219 H   0  0  0  0  0  0
   -1.2524    3.5890  -27.1005 H   0  0  0  0  0  0
    0.4634    1.9869  -21.0068 H   0  0  0  0  0  0
    7.2456    0.4308  -21.8638 H   0  0  0  0  0  0
   -2.6594    3.7729  -28.5576 H   0  0  0  0  0  0
    3.1870    8.2050  -22.5010 O   0  0  0  0  0  0
    6.1770    9.8100  -23.0640 N   0  0  0  0  0  0
    7.8750    8.8680  -22.0740 N   0  3  0  0  0  0
    5.0140    7.1550  -21.6230 N   0  0  0  0  0  0
    6.5580    9.0130  -22.0780 C   0  0  0  0  0  0
    8.5160    9.6210  -23.1410 C   0  0  0  0  0  0
    7.3010   10.2970  -23.8470 C   0  0  0  0  0  0
    5.6170    8.3820  -21.0850 C   0  0  0  0  0  0
    3.8420    7.1930  -22.2850 C   0  0  0  0  0  0
    5.1773   10.0169  -23.2010 H   0  0  0  0  0  0
    8.3251    8.2719  -21.3648 H   0  0  0  0  0  0
    5.4859    6.2833  -21.4910 H   0  0  0  0  0  0
    8.9981    8.9209  -23.8391 H   0  0  0  0  0  0
    9.1568   10.3988  -22.7001 H   0  0  0  0  0  0
    7.3760   11.3885  -23.7329 H   0  0  0  0  0  0
    7.2201    9.9122  -24.8743 H   0  0  0  0  0  0
    6.1651    8.1460  -20.1609 H   0  0  0  0  0  0
    4.8229    9.0981  -20.8270 H   0  0  0  0  0  0
  1  2  2  0  0  0
  1  3  1  0  0  0
  1 34  1  0  0  0
  2  6  1  0  0  0
  2 35  1  0  0  0
  3  5  2  0  0  0
  3 27  1  0  0  0
  4  5  1  0  0  0
  4  6  2  0  0  0
  4 18  1  0  0  0
  5 24  1  0  0  0
  6 10  1  0  0  0
  7 10  2  0  0  0
  7 23  1  0  0  0
  7 33  1  0  0  0
  8 21  1  0  0  0
  8 22  1  0  0  0
  8 36  1  0  0  0
  8 37  1  0  0  0
  9 21  1  0  0  0
  9 31  1  0  0  0
  9 38  1  0  0  0
  9 39  1  0  0  0
 10 40  1  0  0  0
 11 12  1  0  0  0
 11 14  2  0  0  0
 11 15  1  0  0  0
 12 17  1  0  0  0
 12 28  2  0  0  0
 13 28  1  0  0  0
 13 29  2  0  0  0
 13 60  1  0  0  0
 14 29  1  0  0  0
 14 31  1  0  0  0
 15 30  2  0  0  0
 15 41  1  0  0  0
 16 17  2  0  0  0
 16 18  1  0  0  0
 16 30  1  0  0  0
 17 26  1  0  0  0
 18 23  2  0  0  0
 19 20  1  0  0  0
 19 31  1  0  0  0
 19 42  1  0  0  0
 19 43  1  0  0  0
 20 22  1  0  0  0
 20 32  1  0  0  0
 20 44  1  0  0  0
 21 32  1  0  0  0
 21 45  1  0  0  0
 22 46  1  0  0  0
 22 47  1  0  0  0
 23 48  1  0  0  0
 24 25  3  0  0  0
 25 49  1  0  0  0
 32 50  1  0  0  0
 33 51  1  0  0  0
 52 60  2  0  0  0
 53 56  1  0  0  0
 53 58  1  0  0  0
 53 61  1  0  0  0
 54 56  2  0  0  0
 54 57  1  0  0  0
 54 62  1  0  0  0
 55 59  1  0  0  0
 55 60  1  0  0  0
 55 63  1  0  0  0
 56 59  1  0  0  0
 57 58  1  0  0  0
 57 64  1  0  0  0
 57 65  1  0  0  0
 58 66  1  0  0  0
 58 67  1  0  0  0
 59 68  1  0  0  0
 59 69  1  0  0  0
M  CHG  1  54   1
M  END
> <s_m_entry_id>
495

> <s_m_entry_name>
000000495.1

> <s_m_Source_Path>
/Users/zaksoul/Documents/2

> <s_m_Source_File>
000000495.mol2

> <i_m_Source_File_Index>
1

$$$$
No_0_519
                    3D
 Schrodinger Suite 2022-4.
 68 74  0  0  1  0            999 V2000
   -5.0020    3.2390  -22.4780 C   0  0  0  0  0  0
   -5.2210    3.4460  -23.8190 C   0  0  0  0  0  0
   -3.7730    3.0010  -22.0950 C   0  0  0  0  0  0
   -2.8040    3.1790  -24.2240 C   0  0  0  0  0  0
   -2.6920    2.9130  -22.8020 C   0  0  0  0  0  0
   -4.1360    3.4280  -24.7900 C   0  0  0  0  0  0
   -3.3000    3.4990  -26.9580 C   0  0  0  0  0  0
    6.2380    2.8370  -21.3440 C   0  0  0  0  0  0
    6.1920    3.0210  -23.8940 C   0  0  0  0  0  0
   -4.3390    3.5730  -26.1320 C   0  0  0  0  0  0
    2.4020    3.5060  -24.0450 C   0  0  0  0  0  0
    1.5510    4.5950  -23.7590 C   0  0  0  0  0  0
    3.3020    5.8090  -22.9920 C   0  0  0  0  0  0
    3.7860    3.7150  -23.6760 C   0  0  0  0  0  0
    1.8990    2.3910  -24.7440 C   0  0  0  0  0  0
   -0.2440    3.1670  -24.7000 C   0  0  0  0  0  0
    0.2390    4.3860  -24.0620 C   0  0  0  0  0  0
   -1.6830    3.1550  -25.1090 C   0  0  0  0  0  0
    4.4230    1.2230  -23.4030 C   0  0  0  0  0  0
    5.3190    0.8630  -22.2280 C   0  0  2  0  0  0
    6.9040    2.4390  -22.6790 C   0  0  2  0  0  0
    5.2410    1.8440  -21.0460 C   0  0  0  0  0  0
   -1.9580    3.3330  -26.5450 C   0  0  0  0  0  0
   -1.3640    2.5120  -22.1610 C   0  0  0  0  0  0
   -0.3470    2.1730  -21.6220 C   0  0  0  0  0  0
   -0.6330    5.4110  -23.7320 F   0  0  0  0  0  0
   -3.6100    2.7390  -20.7100 F   0  0  0  0  0  0
    1.9880    5.7530  -23.1910 N   0  0  0  0  0  0
    4.2220    4.8650  -23.1940 N   0  0  0  0  0  0
    0.6070    2.2850  -25.0990 N   0  0  0  0  0  0
    4.7280    2.6850  -23.8360 N   0  0  0  0  0  0
    6.7420    0.9610  -22.6560 N   0  0  1  0  0  0
   -3.4210    3.5350  -28.3530 O   0  0  0  0  0  0
   -5.8314    3.2772  -21.7811 H   0  0  0  0  0  0
   -6.2258    3.6295  -24.1820 H   0  0  0  0  0  0
    5.7546    3.8189  -21.4550 H   0  0  0  0  0  0
    6.9948    2.8481  -20.5458 H   0  0  0  0  0  0
    6.6279    2.5982  -24.8112 H   0  0  0  0  0  0
    6.3172    4.1138  -23.9041 H   0  0  0  0  0  0
   -5.3389    3.7477  -26.5125 H   0  0  0  0  0  0
    2.5626    1.5778  -25.0151 H   0  0  0  0  0  0
    3.3694    1.1433  -23.0972 H   0  0  0  0  0  0
    4.6279    0.5416  -24.2419 H   0  0  0  0  0  0
    5.0991   -0.1588  -21.8851 H   0  0  0  0  0  0
    7.9690    2.7143  -22.6810 H   0  0  0  0  0  0
    4.2481    2.3172  -21.0309 H   0  0  0  0  0  0
    5.5154    1.3194  -20.1189 H   0  0  0  0  0  0
   -1.1601    3.3390  -27.2787 H   0  0  0  0  0  0
    0.5480    1.8740  -21.1480 H   0  0  0  0  0  0
    7.3712    0.4623  -21.9337 H   0  0  0  0  0  0
   -2.5595    3.4677  -28.7477 H   0  0  0  0  0  0
    3.1370    8.1280  -22.7240 O   0  0  0  0  0  0
    7.4230   10.3170  -23.8550 N   0  0  0  0  0  0
    5.0780   10.5140  -23.6520 N   0  0  0  0  0  0
    8.4410    9.5660  -23.2550 N   0  0  0  0  0  0
    4.9840    7.1360  -21.8190 N   0  0  0  0  0  0
    5.5640    8.3890  -21.3170 C   0  0  0  0  0  0
    6.2720    9.9900  -23.3120 C   0  0  0  0  0  0
    7.9000    8.7920  -22.3350 C   0  0  0  0  0  0
    6.5260    8.9780  -22.3180 C   0  0  0  0  0  0
    3.8150    7.1360  -22.4870 C   0  0  0  0  0  0
    4.2219   10.2000  -23.1730 H   0  0  0  0  0  0
    5.0210   11.2291  -24.3911 H   0  0  0  0  0  0
    9.4169    9.6830  -23.5630 H   0  0  0  0  0  0
    5.4689    6.2762  -21.6590 H   0  0  0  0  0  0
    6.0921    8.1950  -20.3718 H   0  0  0  0  0  0
    4.7581    9.1099  -21.1150 H   0  0  0  0  0  0
    8.5275    8.1434  -21.7345 H   0  0  0  0  0  0
  1  2  2  0  0  0
  1  3  1  0  0  0
  1 34  1  0  0  0
  2  6  1  0  0  0
  2 35  1  0  0  0
  3  5  2  0  0  0
  3 27  1  0  0  0
  4  5  1  0  0  0
  4  6  2  0  0  0
  4 18  1  0  0  0
  5 24  1  0  0  0
  6 10  1  0  0  0
  7 10  2  0  0  0
  7 23  1  0  0  0
  7 33  1  0  0  0
  8 21  1  0  0  0
  8 22  1  0  0  0
  8 36  1  0  0  0
  8 37  1  0  0  0
  9 21  1  0  0  0
  9 31  1  0  0  0
  9 38  1  0  0  0
  9 39  1  0  0  0
 10 40  1  0  0  0
 11 12  1  0  0  0
 11 14  2  0  0  0
 11 15  1  0  0  0
 12 17  1  0  0  0
 12 28  2  0  0  0
 13 28  1  0  0  0
 13 29  2  0  0  0
 13 61  1  0  0  0
 14 29  1  0  0  0
 14 31  1  0  0  0
 15 30  2  0  0  0
 15 41  1  0  0  0
 16 17  2  0  0  0
 16 18  1  0  0  0
 16 30  1  0  0  0
 17 26  1  0  0  0
 18 23  2  0  0  0
 19 20  1  0  0  0
 19 31  1  0  0  0
 19 42  1  0  0  0
 19 43  1  0  0  0
 20 22  1  0  0  0
 20 32  1  0  0  0
 20 44  1  0  0  0
 21 32  1  0  0  0
 21 45  1  0  0  0
 22 46  1  0  0  0
 22 47  1  0  0  0
 23 48  1  0  0  0
 24 25  3  0  0  0
 25 49  1  0  0  0
 32 50  1  0  0  0
 33 51  1  0  0  0
 52 61  2  0  0  0
 53 55  1  0  0  0
 53 58  2  0  0  0
 54 58  1  0  0  0
 54 62  1  0  0  0
 54 63  1  0  0  0
 55 59  1  0  0  0
 55 64  1  0  0  0
 56 57  1  0  0  0
 56 61  1  0  0  0
 56 65  1  0  0  0
 57 60  1  0  0  0
 57 66  1  0  0  0
 57 67  1  0  0  0
 58 60  1  0  0  0
 59 60  2  0  0  0
 59 68  1  0  0  0
M  END
> <s_m_entry_id>
496

> <s_m_entry_name>
000000496.1

> <s_m_Source_Path>
/Users/zaksoul/Documents/2

> <s_m_Source_File>
000000496.mol2

> <i_m_Source_File_Index>
1

$$$$
No_0_520
                    3D
 Schrodinger Suite 2022-4.
 68 73  0  0  1  0            999 V2000
   -5.0830    3.3140  -22.0290 C   0  0  0  0  0  0
   -5.3540    3.4760  -23.3670 C   0  0  0  0  0  0
   -3.8390    3.0980  -21.6840 C   0  0  0  0  0  0
   -2.9510    3.2150  -23.8510 C   0  0  0  0  0  0
   -2.7840    2.9960  -22.4280 C   0  0  0  0  0  0
   -4.3040    3.4360  -24.3760 C   0  0  0  0  0  0
   -3.5490    3.4450  -26.5740 C   0  0  0  0  0  0
    6.1940    3.0360  -21.3000 C   0  0  0  0  0  0
    6.0520    3.1380  -23.8510 C   0  0  0  0  0  0
   -4.5580    3.5370  -25.7130 C   0  0  0  0  0  0
    2.2550    3.5890  -23.8760 C   0  0  0  0  0  0
    1.4060    4.6800  -23.5930 C   0  0  0  0  0  0
    3.1730    5.9310  -22.9300 C   0  0  0  0  0  0
    3.6500    3.8200  -23.5660 C   0  0  0  0  0  0
    1.7380    2.4480  -24.5210 C   0  0  0  0  0  0
   -0.4100    3.2090  -24.4220 C   0  0  0  0  0  0
    0.0850    4.4500  -23.8410 C   0  0  0  0  0  0
   -1.8620    3.1720  -24.7760 C   0  0  0  0  0  0
    4.3190    1.3430  -23.2380 C   0  0  0  0  0  0
    5.2610    1.0270  -22.0860 C   0  0  2  0  0  0
    6.8140    2.6010  -22.6450 C   0  0  2  0  0  0
    5.2170    2.0450  -20.9340 C   0  0  0  0  0  0
   -2.1910    3.3030  -26.2060 C   0  0  0  0  0  0
   -1.4300    2.6250  -21.8230 C   0  0  0  0  0  0
   -0.3910    2.3120  -21.3130 C   0  0  0  0  0  0
   -0.7830    5.4790  -23.5110 F   0  0  0  0  0  0
   -3.6230    2.8800  -20.2990 F   0  0  0  0  0  0
    1.8530    5.8580  -23.0780 N   0  0  0  0  0  0
    4.0930    4.9890  -23.1370 N   0  0  0  0  0  0
    0.4340    2.3210  -24.8250 N   0  0  0  0  0  0
    4.5950    2.7930  -23.7280 N   0  0  0  0  0  0
    6.6660    1.1240  -22.5700 N   0  0  1  0  0  0
   -3.7220    3.4350  -27.9640 O   0  0  0  0  0  0
   -5.8867    3.3672  -21.3036 H   0  0  0  0  0  0
   -6.3732    3.6407  -23.6974 H   0  0  0  0  0  0
    5.6984    4.0101  -21.4242 H   0  0  0  0  0  0
    6.9793    3.0774  -20.5308 H   0  0  0  0  0  0
    6.4585    2.6902  -24.7698 H   0  0  0  0  0  0
    6.1670    4.2309  -23.8994 H   0  0  0  0  0  0
   -5.5725    3.6915  -26.0622 H   0  0  0  0  0  0
    2.3978    1.6315  -24.7912 H   0  0  0  0  0  0
    3.2781    1.2643  -22.8910 H   0  0  0  0  0  0
    4.4995    0.6370  -24.0620 H   0  0  0  0  0  0
    5.0630    0.0149  -21.7032 H   0  0  0  0  0  0
    7.8756    2.8846  -22.6955 H   0  0  0  0  0  0
    4.2215    2.5115  -20.8966 H   0  0  0  0  0  0
    5.5308    1.5526  -20.0017 H   0  0  0  0  0  0
   -1.4210    3.2920  -26.9689 H   0  0  0  0  0  0
    0.5235    2.0352  -20.8633 H   0  0  0  0  0  0
    7.3253    0.6527  -21.8562 H   0  0  0  0  0  0
   -2.8751    3.3628  -28.3884 H   0  0  0  0  0  0
    3.1170    8.2670  -22.9230 O   0  0  0  0  0  0
    7.2100    8.5190  -22.6680 N   0  3  0  0  0  0
    4.7400    7.3080  -21.6440 N   0  0  0  0  0  0
    6.0490    9.3500  -22.2030 C   0  0  0  0  0  0
    5.2420    8.5920  -21.1350 C   0  0  0  0  0  0
    8.0880    9.2000  -23.6780 C   0  0  0  0  0  0
    3.6920    7.2770  -22.4860 C   0  0  0  0  0  0
    6.8681    7.6523  -23.0528 H   0  0  0  0  0  0
    7.7657    8.2462  -21.8725 H   0  0  0  0  0  0
    5.1790    6.4549  -21.3620 H   0  0  0  0  0  0
    5.3975    9.5812  -23.0586 H   0  0  0  0  0  0
    6.4220   10.2940  -21.7790 H   0  0  0  0  0  0
    5.8767    8.4141  -20.2544 H   0  0  0  0  0  0
    4.3952    9.2128  -20.8071 H   0  0  0  0  0  0
    8.9094    8.5267  -23.9641 H   0  0  0  0  0  0
    7.4942    9.4529  -24.5687 H   0  0  0  0  0  0
    8.5039   10.1198  -23.2411 H   0  0  0  0  0  0
  1  2  2  0  0  0
  1  3  1  0  0  0
  1 34  1  0  0  0
  2  6  1  0  0  0
  2 35  1  0  0  0
  3  5  2  0  0  0
  3 27  1  0  0  0
  4  5  1  0  0  0
  4  6  2  0  0  0
  4 18  1  0  0  0
  5 24  1  0  0  0
  6 10  1  0  0  0
  7 10  2  0  0  0
  7 23  1  0  0  0
  7 33  1  0  0  0
  8 21  1  0  0  0
  8 22  1  0  0  0
  8 36  1  0  0  0
  8 37  1  0  0  0
  9 21  1  0  0  0
  9 31  1  0  0  0
  9 38  1  0  0  0
  9 39  1  0  0  0
 10 40  1  0  0  0
 11 12  1  0  0  0
 11 14  2  0  0  0
 11 15  1  0  0  0
 12 17  1  0  0  0
 12 28  2  0  0  0
 13 28  1  0  0  0
 13 29  2  0  0  0
 13 58  1  0  0  0
 14 29  1  0  0  0
 14 31  1  0  0  0
 15 30  2  0  0  0
 15 41  1  0  0  0
 16 17  2  0  0  0
 16 18  1  0  0  0
 16 30  1  0  0  0
 17 26  1  0  0  0
 18 23  2  0  0  0
 19 20  1  0  0  0
 19 31  1  0  0  0
 19 42  1  0  0  0
 19 43  1  0  0  0
 20 22  1  0  0  0
 20 32  1  0  0  0
 20 44  1  0  0  0
 21 32  1  0  0  0
 21 45  1  0  0  0
 22 46  1  0  0  0
 22 47  1  0  0  0
 23 48  1  0  0  0
 24 25  3  0  0  0
 25 49  1  0  0  0
 32 50  1  0  0  0
 33 51  1  0  0  0
 52 58  2  0  0  0
 53 55  1  0  0  0
 53 57  1  0  0  0
 53 59  1  0  0  0
 53 60  1  0  0  0
 54 56  1  0  0  0
 54 58  1  0  0  0
 54 61  1  0  0  0
 55 56  1  0  0  0
 55 62  1  0  0  0
 55 63  1  0  0  0
 56 64  1  0  0  0
 56 65  1  0  0  0
 57 66  1  0  0  0
 57 67  1  0  0  0
 57 68  1  0  0  0
M  CHG  1  53   1
M  END
> <s_m_entry_id>
497

> <s_m_entry_name>
000000497.1

> <s_m_Source_Path>
/Users/zaksoul/Documents/2

> <s_m_Source_File>
000000497.mol2

> <i_m_Source_File_Index>
1

$$$$
No_0_521
                    3D
 Schrodinger Suite 2022-4.
 71 76  0  0  1  0            999 V2000
   -5.1720    3.8210  -21.9020 C   0  0  0  0  0  0
   -5.4190    3.9910  -23.2440 C   0  0  0  0  0  0
   -3.9400    3.5680  -21.5410 C   0  0  0  0  0  0
   -3.0190    3.6580  -23.6960 C   0  0  0  0  0  0
   -2.8780    3.4340  -22.2700 C   0  0  0  0  0  0
   -4.3580    3.9180  -24.2390 C   0  0  0  0  0  0
   -3.5740    3.9030  -26.4270 C   0  0  0  0  0  0
    6.0810    3.2090  -21.0210 C   0  0  0  0  0  0
    5.9770    3.3130  -23.5730 C   0  0  0  0  0  0
   -4.5910    4.0260  -25.5790 C   0  0  0  0  0  0
    2.1950    3.8760  -23.6500 C   0  0  0  0  0  0
    1.3750    4.9930  -23.3790 C   0  0  0  0  0  0
    3.1690    6.1910  -22.6930 C   0  0  0  0  0  0
    3.5920    4.0660  -23.3210 C   0  0  0  0  0  0
    1.6530    2.7510  -24.3010 C   0  0  0  0  0  0
   -0.4720    3.5750  -24.2320 C   0  0  0  0  0  0
    0.0520    4.8020  -23.6440 C   0  0  0  0  0  0
   -1.9200    3.5820  -24.6060 C   0  0  0  0  0  0
    4.1830    1.5700  -22.9830 C   0  0  0  0  0  0
    5.1000    1.2280  -21.8190 C   0  0  2  0  0  0
    6.7060    2.7540  -22.3570 C   0  0  2  0  0  0
    5.0710    2.2470  -20.6670 C   0  0  0  0  0  0
   -2.2260    3.7210  -26.0400 C   0  0  0  0  0  0
   -1.5440    3.0250  -21.6470 C   0  0  0  0  0  0
   -0.5210    2.6800  -21.1220 C   0  0  0  0  0  0
   -0.7900    5.8560  -23.3270 F   0  0  0  0  0  0
   -3.7490    3.3460  -20.1520 F   0  0  0  0  0  0
    1.8500    6.1580  -22.8580 N   0  0  0  0  0  0
    4.0640    5.2210  -22.8870 N   0  0  0  0  0  0
    0.3510    2.6630  -24.6230 N   0  0  0  0  0  0
    4.5080    3.0120  -23.4700 N   0  0  0  0  0  0
    6.5130    1.2820  -22.2830 N   0  0  1  0  0  0
   -3.7280    3.8970  -27.8190 O   0  0  0  0  0  0
   -5.9832    3.8983  -21.1872 H   0  0  0  0  0  0
   -6.4285    4.1847  -23.5882 H   0  0  0  0  0  0
    5.6157    4.1972  -21.1512 H   0  0  0  0  0  0
    6.8567    3.2282  -20.2413 H   0  0  0  0  0  0
    6.3814    2.8531  -24.4867 H   0  0  0  0  0  0
    6.1253    4.4019  -23.6214 H   0  0  0  0  0  0
   -5.5960    4.2097  -25.9414 H   0  0  0  0  0  0
    2.2926    1.9156  -24.5621 H   0  0  0  0  0  0
    3.1353    1.5236  -22.6509 H   0  0  0  0  0  0
    4.3536    0.8591  -23.8049 H   0  0  0  0  0  0
    4.8659    0.2231  -21.4376 H   0  0  0  0  0  0
    7.7761    3.0061  -22.3933 H   0  0  0  0  0  0
    4.0892    2.7425  -20.6438 H   0  0  0  0  0  0
    5.3567    1.7463  -19.7302 H   0  0  0  0  0  0
   -1.4465    3.6859  -26.7924 H   0  0  0  0  0  0
    0.3790    2.3770  -20.6600 H   0  0  0  0  0  0
    7.1490    0.7924  -21.5604 H   0  0  0  0  0  0
   -2.8779    3.7990  -28.2317 H   0  0  0  0  0  0
    3.1750    8.5200  -22.6940 O   0  0  0  0  0  0
    7.3540    8.9200  -22.0920 N   0  3  0  0  0  0
    4.7450    7.5410  -21.3680 N   0  0  0  0  0  0
    6.1050    9.6440  -21.6600 C   0  0  0  0  0  0
    8.1820    8.3980  -20.9490 C   0  0  0  0  0  0
    8.1710    9.7690  -23.0240 C   0  0  0  0  0  0
    5.1680    8.8130  -20.7660 C   0  0  0  0  0  0
    3.7230    7.5220  -22.2420 C   0  0  0  0  0  0
    7.0531    8.1163  -22.6208 H   0  0  0  0  0  0
    5.2150    6.6910  -21.1300 H   0  0  0  0  0  0
    5.5546    9.9842  -22.5496 H   0  0  0  0  0  0
    6.3840   10.5689  -21.1340 H   0  0  0  0  0  0
    9.0708    7.8841  -21.3439 H   0  0  0  0  0  0
    8.4981    9.2363  -20.3108 H   0  0  0  0  0  0
    7.5851    7.6901  -20.3551 H   0  0  0  0  0  0
    9.0749    9.2191  -23.3250 H   0  0  0  0  0  0
    7.5752   10.0099  -23.9167 H   0  0  0  0  0  0
    8.4612   10.6997  -22.5146 H   0  0  0  0  0  0
    5.6622    8.6139  -19.8036 H   0  0  0  0  0  0
    4.2795    9.4106  -20.5141 H   0  0  0  0  0  0
  1  2  2  0  0  0
  1  3  1  0  0  0
  1 34  1  0  0  0
  2  6  1  0  0  0
  2 35  1  0  0  0
  3  5  2  0  0  0
  3 27  1  0  0  0
  4  5  1  0  0  0
  4  6  2  0  0  0
  4 18  1  0  0  0
  5 24  1  0  0  0
  6 10  1  0  0  0
  7 10  2  0  0  0
  7 23  1  0  0  0
  7 33  1  0  0  0
  8 21  1  0  0  0
  8 22  1  0  0  0
  8 36  1  0  0  0
  8 37  1  0  0  0
  9 21  1  0  0  0
  9 31  1  0  0  0
  9 38  1  0  0  0
  9 39  1  0  0  0
 10 40  1  0  0  0
 11 12  1  0  0  0
 11 14  2  0  0  0
 11 15  1  0  0  0
 12 17  1  0  0  0
 12 28  2  0  0  0
 13 28  1  0  0  0
 13 29  2  0  0  0
 13 59  1  0  0  0
 14 29  1  0  0  0
 14 31  1  0  0  0
 15 30  2  0  0  0
 15 41  1  0  0  0
 16 17  2  0  0  0
 16 18  1  0  0  0
 16 30  1  0  0  0
 17 26  1  0  0  0
 18 23  2  0  0  0
 19 20  1  0  0  0
 19 31  1  0  0  0
 19 42  1  0  0  0
 19 43  1  0  0  0
 20 22  1  0  0  0
 20 32  1  0  0  0
 20 44  1  0  0  0
 21 32  1  0  0  0
 21 45  1  0  0  0
 22 46  1  0  0  0
 22 47  1  0  0  0
 23 48  1  0  0  0
 24 25  3  0  0  0
 25 49  1  0  0  0
 32 50  1  0  0  0
 33 51  1  0  0  0
 52 59  2  0  0  0
 53 55  1  0  0  0
 53 56  1  0  0  0
 53 57  1  0  0  0
 53 60  1  0  0  0
 54 58  1  0  0  0
 54 59  1  0  0  0
 54 61  1  0  0  0
 55 58  1  0  0  0
 55 62  1  0  0  0
 55 63  1  0  0  0
 56 64  1  0  0  0
 56 65  1  0  0  0
 56 66  1  0  0  0
 57 67  1  0  0  0
 57 68  1  0  0  0
 57 69  1  0  0  0
 58 70  1  0  0  0
 58 71  1  0  0  0
M  CHG  1  53   1
M  END
> <s_m_entry_id>
498

> <s_m_entry_name>
000000498.1

> <s_m_Source_Path>
/Users/zaksoul/Documents/2

> <s_m_Source_File>
000000498.mol2

> <i_m_Source_File_Index>
1

$$$$
No_0_522
                    3D
 Schrodinger Suite 2022-4.
 65 70  0  0  1  0            999 V2000
   -5.0780    3.5600  -21.8310 C   0  0  0  0  0  0
   -5.3520    3.7660  -23.1620 C   0  0  0  0  0  0
   -3.8370    3.3060  -21.5010 C   0  0  0  0  0  0
   -2.9580    3.4650  -23.6690 C   0  0  0  0  0  0
   -2.7890    3.2020  -22.2530 C   0  0  0  0  0  0
   -4.3100    3.7300  -24.1790 C   0  0  0  0  0  0
   -3.5670    3.7850  -26.3810 C   0  0  0  0  0  0
    6.1940    3.0110  -21.1810 C   0  0  0  0  0  0
    6.0400    3.1880  -23.7270 C   0  0  0  0  0  0
   -4.5690    3.8750  -25.5110 C   0  0  0  0  0  0
    2.2540    3.7230  -23.7160 C   0  0  0  0  0  0
    1.4310    4.8250  -23.3970 C   0  0  0  0  0  0
    3.2290    6.0170  -22.7110 C   0  0  0  0  0  0
    3.6550    3.9140  -23.4080 C   0  0  0  0  0  0
    1.7080    2.6130  -24.3890 C   0  0  0  0  0  0
   -0.4220    3.4180  -24.2560 C   0  0  0  0  0  0
    0.1040    4.6320  -23.6430 C   0  0  0  0  0  0
   -1.8770    3.4240  -24.6020 C   0  0  0  0  0  0
    4.2710    1.4150  -23.1540 C   0  0  0  0  0  0
    5.2120    1.0460  -22.0170 C   0  0  2  0  0  0
    6.7970    2.6000  -22.5420 C   0  0  2  0  0  0
    5.1970    2.0310  -20.8370 C   0  0  0  0  0  0
   -2.2110    3.6020  -26.0260 C   0  0  0  0  0  0
   -1.4400    2.7850  -21.6680 C   0  0  0  0  0  0
   -0.4050    2.4340  -21.1730 C   0  0  0  0  0  0
   -0.7390    5.6690  -23.2790 F   0  0  0  0  0  0
   -3.6180    3.0450  -20.1230 F   0  0  0  0  0  0
    1.9070    5.9780  -22.8520 N   0  0  0  0  0  0
    4.1270    5.0610  -22.9490 N   0  0  0  0  0  0
    0.4000    2.5240  -24.6880 N   0  0  0  0  0  0
    4.5760    2.8720  -23.6050 N   0  0  0  0  0  0
    6.6160    1.1250  -22.5070 N   0  0  1  0  0  0
   -3.7480    3.8180  -27.7690 O   0  0  0  0  0  0
   -5.8761    3.6102  -21.0992 H   0  0  0  0  0  0
   -6.3691    3.9616  -23.4820 H   0  0  0  0  0  0
    5.7196    3.9991  -21.2739 H   0  0  0  0  0  0
    6.9843    3.0130  -20.4159 H   0  0  0  0  0  0
    6.4303    2.7573  -24.6609 H   0  0  0  0  0  0
    6.1793    4.2790  -23.7462 H   0  0  0  0  0  0
   -5.5818    4.0617  -25.8493 H   0  0  0  0  0  0
    2.3480    1.7902  -24.6864 H   0  0  0  0  0  0
    3.2306    1.3504  -22.8028 H   0  0  0  0  0  0
    4.4305    0.7287  -23.9987 H   0  0  0  0  0  0
    4.9929    0.0283  -21.6616 H   0  0  0  0  0  0
    7.8644    2.8613  -22.5904 H   0  0  0  0  0  0
    4.2126    2.5186  -20.7805 H   0  0  0  0  0  0
    5.5048    1.5062  -19.9206 H   0  0  0  0  0  0
   -1.4450    3.5960  -26.7930 H   0  0  0  0  0  0
    0.5056    2.1241  -20.7372 H   0  0  0  0  0  0
    7.2691    0.6194  -21.8111 H   0  0  0  0  0  0
   -2.9056    3.7389  -28.2011 H   0  0  0  0  0  0
    3.2300    8.3560  -22.6340 O   0  0  0  0  0  0
    6.1060    9.7330  -22.9470 N   0  0  0  0  0  0
    7.8020    8.7960  -21.6140 N   0  3  0  0  0  0
    4.8420    7.3070  -21.4040 N   0  0  0  0  0  0
    5.4560    8.5530  -20.9230 C   0  0  0  0  0  0
    6.5170    9.0490  -21.8780 C   0  0  0  0  0  0
    3.7810    7.3380  -22.2320 C   0  0  0  0  0  0
    5.1006    9.8979  -23.0979 H   0  0  0  0  0  0
    6.7941   10.0960  -23.6221 H   0  0  0  0  0  0
    8.0600    8.2619  -20.7719 H   0  0  0  0  0  0
    8.5354    9.1337  -22.2535 H   0  0  0  0  0  0
    5.2208    6.4294  -21.1101 H   0  0  0  0  0  0
    5.9048    8.3811  -19.9335 H   0  0  0  0  0  0
    4.6786    9.3224  -20.8059 H   0  0  0  0  0  0
  1  2  2  0  0  0
  1  3  1  0  0  0
  1 34  1  0  0  0
  2  6  1  0  0  0
  2 35  1  0  0  0
  3  5  2  0  0  0
  3 27  1  0  0  0
  4  5  1  0  0  0
  4  6  2  0  0  0
  4 18  1  0  0  0
  5 24  1  0  0  0
  6 10  1  0  0  0
  7 10  2  0  0  0
  7 23  1  0  0  0
  7 33  1  0  0  0
  8 21  1  0  0  0
  8 22  1  0  0  0
  8 36  1  0  0  0
  8 37  1  0  0  0
  9 21  1  0  0  0
  9 31  1  0  0  0
  9 38  1  0  0  0
  9 39  1  0  0  0
 10 40  1  0  0  0
 11 12  1  0  0  0
 11 14  2  0  0  0
 11 15  1  0  0  0
 12 17  1  0  0  0
 12 28  2  0  0  0
 13 28  1  0  0  0
 13 29  2  0  0  0
 13 58  1  0  0  0
 14 29  1  0  0  0
 14 31  1  0  0  0
 15 30  2  0  0  0
 15 41  1  0  0  0
 16 17  2  0  0  0
 16 18  1  0  0  0
 16 30  1  0  0  0
 17 26  1  0  0  0
 18 23  2  0  0  0
 19 20  1  0  0  0
 19 31  1  0  0  0
 19 42  1  0  0  0
 19 43  1  0  0  0
 20 22  1  0  0  0
 20 32  1  0  0  0
 20 44  1  0  0  0
 21 32  1  0  0  0
 21 45  1  0  0  0
 22 46  1  0  0  0
 22 47  1  0  0  0
 23 48  1  0  0  0
 24 25  3  0  0  0
 25 49  1  0  0  0
 32 50  1  0  0  0
 33 51  1  0  0  0
 52 58  2  0  0  0
 53 57  1  0  0  0
 53 59  1  0  0  0
 53 60  1  0  0  0
 54 57  2  0  0  0
 54 61  1  0  0  0
 54 62  1  0  0  0
 55 56  1  0  0  0
 55 58  1  0  0  0
 55 63  1  0  0  0
 56 57  1  0  0  0
 56 64  1  0  0  0
 56 65  1  0  0  0
M  CHG  1  54   1
M  END
> <s_m_entry_id>
499

> <s_m_entry_name>
000000499.1

> <s_m_Source_Path>
/Users/zaksoul/Documents/2

> <s_m_Source_File>
000000499.mol2

> <i_m_Source_File_Index>
1

$$$$
No_0_523
                    3D
 Schrodinger Suite 2022-4.
 65 70  0  0  1  0            999 V2000
   -5.1800    3.3970  -22.0900 C   0  0  0  0  0  0
   -5.4260    3.5820  -23.4300 C   0  0  0  0  0  0
   -3.9490    3.1350  -21.7300 C   0  0  0  0  0  0
   -3.0260    3.2460  -23.8830 C   0  0  0  0  0  0
   -2.8870    3.0060  -22.4600 C   0  0  0  0  0  0
   -4.3630    3.5170  -24.4250 C   0  0  0  0  0  0
   -3.5770    3.5230  -26.6120 C   0  0  0  0  0  0
    6.0700    2.7370  -21.2040 C   0  0  0  0  0  0
    5.9690    2.8690  -23.7560 C   0  0  0  0  0  0
   -4.5950    3.6400  -25.7640 C   0  0  0  0  0  0
    2.1890    3.4460  -23.8300 C   0  0  0  0  0  0
    1.3730    4.5620  -23.5470 C   0  0  0  0  0  0
    3.1700    5.7470  -22.8460 C   0  0  0  0  0  0
    3.5860    3.6280  -23.4970 C   0  0  0  0  0  0
    1.6440    2.3300  -24.4940 C   0  0  0  0  0  0
   -0.4780    3.1610  -24.4180 C   0  0  0  0  0  0
    0.0490    4.3790  -23.8160 C   0  0  0  0  0  0
   -1.9260    3.1760  -24.7930 C   0  0  0  0  0  0
    4.1690    1.1260  -23.1870 C   0  0  0  0  0  0
    5.0830    0.7680  -22.0250 C   0  0  2  0  0  0
    6.6950    2.2940  -22.5450 C   0  0  2  0  0  0
    5.0560    1.7740  -20.8630 C   0  0  0  0  0  0
   -2.2300    3.3320  -26.2260 C   0  0  0  0  0  0
   -1.5550    2.5850  -21.8400 C   0  0  0  0  0  0
   -0.5340    2.2310  -21.3180 C   0  0  0  0  0  0
   -0.7890    5.4320  -23.4880 F   0  0  0  0  0  0
   -3.7600    2.8970  -20.3440 F   0  0  0  0  0  0
    1.8510    5.7200  -23.0130 N   0  0  0  0  0  0
    4.0620    4.7770  -23.0500 N   0  0  0  0  0  0
    0.3410    2.2500  -24.8180 N   0  0  0  0  0  0
    4.4990    2.5720  -23.6570 N   0  0  0  0  0  0
    6.4970    0.8230  -22.4880 N   0  0  1  0  0  0
   -3.7300    3.5340  -28.0040 O   0  0  0  0  0  0
   -5.9919    3.4693  -21.3754 H   0  0  0  0  0  0
   -6.4343    3.7829  -23.7735 H   0  0  0  0  0  0
    5.6087    3.7282  -21.3251 H   0  0  0  0  0  0
    6.8453    2.7441  -20.4237 H   0  0  0  0  0  0
    6.3736    2.4180  -24.6741 H   0  0  0  0  0  0
    6.1204    3.9580  -23.7913 H   0  0  0  0  0  0
   -5.5988    3.8317  -26.1254 H   0  0  0  0  0  0
    2.2808    1.4954  -24.7642 H   0  0  0  0  0  0
    3.1210    1.0796  -22.8561 H   0  0  0  0  0  0
    4.3375    0.4236  -24.0166 H   0  0  0  0  0  0
    4.8457   -0.2409  -21.6564 H   0  0  0  0  0  0
    7.7659    2.5433  -22.5773 H   0  0  0  0  0  0
    4.0759    2.2726  -20.8357 H   0  0  0  0  0  0
    5.3396    1.2623  -19.9315 H   0  0  0  0  0  0
   -1.4493    3.3039  -26.9776 H   0  0  0  0  0  0
    0.3645    1.9198  -20.8587 H   0  0  0  0  0  0
    7.1301    0.3225  -21.7704 H   0  0  0  0  0  0
   -2.8798    3.4370  -28.4167 H   0  0  0  0  0  0
    3.0680    8.0740  -22.6230 O   0  0  0  0  0  0
    5.7820    9.6340  -23.3080 N   0  0  0  0  0  0
    7.7190    8.7270  -22.3270 N   0  3  0  0  0  0
    4.9100    7.0570  -21.7380 N   0  0  0  0  0  0
    5.5330    8.3090  -21.2840 C   0  0  0  0  0  0
    6.3970    8.9180  -22.3640 C   0  0  0  0  0  0
    3.7280    7.0710  -22.3800 C   0  0  0  0  0  0
    4.7584    9.7461  -23.2840 H   0  0  0  0  0  0
    6.3309   10.0730  -24.0609 H   0  0  0  0  0  0
    8.1371    8.1649  -21.5719 H   0  0  0  0  0  0
    8.3190    9.1420  -23.0541 H   0  0  0  0  0  0
    5.3751    6.1888  -21.5650 H   0  0  0  0  0  0
    6.1457    8.1101  -20.3924 H   0  0  0  0  0  0
    4.7483    9.0237  -20.9951 H   0  0  0  0  0  0
  1  2  2  0  0  0
  1  3  1  0  0  0
  1 34  1  0  0  0
  2  6  1  0  0  0
  2 35  1  0  0  0
  3  5  2  0  0  0
  3 27  1  0  0  0
  4  5  1  0  0  0
  4  6  2  0  0  0
  4 18  1  0  0  0
  5 24  1  0  0  0
  6 10  1  0  0  0
  7 10  2  0  0  0
  7 23  1  0  0  0
  7 33  1  0  0  0
  8 21  1  0  0  0
  8 22  1  0  0  0
  8 36  1  0  0  0
  8 37  1  0  0  0
  9 21  1  0  0  0
  9 31  1  0  0  0
  9 38  1  0  0  0
  9 39  1  0  0  0
 10 40  1  0  0  0
 11 12  1  0  0  0
 11 14  2  0  0  0
 11 15  1  0  0  0
 12 17  1  0  0  0
 12 28  2  0  0  0
 13 28  1  0  0  0
 13 29  2  0  0  0
 13 58  1  0  0  0
 14 29  1  0  0  0
 14 31  1  0  0  0
 15 30  2  0  0  0
 15 41  1  0  0  0
 16 17  2  0  0  0
 16 18  1  0  0  0
 16 30  1  0  0  0
 17 26  1  0  0  0
 18 23  2  0  0  0
 19 20  1  0  0  0
 19 31  1  0  0  0
 19 42  1  0  0  0
 19 43  1  0  0  0
 20 22  1  0  0  0
 20 32  1  0  0  0
 20 44  1  0  0  0
 21 32  1  0  0  0
 21 45  1  0  0  0
 22 46  1  0  0  0
 22 47  1  0  0  0
 23 48  1  0  0  0
 24 25  3  0  0  0
 25 49  1  0  0  0
 32 50  1  0  0  0
 33 51  1  0  0  0
 52 58  2  0  0  0
 53 57  1  0  0  0
 53 59  1  0  0  0
 53 60  1  0  0  0
 54 57  2  0  0  0
 54 61  1  0  0  0
 54 62  1  0  0  0
 55 56  1  0  0  0
 55 58  1  0  0  0
 55 63  1  0  0  0
 56 57  1  0  0  0
 56 64  1  0  0  0
 56 65  1  0  0  0
M  CHG  1  54   1
M  END
> <s_m_entry_id>
500

> <s_m_entry_name>
000000500.1

> <s_m_Source_Path>
/Users/zaksoul/Documents/2

> <s_m_Source_File>
000000500.mol2

> <i_m_Source_File_Index>
1

$$$$
No_0_524
                    3D
 Schrodinger Suite 2022-4.
 72 78  0  0  1  0            999 V2000
   -5.1770    3.3280  -22.4280 C   0  0  0  0  0  0
   -5.4050    3.5110  -23.7710 C   0  0  0  0  0  0
   -3.9450    3.1050  -22.0480 C   0  0  0  0  0  0
   -2.9880    3.2540  -24.1840 C   0  0  0  0  0  0
   -2.8670    3.0130  -22.7590 C   0  0  0  0  0  0
   -4.3240    3.4840  -24.7480 C   0  0  0  0  0  0
   -3.5000    3.5270  -26.9210 C   0  0  0  0  0  0
    6.0710    3.0250  -21.3480 C   0  0  0  0  0  0
    6.0100    3.1660  -23.9010 C   0  0  0  0  0  0
   -4.5360    3.6070  -26.0900 C   0  0  0  0  0  0
    2.2160    3.6220  -24.0380 C   0  0  0  0  0  0
    1.3590    4.7100  -23.7650 C   0  0  0  0  0  0
    3.1050    5.9490  -23.0280 C   0  0  0  0  0  0
    3.6010    3.8470  -23.6810 C   0  0  0  0  0  0
    1.7180    2.4920  -24.7170 C   0  0  0  0  0  0
   -0.4310    3.2530  -24.6740 C   0  0  0  0  0  0
    0.0470    4.4860  -24.0580 C   0  0  0  0  0  0
   -1.8710    3.2240  -25.0740 C   0  0  0  0  0  0
    4.2570    1.3640  -23.3700 C   0  0  0  0  0  0
    5.1620    1.0300  -22.1940 C   0  0  2  0  0  0
    6.7340    2.6100  -22.6800 C   0  0  2  0  0  0
    5.0830    2.0300  -21.0280 C   0  0  0  0  0  0
   -2.1550    3.3770  -26.5120 C   0  0  0  0  0  0
   -1.5320    2.6320  -22.1180 C   0  0  0  0  0  0
   -0.5100    2.3090  -21.5800 C   0  0  0  0  0  0
   -0.8310    5.5100  -23.7410 F   0  0  0  0  0  0
   -3.7720    2.8660  -20.6600 F   0  0  0  0  0  0
    1.7900    5.8800  -23.2190 N   0  0  0  0  0  0
    4.0310    5.0080  -23.2200 N   0  0  0  0  0  0
    0.4250    2.3710  -25.0630 N   0  0  0  0  0  0
    4.5490    2.8210  -23.8290 N   0  0  0  0  0  0
    6.5820    1.1320  -22.6320 N   0  0  1  0  0  0
   -3.6290    3.5380  -28.3150 O   0  0  0  0  0  0
   -6.0031    3.3702  -21.7274 H   0  0  0  0  0  0
   -6.4130    3.6817  -24.1314 H   0  0  0  0  0  0
    5.5806    4.0018  -21.4721 H   0  0  0  0  0  0
    6.8317    3.0543  -20.5540 H   0  0  0  0  0  0
    6.4450    2.7320  -24.8134 H   0  0  0  0  0  0
    6.1280    4.2593  -23.9292 H   0  0  0  0  0  0
   -5.5390    3.7676  -26.4685 H   0  0  0  0  0  0
    2.3867    1.6797  -24.9780 H   0  0  0  0  0  0
    3.2053    1.2822  -23.0581 H   0  0  0  0  0  0
    4.4629    0.6706  -24.1987 H   0  0  0  0  0  0
    4.9510    0.0124  -21.8336 H   0  0  0  0  0  0
    7.7970    2.8927  -22.6921 H   0  0  0  0  0  0
    4.0868    2.4963  -21.0159 H   0  0  0  0  0  0
    5.3664    1.5227  -20.0940 H   0  0  0  0  0  0
   -1.3609    3.3770  -27.2499 H   0  0  0  0  0  0
    0.3899    2.0250  -21.1060 H   0  0  0  0  0  0
    7.2183    0.6497  -21.9048 H   0  0  0  0  0  0
   -2.7693    3.4707  -28.7137 H   0  0  0  0  0  0
    8.1510   10.8350  -23.3380 O   0  0  0  0  0  0
    3.0530    8.2880  -22.9840 O   0  0  0  0  0  0
    6.1970    9.0740  -22.2360 N   0  0  0  0  0  0
    4.6390    7.2940  -21.6820 N   0  0  0  0  0  0
    5.2050    8.5690  -21.2220 C   0  0  0  0  0  0
    5.7930   10.3940  -22.8370 C   0  0  0  0  0  0
    7.6100    9.0780  -21.7140 C   0  0  0  0  0  0
    8.5650    9.5530  -22.8270 C   0  0  0  0  0  0
    6.8260   10.8030  -23.9040 C   0  0  0  0  0  0
    3.6110    7.2870  -22.5470 C   0  0  0  0  0  0
    5.0191    6.4307  -21.3499 H   0  0  0  0  0  0
    4.3971    9.3059  -21.1020 H   0  0  0  0  0  0
    5.7111    8.4190  -20.2569 H   0  0  0  0  0  0
    5.7580   11.1598  -22.0482 H   0  0  0  0  0  0
    4.8024   10.2950  -23.3048 H   0  0  0  0  0  0
    7.8891    8.0608  -21.4019 H   0  0  0  0  0  0
    7.6820    9.7611  -20.8548 H   0  0  0  0  0  0
    9.5859    9.6310  -22.4250 H   0  0  0  0  0  0
    8.5700    8.8168  -23.6443 H   0  0  0  0  0  0
    6.8000   10.0829  -24.7351 H   0  0  0  0  0  0
    6.5719   11.7984  -24.2972 H   0  0  0  0  0  0
  1  2  2  0  0  0
  1  3  1  0  0  0
  1 34  1  0  0  0
  2  6  1  0  0  0
  2 35  1  0  0  0
  3  5  2  0  0  0
  3 27  1  0  0  0
  4  5  1  0  0  0
  4  6  2  0  0  0
  4 18  1  0  0  0
  5 24  1  0  0  0
  6 10  1  0  0  0
  7 10  2  0  0  0
  7 23  1  0  0  0
  7 33  1  0  0  0
  8 21  1  0  0  0
  8 22  1  0  0  0
  8 36  1  0  0  0
  8 37  1  0  0  0
  9 21  1  0  0  0
  9 31  1  0  0  0
  9 38  1  0  0  0
  9 39  1  0  0  0
 10 40  1  0  0  0
 11 12  1  0  0  0
 11 14  2  0  0  0
 11 15  1  0  0  0
 12 17  1  0  0  0
 12 28  2  0  0  0
 13 28  1  0  0  0
 13 29  2  0  0  0
 13 61  1  0  0  0
 14 29  1  0  0  0
 14 31  1  0  0  0
 15 30  2  0  0  0
 15 41  1  0  0  0
 16 17  2  0  0  0
 16 18  1  0  0  0
 16 30  1  0  0  0
 17 26  1  0  0  0
 18 23  2  0  0  0
 19 20  1  0  0  0
 19 31  1  0  0  0
 19 42  1  0  0  0
 19 43  1  0  0  0
 20 22  1  0  0  0
 20 32  1  0  0  0
 20 44  1  0  0  0
 21 32  1  0  0  0
 21 45  1  0  0  0
 22 46  1  0  0  0
 22 47  1  0  0  0
 23 48  1  0  0  0
 24 25  3  0  0  0
 25 49  1  0  0  0
 32 50  1  0  0  0
 33 51  1  0  0  0
 52 59  1  0  0  0
 52 60  1  0  0  0
 53 61  2  0  0  0
 54 56  1  0  0  0
 54 57  1  0  0  0
 54 58  1  0  0  0
 55 56  1  0  0  0
 55 61  1  0  0  0
 55 62  1  0  0  0
 56 63  1  0  0  0
 56 64  1  0  0  0
 57 60  1  0  0  0
 57 65  1  0  0  0
 57 66  1  0  0  0
 58 59  1  0  0  0
 58 67  1  0  0  0
 58 68  1  0  0  0
 59 69  1  0  0  0
 59 70  1  0  0  0
 60 71  1  0  0  0
 60 72  1  0  0  0
M  END
> <s_m_entry_id>
501

> <s_m_entry_name>
000000501.1

> <s_m_Source_Path>
/Users/zaksoul/Documents/2

> <s_m_Source_File>
000000501.mol2

> <i_m_Source_File_Index>
1

$$$$
No_0_525
                    3D
 Schrodinger Suite 2022-4.
 72 78  0  0  1  0            999 V2000
   -5.1210    3.6790  -22.1500 C   0  0  0  0  0  0
   -5.3530    3.8630  -23.4920 C   0  0  0  0  0  0
   -3.8930    3.4190  -21.7770 C   0  0  0  0  0  0
   -2.9480    3.5270  -23.9210 C   0  0  0  0  0  0
   -2.8240    3.2890  -22.4950 C   0  0  0  0  0  0
   -4.2800    3.7970  -24.4760 C   0  0  0  0  0  0
   -3.4710    3.8010  -26.6550 C   0  0  0  0  0  0
    6.1190    3.0220  -21.1470 C   0  0  0  0  0  0
    6.0450    3.1510  -23.6990 C   0  0  0  0  0  0
   -4.4970    3.9190  -25.8180 C   0  0  0  0  0  0
    2.2660    3.7280  -23.8130 C   0  0  0  0  0  0
    1.4460    4.8440  -23.5400 C   0  0  0  0  0  0
    3.2360    6.0300  -22.8220 C   0  0  0  0  0  0
    3.6600    3.9100  -23.4670 C   0  0  0  0  0  0
    1.7280    2.6110  -24.4820 C   0  0  0  0  0  0
   -0.3950    3.4410  -24.4280 C   0  0  0  0  0  0
    0.1260    4.6610  -23.8230 C   0  0  0  0  0  0
   -1.8390    3.4560  -24.8190 C   0  0  0  0  0  0
    4.2390    1.4090  -23.1470 C   0  0  0  0  0  0
    5.1410    1.0520  -21.9750 C   0  0  2  0  0  0
    6.7580    2.5780  -22.4800 C   0  0  2  0  0  0
    5.1020    2.0600  -20.8140 C   0  0  0  0  0  0
   -2.1280    3.6100  -26.2550 C   0  0  0  0  0  0
   -1.4980    2.8690  -21.8610 C   0  0  0  0  0  0
   -0.4830    2.5160  -21.3280 C   0  0  0  0  0  0
   -0.7160    5.7140  -23.5050 F   0  0  0  0  0  0
   -3.7190    3.1820  -20.3890 F   0  0  0  0  0  0
    1.9190    6.0020  -23.0030 N   0  0  0  0  0  0
    4.1310    5.0590  -23.0150 N   0  0  0  0  0  0
    0.4290    2.5300  -24.8190 N   0  0  0  0  0  0
    4.5740    2.8540  -23.6150 N   0  0  0  0  0  0
    6.5600    1.1060  -22.4230 N   0  0  1  0  0  0
   -3.6090    3.8090  -28.0490 O   0  0  0  0  0  0
   -5.9399    3.7523  -21.4435 H   0  0  0  0  0  0
   -6.3575    4.0639  -23.8466 H   0  0  0  0  0  0
    5.6588    4.0131  -21.2732 H   0  0  0  0  0  0
    6.8856    3.0311  -20.3582 H   0  0  0  0  0  0
    6.4588    2.6988  -24.6124 H   0  0  0  0  0  0
    6.1974    4.2398  -23.7343 H   0  0  0  0  0  0
   -5.4971    4.1096  -26.1902 H   0  0  0  0  0  0
    2.3674    1.7758  -24.7440 H   0  0  0  0  0  0
    3.1876    1.3626  -22.8271 H   0  0  0  0  0  0
    4.4167    0.7054  -23.9737 H   0  0  0  0  0  0
    4.8998    0.0436  -21.6076 H   0  0  0  0  0  0
    7.8292    2.8271  -22.5022 H   0  0  0  0  0  0
    4.1215    2.5583  -20.7979 H   0  0  0  0  0  0
    5.3756    1.5491  -19.8791 H   0  0  0  0  0  0
   -1.3400    3.5809  -26.9988 H   0  0  0  0  0  0
    0.4104    2.2049  -20.8588 H   0  0  0  0  0  0
    7.1859    0.6074  -21.6976 H   0  0  0  0  0  0
   -2.7546    3.7120  -28.4529 H   0  0  0  0  0  0
    7.9950   11.1250  -23.7350 O   0  0  0  0  0  0
    3.1300    8.3570  -22.6040 O   0  0  0  0  0  0
    6.3370    9.2200  -22.4100 N   0  0  0  0  0  0
    4.9630    7.3470  -21.6980 N   0  0  0  0  0  0
    5.5710    8.6120  -21.2650 C   0  0  0  0  0  0
    5.7890   10.5580  -22.8290 C   0  0  0  0  0  0
    7.8230    9.2480  -22.1660 C   0  0  0  0  0  0
    8.5340    9.8310  -23.4030 C   0  0  0  0  0  0
    6.5870   11.0770  -24.0400 C   0  0  0  0  0  0
    3.7890    7.3540  -22.3520 C   0  0  0  0  0  0
    5.4231    6.4799  -21.5070 H   0  0  0  0  0  0
    4.7815    9.3064  -20.9418 H   0  0  0  0  0  0
    6.2571    8.4200  -20.4269 H   0  0  0  0  0  0
    5.8849   11.2695  -21.9956 H   0  0  0  0  0  0
    4.7299   10.4500  -23.1060 H   0  0  0  0  0  0
    8.1838    8.2247  -21.9851 H   0  0  0  0  0  0
    8.0390    9.8760  -21.2891 H   0  0  0  0  0  0
    9.6105    9.9240  -23.1969 H   0  0  0  0  0  0
    8.4020    9.1490  -24.2559 H   0  0  0  0  0  0
    6.4220   10.4111  -24.8999 H   0  0  0  0  0  0
    6.2349   12.0843  -24.3071 H   0  0  0  0  0  0
  1  2  2  0  0  0
  1  3  1  0  0  0
  1 34  1  0  0  0
  2  6  1  0  0  0
  2 35  1  0  0  0
  3  5  2  0  0  0
  3 27  1  0  0  0
  4  5  1  0  0  0
  4  6  2  0  0  0
  4 18  1  0  0  0
  5 24  1  0  0  0
  6 10  1  0  0  0
  7 10  2  0  0  0
  7 23  1  0  0  0
  7 33  1  0  0  0
  8 21  1  0  0  0
  8 22  1  0  0  0
  8 36  1  0  0  0
  8 37  1  0  0  0
  9 21  1  0  0  0
  9 31  1  0  0  0
  9 38  1  0  0  0
  9 39  1  0  0  0
 10 40  1  0  0  0
 11 12  1  0  0  0
 11 14  2  0  0  0
 11 15  1  0  0  0
 12 17  1  0  0  0
 12 28  2  0  0  0
 13 28  1  0  0  0
 13 29  2  0  0  0
 13 61  1  0  0  0
 14 29  1  0  0  0
 14 31  1  0  0  0
 15 30  2  0  0  0
 15 41  1  0  0  0
 16 17  2  0  0  0
 16 18  1  0  0  0
 16 30  1  0  0  0
 17 26  1  0  0  0
 18 23  2  0  0  0
 19 20  1  0  0  0
 19 31  1  0  0  0
 19 42  1  0  0  0
 19 43  1  0  0  0
 20 22  1  0  0  0
 20 32  1  0  0  0
 20 44  1  0  0  0
 21 32  1  0  0  0
 21 45  1  0  0  0
 22 46  1  0  0  0
 22 47  1  0  0  0
 23 48  1  0  0  0
 24 25  3  0  0  0
 25 49  1  0  0  0
 32 50  1  0  0  0
 33 51  1  0  0  0
 52 59  1  0  0  0
 52 60  1  0  0  0
 53 61  2  0  0  0
 54 56  1  0  0  0
 54 57  1  0  0  0
 54 58  1  0  0  0
 55 56  1  0  0  0
 55 61  1  0  0  0
 55 62  1  0  0  0
 56 63  1  0  0  0
 56 64  1  0  0  0
 57 60  1  0  0  0
 57 65  1  0  0  0
 57 66  1  0  0  0
 58 59  1  0  0  0
 58 67  1  0  0  0
 58 68  1  0  0  0
 59 69  1  0  0  0
 59 70  1  0  0  0
 60 71  1  0  0  0
 60 72  1  0  0  0
M  END
> <s_m_entry_id>
502

> <s_m_entry_name>
000000502.1

> <s_m_Source_Path>
/Users/zaksoul/Documents/2

> <s_m_Source_File>
000000502.mol2

> <i_m_Source_File_Index>
1

$$$$
No_0_526
                    3D
 Schrodinger Suite 2022-4.
 67 72  0  0  1  0            999 V2000
   -5.0480    3.4560  -21.7100 C   0  0  0  0  0  0
   -5.3480    3.6350  -23.0400 C   0  0  0  0  0  0
   -3.8000    3.2180  -21.3970 C   0  0  0  0  0  0
   -2.9610    3.3440  -23.5840 C   0  0  0  0  0  0
   -2.7640    3.1080  -22.1670 C   0  0  0  0  0  0
   -4.3230    3.5890  -24.0740 C   0  0  0  0  0  0
   -3.6200    3.6090  -26.2900 C   0  0  0  0  0  0
    6.2380    3.0070  -21.2520 C   0  0  0  0  0  0
    6.0370    3.1360  -23.7980 C   0  0  0  0  0  0
   -4.6070    3.7070  -25.4040 C   0  0  0  0  0  0
    2.2480    3.6420  -23.7290 C   0  0  0  0  0  0
    1.4220    4.7430  -23.4150 C   0  0  0  0  0  0
    3.2220    5.9610  -22.7830 C   0  0  0  0  0  0
    3.6530    3.8490  -23.4500 C   0  0  0  0  0  0
    1.6980    2.5150  -24.3720 C   0  0  0  0  0  0
   -0.4350    3.3060  -24.2150 C   0  0  0  0  0  0
    0.0920    4.5350  -23.6340 C   0  0  0  0  0  0
   -1.8960    3.2940  -24.5350 C   0  0  0  0  0  0
    4.2930    1.3600  -23.1610 C   0  0  0  0  0  0
    5.2570    1.0200  -22.0350 C   0  0  2  0  0  0
    6.8200    2.5750  -22.6160 C   0  0  2  0  0  0
    5.2560    2.0260  -20.8720 C   0  0  0  0  0  0
   -2.2560    3.4430  -25.9550 C   0  0  0  0  0  0
   -1.4010    2.7120  -21.5980 C   0  0  0  0  0  0
   -0.3550    2.3780  -21.1150 C   0  0  0  0  0  0
   -0.7530    5.5720  -23.2740 F   0  0  0  0  0  0
   -3.5540    2.9840  -20.0200 F   0  0  0  0  0  0
    1.8980    5.9090  -22.9000 N   0  0  0  0  0  0
    4.1230    5.0070  -23.0200 N   0  0  0  0  0  0
    0.3860    2.4100  -24.6460 N   0  0  0  0  0  0
    4.5780    2.8110  -23.6440 N   0  0  0  0  0  0
    6.6510    1.1000  -22.5510 N   0  0  1  0  0  0
   -3.8260    3.6150  -27.6750 O   0  0  0  0  0  0
   -5.8333    3.5132  -20.9649 H   0  0  0  0  0  0
   -6.3720    3.8177  -23.3452 H   0  0  0  0  0  0
    5.7535    3.9892  -21.3550 H   0  0  0  0  0  0
    7.0420    3.0292  -20.5016 H   0  0  0  0  0  0
    6.4144    2.6910  -24.7305 H   0  0  0  0  0  0
    6.1673    4.2275  -23.8394 H   0  0  0  0  0  0
   -5.6273    3.8796  -25.7270 H   0  0  0  0  0  0
    2.3395    1.6918  -24.6651 H   0  0  0  0  0  0
    3.2594    1.2934  -22.7906 H   0  0  0  0  0  0
    4.4434    0.6595  -23.9957 H   0  0  0  0  0  0
    5.0533    0.0074  -21.6568 H   0  0  0  0  0  0
    7.8840    2.8445  -22.6887 H   0  0  0  0  0  0
    4.2684    2.5062  -20.8074 H   0  0  0  0  0  0
    5.5833    1.5199  -19.9518 H   0  0  0  0  0  0
   -1.5048    3.4289  -26.7364 H   0  0  0  0  0  0
    0.5662    2.0849  -20.6899 H   0  0  0  0  0  0
    7.3205    0.6123  -21.8580 H   0  0  0  0  0  0
   -2.9908    3.5339  -28.1203 H   0  0  0  0  0  0
    3.2060    8.3030  -22.7480 O   0  0  0  0  0  0
    6.3490    9.1190  -22.1080 N   0  0  0  0  0  0
    4.8440    7.2890  -21.5270 N   0  0  0  0  0  0
    5.4290    8.5530  -21.0590 C   0  0  0  0  0  0
    5.8390   10.4040  -22.6950 C   0  0  0  0  0  0
    7.7680    9.2420  -21.6290 C   0  0  0  0  0  0
    3.7720    7.2950  -22.3390 C   0  0  0  0  0  0
    5.2472    6.4205  -21.2388 H   0  0  0  0  0  0
    4.6245    9.2734  -20.8499 H   0  0  0  0  0  0
    5.9950    8.3740  -20.1330 H   0  0  0  0  0  0
    6.5495   10.7687  -23.4514 H   0  0  0  0  0  0
    4.8604   10.2299  -23.1663 H   0  0  0  0  0  0
    5.7340   11.1560  -21.8990 H   0  0  0  0  0  0
    8.3921    9.6591  -22.4331 H   0  0  0  0  0  0
    7.8040    9.9079  -20.7542 H   0  0  0  0  0  0
    8.1479    8.2483  -21.3491 H   0  0  0  0  0  0
  1  2  2  0  0  0
  1  3  1  0  0  0
  1 34  1  0  0  0
  2  6  1  0  0  0
  2 35  1  0  0  0
  3  5  2  0  0  0
  3 27  1  0  0  0
  4  5  1  0  0  0
  4  6  2  0  0  0
  4 18  1  0  0  0
  5 24  1  0  0  0
  6 10  1  0  0  0
  7 10  2  0  0  0
  7 23  1  0  0  0
  7 33  1  0  0  0
  8 21  1  0  0  0
  8 22  1  0  0  0
  8 36  1  0  0  0
  8 37  1  0  0  0
  9 21  1  0  0  0
  9 31  1  0  0  0
  9 38  1  0  0  0
  9 39  1  0  0  0
 10 40  1  0  0  0
 11 12  1  0  0  0
 11 14  2  0  0  0
 11 15  1  0  0  0
 12 17  1  0  0  0
 12 28  2  0  0  0
 13 28  1  0  0  0
 13 29  2  0  0  0
 13 58  1  0  0  0
 14 29  1  0  0  0
 14 31  1  0  0  0
 15 30  2  0  0  0
 15 41  1  0  0  0
 16 17  2  0  0  0
 16 18  1  0  0  0
 16 30  1  0  0  0
 17 26  1  0  0  0
 18 23  2  0  0  0
 19 20  1  0  0  0
 19 31  1  0  0  0
 19 42  1  0  0  0
 19 43  1  0  0  0
 20 22  1  0  0  0
 20 32  1  0  0  0
 20 44  1  0  0  0
 21 32  1  0  0  0
 21 45  1  0  0  0
 22 46  1  0  0  0
 22 47  1  0  0  0
 23 48  1  0  0  0
 24 25  3  0  0  0
 25 49  1  0  0  0
 32 50  1  0  0  0
 33 51  1  0  0  0
 52 58  2  0  0  0
 53 55  1  0  0  0
 53 56  1  0  0  0
 53 57  1  0  0  0
 54 55  1  0  0  0
 54 58  1  0  0  0
 54 59  1  0  0  0
 55 60  1  0  0  0
 55 61  1  0  0  0
 56 62  1  0  0  0
 56 63  1  0  0  0
 56 64  1  0  0  0
 57 65  1  0  0  0
 57 66  1  0  0  0
 57 67  1  0  0  0
M  END
> <s_m_entry_id>
503

> <s_m_entry_name>
000000503.1

> <s_m_Source_Path>
/Users/zaksoul/Documents/2

> <s_m_Source_File>
000000503.mol2

> <i_m_Source_File_Index>
1

$$$$
No_0_527
                    3D
 Schrodinger Suite 2022-4.
 74 80  0  0  1  0            999 V2000
   -5.0900    3.4870  -22.0590 C   0  0  0  0  0  0
   -5.3430    3.6750  -23.3980 C   0  0  0  0  0  0
   -3.8500    3.2660  -21.7030 C   0  0  0  0  0  0
   -2.9330    3.4270  -23.8550 C   0  0  0  0  0  0
   -2.7850    3.1800  -22.4340 C   0  0  0  0  0  0
   -4.2800    3.6560  -24.3930 C   0  0  0  0  0  0
   -3.4950    3.7090  -26.5810 C   0  0  0  0  0  0
    6.1770    3.2130  -21.1850 C   0  0  0  0  0  0
    6.0700    3.3640  -23.7360 C   0  0  0  0  0  0
   -4.5160    3.7830  -25.7320 C   0  0  0  0  0  0
    2.2720    3.8090  -23.8030 C   0  0  0  0  0  0
    1.4170    4.8930  -23.5100 C   0  0  0  0  0  0
    3.1730    6.1340  -22.8000 C   0  0  0  0  0  0
    3.6620    4.0360  -23.4690 C   0  0  0  0  0  0
    1.7650    2.6800  -24.4760 C   0  0  0  0  0  0
   -0.3850    3.4350  -24.3910 C   0  0  0  0  0  0
    0.1010    4.6670  -23.7800 C   0  0  0  0  0  0
   -1.8320    3.4040  -24.7660 C   0  0  0  0  0  0
    4.3310    1.5540  -23.1800 C   0  0  0  0  0  0
    5.2590    1.2180  -22.0220 C   0  0  2  0  0  0
    6.8160    2.8040  -22.5300 C   0  0  2  0  0  0
    5.1980    2.2130  -20.8510 C   0  0  0  0  0  0
   -2.1420    3.5610  -26.1970 C   0  0  0  0  0  0
   -1.4380    2.8010  -21.8180 C   0  0  0  0  0  0
   -0.4050    2.4790  -21.3000 C   0  0  0  0  0  0
   -0.7740    5.6870  -23.4420 F   0  0  0  0  0  0
   -3.6520    3.0230  -20.3190 F   0  0  0  0  0  0
    1.8550    6.0620  -22.9670 N   0  0  0  0  0  0
    4.0980    5.1970  -23.0120 N   0  0  0  0  0  0
    0.4660    2.5570  -24.8000 N   0  0  0  0  0  0
    4.6110    3.0140  -23.6380 N   0  0  0  0  0  0
    6.6700    1.3260  -22.4850 N   0  0  1  0  0  0
   -3.6500    3.7250  -27.9730 O   0  0  0  0  0  0
   -5.9032    3.5251  -21.3432 H   0  0  0  0  0  0
   -6.3578    3.8446  -23.7393 H   0  0  0  0  0  0
    5.6812    4.1885  -21.2971 H   0  0  0  0  0  0
    6.9521    3.2402  -20.4049 H   0  0  0  0  0  0
    6.4890    2.9339  -24.6577 H   0  0  0  0  0  0
    6.1831    4.4579  -23.7613 H   0  0  0  0  0  0
   -5.5264    3.9415  -26.0912 H   0  0  0  0  0  0
    2.4307    1.8707  -24.7531 H   0  0  0  0  0  0
    3.2856    1.4672  -22.8490 H   0  0  0  0  0  0
    4.5237    0.8649  -24.0154 H   0  0  0  0  0  0
    5.0571    0.1985  -21.6616 H   0  0  0  0  0  0
    7.8776    3.0906  -22.5613 H   0  0  0  0  0  0
    4.2008    2.6763  -20.8187 H   0  0  0  0  0  0
    5.4989    1.7030  -19.9240 H   0  0  0  0  0  0
   -1.3621    3.5660  -26.9498 H   0  0  0  0  0  0
    0.5041    2.1950  -20.8439 H   0  0  0  0  0  0
    7.3202    0.8415  -21.7717 H   0  0  0  0  0  0
   -2.7970    3.6627  -28.3866 H   0  0  0  0  0  0
    3.1110    8.4670  -22.7490 O   0  0  0  0  0  0
    8.7650    9.2100  -22.0920 N   0  0  0  0  0  0
    4.7220    7.4810  -21.4670 N   0  0  0  0  0  0
    9.7890   10.4650  -23.8150 N   0  0  0  0  0  0
    5.2460    8.7500  -20.9360 C   0  0  0  0  0  0
    7.6460    8.8130  -21.4100 C   0  0  0  0  0  0
    6.2990   10.1500  -22.8520 C   0  0  3  0  0  0
    6.4180    9.2620  -21.7660 C   0  0  0  0  0  0
    8.6670   10.0670  -23.1410 C   0  0  0  0  0  0
    7.4170   10.5390  -23.5250 C   0  0  0  0  0  0
    4.9960   10.7300  -23.3750 C   0  0  0  0  0  0
    3.6840    7.4720  -22.3230 C   0  0  0  0  0  0
    9.6912    8.8579  -21.8109 H   0  0  0  0  0  0
    5.1450    6.6199  -21.1850 H   0  0  0  0  0  0
    9.7090   11.1150  -24.6100 H   0  0  0  0  0  0
   10.7139   10.1150  -23.5270 H   0  0  0  0  0  0
    5.5700    8.6050  -19.8949 H   0  0  0  0  0  0
    4.4446    9.5034  -20.9300 H   0  0  0  0  0  0
    7.7360    8.1311  -20.5721 H   0  0  0  0  0  0
    7.3350   11.2202  -24.3642 H   0  0  0  0  0  0
    5.2050   11.3910  -24.2290 H   0  0  0  0  0  0
    4.3340    9.9130  -23.6980 H   0  0  0  0  0  0
    4.5041   11.3058  -22.5772 H   0  0  0  0  0  0
  1  2  2  0  0  0
  1  3  1  0  0  0
  1 34  1  0  0  0
  2  6  1  0  0  0
  2 35  1  0  0  0
  3  5  2  0  0  0
  3 27  1  0  0  0
  4  5  1  0  0  0
  4  6  2  0  0  0
  4 18  1  0  0  0
  5 24  1  0  0  0
  6 10  1  0  0  0
  7 10  2  0  0  0
  7 23  1  0  0  0
  7 33  1  0  0  0
  8 21  1  0  0  0
  8 22  1  0  0  0
  8 36  1  0  0  0
  8 37  1  0  0  0
  9 21  1  0  0  0
  9 31  1  0  0  0
  9 38  1  0  0  0
  9 39  1  0  0  0
 10 40  1  0  0  0
 11 12  2  0  0  0
 11 14  1  0  0  0
 11 15  1  0  0  0
 12 17  1  0  0  0
 12 28  1  0  0  0
 13 28  2  0  0  0
 13 29  1  0  0  0
 13 63  1  0  0  0
 14 29  2  0  0  0
 14 31  1  0  0  0
 15 30  2  0  0  0
 15 41  1  0  0  0
 16 17  2  0  0  0
 16 18  1  0  0  0
 16 30  1  0  0  0
 17 26  1  0  0  0
 18 23  2  0  0  0
 19 20  1  0  0  0
 19 31  1  0  0  0
 19 42  1  0  0  0
 19 43  1  0  0  0
 20 22  1  0  0  0
 20 32  1  0  0  0
 20 44  1  0  0  0
 21 32  1  0  0  0
 21 45  1  0  0  0
 22 46  1  0  0  0
 22 47  1  0  0  0
 23 48  1  0  0  0
 24 25  3  0  0  0
 25 49  1  0  0  0
 32 50  1  0  0  0
 33 51  1  0  0  0
 52 63  2  0  0  0
 53 57  1  0  0  0
 53 60  1  0  0  0
 53 64  1  0  0  0
 54 56  1  0  0  0
 54 63  1  0  0  0
 54 65  1  0  0  0
 55 60  1  0  0  0
 55 66  1  0  0  0
 55 67  1  0  0  0
 56 59  1  0  0  0
 56 68  1  0  0  0
 56 69  1  0  0  0
 57 59  2  0  0  0
 57 70  1  0  0  0
 58 59  1  0  0  0
 58 61  1  0  0  0
 58 62  1  0  0  0
 60 61  2  0  0  0
 61 71  1  0  0  0
 62 72  1  0  0  0
 62 73  1  0  0  0
 62 74  1  0  0  0
M  END
> <s_m_entry_id>
504

> <s_m_entry_name>
000000504.1

> <s_m_Source_Path>
/Users/zaksoul/Documents/2

> <s_m_Source_File>
000000504.mol2

> <i_m_Source_File_Index>
1

$$$$
No_0_528
                    3D
 Schrodinger Suite 2022-4.
 70 76  0  0  1  0            999 V2000
   -5.0340    3.5680  -22.0830 C   0  0  0  0  0  0
   -5.2880    3.7450  -23.4220 C   0  0  0  0  0  0
   -3.7940    3.3460  -21.7250 C   0  0  0  0  0  0
   -2.8790    3.4840  -23.8800 C   0  0  0  0  0  0
   -2.7300    3.2490  -22.4570 C   0  0  0  0  0  0
   -4.2260    3.7120  -24.4190 C   0  0  0  0  0  0
   -3.4440    3.7430  -26.6080 C   0  0  0  0  0  0
    6.2330    3.2620  -21.2200 C   0  0  0  0  0  0
    6.1230    3.3900  -23.7720 C   0  0  0  0  0  0
   -4.4640    3.8280  -25.7580 C   0  0  0  0  0  0
    2.3270    3.8480  -23.8380 C   0  0  0  0  0  0
    1.4760    4.9380  -23.5540 C   0  0  0  0  0  0
    3.2370    6.1790  -22.8570 C   0  0  0  0  0  0
    3.7180    4.0730  -23.5080 C   0  0  0  0  0  0
    1.8150    2.7150  -24.5010 C   0  0  0  0  0  0
   -0.3320    3.4790  -24.4200 C   0  0  0  0  0  0
    0.1590    4.7130  -23.8200 C   0  0  0  0  0  0
   -1.7800    3.4490  -24.7920 C   0  0  0  0  0  0
    4.3790    1.5920  -23.1980 C   0  0  0  0  0  0
    5.3070    1.2630  -22.0380 C   0  0  2  0  0  0
    6.8690    2.8390  -22.5620 C   0  0  2  0  0  0
    5.2510    2.2680  -20.8760 C   0  0  0  0  0  0
   -2.0910    3.5940  -26.2250 C   0  0  0  0  0  0
   -1.3840    2.8710  -21.8400 C   0  0  0  0  0  0
   -0.3520    2.5500  -21.3200 C   0  0  0  0  0  0
   -0.7120    5.7400  -23.4910 F   0  0  0  0  0  0
   -3.5950    3.1140  -20.3400 F   0  0  0  0  0  0
    1.9190    6.1100  -23.0220 N   0  0  0  0  0  0
    4.1590    5.2370  -23.0620 N   0  0  0  0  0  0
    0.5150    2.5940  -24.8220 N   0  0  0  0  0  0
    4.6630    3.0470  -23.6700 N   0  0  0  0  0  0
    6.7170    1.3610  -22.5040 N   0  0  1  0  0  0
   -3.6000    3.7480  -28.0000 O   0  0  0  0  0  0
   -5.8460    3.6152  -21.3664 H   0  0  0  0  0  0
   -6.3028    3.9146  -23.7633 H   0  0  0  0  0  0
    5.7404    4.2382  -21.3401 H   0  0  0  0  0  0
    7.0090    3.2943  -20.4410 H   0  0  0  0  0  0
    6.5390    2.9508  -24.6907 H   0  0  0  0  0  0
    6.2411    4.4831  -23.8073 H   0  0  0  0  0  0
   -5.4741    3.9877  -26.1175 H   0  0  0  0  0  0
    2.4776    1.9007  -24.7711 H   0  0  0  0  0  0
    3.3336    1.5123  -22.8650 H   0  0  0  0  0  0
    4.5687    0.8948  -24.0274 H   0  0  0  0  0  0
    5.1021    0.2474  -21.6685 H   0  0  0  0  0  0
    7.9318    3.1206  -22.5973 H   0  0  0  0  0  0
    4.2559    2.7358  -20.8468 H   0  0  0  0  0  0
    5.5517    1.7656  -19.9448 H   0  0  0  0  0  0
   -1.3121    3.5900  -26.9788 H   0  0  0  0  0  0
    0.5566    2.2671  -20.8622 H   0  0  0  0  0  0
    7.3681    0.8820  -21.7877 H   0  0  0  0  0  0
   -2.7481    3.6778  -28.4146 H   0  0  0  0  0  0
    3.1910    8.5200  -22.8210 O   0  0  0  0  0  0
    8.9450    8.9910  -22.0860 N   0  0  0  0  0  0
    4.7990    7.5180  -21.5450 N   0  0  0  0  0  0
   10.0500   10.3090  -23.7090 N   0  0  0  0  0  0
    6.6120    9.1680  -21.7500 C   0  0  0  0  0  0
    7.6800   10.4840  -23.4400 C   0  0  0  0  0  0
    5.3440    8.7750  -21.0120 C   0  0  0  0  0  0
    8.9010    9.9210  -23.0770 C   0  0  0  0  0  0
    3.7540    7.5200  -22.3930 C   0  0  0  0  0  0
    6.5480   10.1090  -22.7840 C   0  0  0  0  0  0
    7.8070    8.6240  -21.4190 C   0  0  0  0  0  0
    5.2162    6.6525  -21.2678 H   0  0  0  0  0  0
   10.0120   11.0140  -24.4590 H   0  0  0  0  0  0
   10.9533    9.8969  -23.4349 H   0  0  0  0  0  0
    7.6370   11.2151  -24.2392 H   0  0  0  0  0  0
    5.5661    8.6539  -19.9415 H   0  0  0  0  0  0
    4.5953    9.5736  -21.1200 H   0  0  0  0  0  0
    5.5952   10.5429  -23.0649 H   0  0  0  0  0  0
    7.8580    7.8926  -20.6206 H   0  0  0  0  0  0
  1  2  2  0  0  0
  1  3  1  0  0  0
  1 34  1  0  0  0
  2  6  1  0  0  0
  2 35  1  0  0  0
  3  5  2  0  0  0
  3 27  1  0  0  0
  4  5  1  0  0  0
  4  6  2  0  0  0
  4 18  1  0  0  0
  5 24  1  0  0  0
  6 10  1  0  0  0
  7 10  2  0  0  0
  7 23  1  0  0  0
  7 33  1  0  0  0
  8 21  1  0  0  0
  8 22  1  0  0  0
  8 36  1  0  0  0
  8 37  1  0  0  0
  9 21  1  0  0  0
  9 31  1  0  0  0
  9 38  1  0  0  0
  9 39  1  0  0  0
 10 40  1  0  0  0
 11 12  1  0  0  0
 11 14  2  0  0  0
 11 15  1  0  0  0
 12 17  1  0  0  0
 12 28  2  0  0  0
 13 28  1  0  0  0
 13 29  2  0  0  0
 13 60  1  0  0  0
 14 29  1  0  0  0
 14 31  1  0  0  0
 15 30  2  0  0  0
 15 41  1  0  0  0
 16 17  2  0  0  0
 16 18  1  0  0  0
 16 30  1  0  0  0
 17 26  1  0  0  0
 18 23  2  0  0  0
 19 20  1  0  0  0
 19 31  1  0  0  0
 19 42  1  0  0  0
 19 43  1  0  0  0
 20 22  1  0  0  0
 20 32  1  0  0  0
 20 44  1  0  0  0
 21 32  1  0  0  0
 21 45  1  0  0  0
 22 46  1  0  0  0
 22 47  1  0  0  0
 23 48  1  0  0  0
 24 25  3  0  0  0
 25 49  1  0  0  0
 32 50  1  0  0  0
 33 51  1  0  0  0
 52 60  2  0  0  0
 53 59  2  0  0  0
 53 62  1  0  0  0
 54 58  1  0  0  0
 54 60  1  0  0  0
 54 63  1  0  0  0
 55 59  1  0  0  0
 55 64  1  0  0  0
 55 65  1  0  0  0
 56 58  1  0  0  0
 56 61  1  0  0  0
 56 62  2  0  0  0
 57 59  1  0  0  0
 57 61  2  0  0  0
 57 66  1  0  0  0
 58 67  1  0  0  0
 58 68  1  0  0  0
 61 69  1  0  0  0
 62 70  1  0  0  0
M  END
> <s_m_entry_id>
505

> <s_m_entry_name>
000000505.1

> <s_m_Source_Path>
/Users/zaksoul/Documents/2

> <s_m_Source_File>
000000505.mol2

> <i_m_Source_File_Index>
1

$$$$
No_0_529
                    3D
 Schrodinger Suite 2022-4.
 74 80  0  0  1  0            999 V2000
   -5.1100    3.8010  -22.1060 C   0  0  0  0  0  0
   -5.3720    3.9670  -23.4450 C   0  0  0  0  0  0
   -3.8720    3.5570  -21.7570 C   0  0  0  0  0  0
   -2.9740    3.6510  -23.9210 C   0  0  0  0  0  0
   -2.8170    3.4300  -22.4970 C   0  0  0  0  0  0
   -4.3210    3.9010  -24.4510 C   0  0  0  0  0  0
   -3.5580    3.8880  -26.6470 C   0  0  0  0  0  0
    6.1550    3.2690  -21.3380 C   0  0  0  0  0  0
    6.0250    3.3690  -23.8900 C   0  0  0  0  0  0
   -4.5680    4.0050  -25.7890 C   0  0  0  0  0  0
    2.2390    3.9060  -23.9290 C   0  0  0  0  0  0
    1.4140    5.0170  -23.6500 C   0  0  0  0  0  0
    3.2060    6.2290  -22.9840 C   0  0  0  0  0  0
    3.6370    4.1060  -23.6140 C   0  0  0  0  0  0
    1.6980    2.7760  -24.5730 C   0  0  0  0  0  0
   -0.4320    3.5850  -24.4830 C   0  0  0  0  0  0
    0.0890    4.8170  -23.9020 C   0  0  0  0  0  0
   -1.8840    3.5810  -24.8420 C   0  0  0  0  0  0
    4.2490    1.6150  -23.2790 C   0  0  0  0  0  0
    5.1800    1.2810  -22.1230 C   0  0  2  0  0  0
    6.7700    2.8170  -22.6800 C   0  0  2  0  0  0
    5.1550    2.3010  -20.9730 C   0  0  0  0  0  0
   -2.2050    3.7160  -26.2740 C   0  0  0  0  0  0
   -1.4740    3.0310  -21.8870 C   0  0  0  0  0  0
   -0.4440    2.6940  -21.3720 C   0  0  0  0  0  0
   -0.7570    5.8650  -23.5780 F   0  0  0  0  0  0
   -3.6660    3.3380  -20.3700 F   0  0  0  0  0  0
    1.8850    6.1860  -23.1360 N   0  0  0  0  0  0
    4.1060    5.2650  -23.1860 N   0  0  0  0  0  0
    0.3930    2.6780  -24.8810 N   0  0  0  0  0  0
    4.5590    3.0580  -23.7710 N   0  0  0  0  0  0
    6.5880    1.3440  -22.6020 N   0  0  1  0  0  0
   -3.7260    3.8800  -28.0370 O   0  0  0  0  0  0
   -5.9148    3.8743  -21.3835 H   0  0  0  0  0  0
   -6.3858    4.1537  -23.7803 H   0  0  0  0  0  0
    5.6818    4.2538  -21.4651 H   0  0  0  0  0  0
    6.9386    3.2952  -20.5665 H   0  0  0  0  0  0
    6.4239    2.9105  -24.8069 H   0  0  0  0  0  0
    6.1653    4.4589  -23.9405 H   0  0  0  0  0  0
   -5.5775    4.1816  -26.1422 H   0  0  0  0  0  0
    2.3406    1.9446  -24.8391 H   0  0  0  0  0  0
    3.2053    1.5615  -22.9358 H   0  0  0  0  0  0
    4.4165    0.9037  -24.1012 H   0  0  0  0  0  0
    4.9580    0.2741  -21.7396 H   0  0  0  0  0  0
    7.8379    3.0764  -22.7274 H   0  0  0  0  0  0
    4.1699    2.7895  -20.9407 H   0  0  0  0  0  0
    5.4537    1.8035  -20.0385 H   0  0  0  0  0  0
   -1.4328    3.6859  -27.0342 H   0  0  0  0  0  0
    0.4629    2.3980  -20.9191 H   0  0  0  0  0  0
    7.2349    0.8596  -21.8856 H   0  0  0  0  0  0
   -2.8798    3.7870  -28.4586 H   0  0  0  0  0  0
    3.1130    8.5660  -22.8360 O   0  0  0  0  0  0
    8.3530   10.4310  -24.0570 N   0  0  0  0  0  0
   10.0110    8.9370  -23.2970 N   0  0  0  0  0  0
    4.9120    7.5550  -21.8540 N   0  0  0  0  0  0
    6.5240    9.3690  -22.3070 C   0  0  3  0  0  0
    7.7960    8.8780  -22.3420 C   0  0  0  0  0  0
    5.4960    8.8050  -21.3430 C   0  0  0  0  0  0
    6.1670   10.4120  -23.1700 C   0  0  0  0  0  0
    8.7260    9.4150  -23.2330 C   0  0  0  0  0  0
    7.0780   10.9260  -24.0250 C   0  0  0  0  0  0
    3.7550    7.5640  -22.5410 C   0  0  0  0  0  0
   10.4660    7.8080  -22.4710 C   0  0  0  0  0  0
    9.0340   10.8360  -24.7150 H   0  0  0  0  0  0
   10.6910    9.3700  -23.9380 H   0  0  0  0  0  0
    5.3865    6.6911  -21.6848 H   0  0  0  0  0  0
    8.0838    8.0715  -21.6774 H   0  0  0  0  0  0
    5.9717    8.6151  -20.3695 H   0  0  0  0  0  0
    4.6973    9.5447  -21.1851 H   0  0  0  0  0  0
    5.1581   10.8080  -23.1520 H   0  0  0  0  0  0
    6.7941   11.7347  -24.6887 H   0  0  0  0  0  0
   11.5241    7.5980  -22.6860 H   0  0  0  0  0  0
   10.3530    8.0621  -21.4067 H   0  0  0  0  0  0
    9.8620    6.9179  -22.7010 H   0  0  0  0  0  0
  1  2  2  0  0  0
  1  3  1  0  0  0
  1 34  1  0  0  0
  2  6  1  0  0  0
  2 35  1  0  0  0
  3  5  2  0  0  0
  3 27  1  0  0  0
  4  5  1  0  0  0
  4  6  2  0  0  0
  4 18  1  0  0  0
  5 24  1  0  0  0
  6 10  1  0  0  0
  7 10  2  0  0  0
  7 23  1  0  0  0
  7 33  1  0  0  0
  8 21  1  0  0  0
  8 22  1  0  0  0
  8 36  1  0  0  0
  8 37  1  0  0  0
  9 21  1  0  0  0
  9 31  1  0  0  0
  9 38  1  0  0  0
  9 39  1  0  0  0
 10 40  1  0  0  0
 11 12  2  0  0  0
 11 14  1  0  0  0
 11 15  1  0  0  0
 12 17  1  0  0  0
 12 28  1  0  0  0
 13 28  2  0  0  0
 13 29  1  0  0  0
 13 62  1  0  0  0
 14 29  2  0  0  0
 14 31  1  0  0  0
 15 30  2  0  0  0
 15 41  1  0  0  0
 16 17  2  0  0  0
 16 18  1  0  0  0
 16 30  1  0  0  0
 17 26  1  0  0  0
 18 23  2  0  0  0
 19 20  1  0  0  0
 19 31  1  0  0  0
 19 42  1  0  0  0
 19 43  1  0  0  0
 20 22  1  0  0  0
 20 32  1  0  0  0
 20 44  1  0  0  0
 21 32  1  0  0  0
 21 45  1  0  0  0
 22 46  1  0  0  0
 22 47  1  0  0  0
 23 48  1  0  0  0
 24 25  3  0  0  0
 25 49  1  0  0  0
 32 50  1  0  0  0
 33 51  1  0  0  0
 52 62  2  0  0  0
 53 60  1  0  0  0
 53 61  1  0  0  0
 53 64  1  0  0  0
 54 60  1  0  0  0
 54 63  1  0  0  0
 54 65  1  0  0  0
 55 58  1  0  0  0
 55 62  1  0  0  0
 55 66  1  0  0  0
 56 57  1  0  0  0
 56 58  1  0  0  0
 56 59  1  0  0  0
 57 60  2  0  0  0
 57 67  1  0  0  0
 58 68  1  0  0  0
 58 69  1  0  0  0
 59 61  2  0  0  0
 59 70  1  0  0  0
 61 71  1  0  0  0
 63 72  1  0  0  0
 63 73  1  0  0  0
 63 74  1  0  0  0
M  END
> <s_m_entry_id>
506

> <s_m_entry_name>
000000506.1

> <s_m_Source_Path>
/Users/zaksoul/Documents/2

> <s_m_Source_File>
000000506.mol2

> <i_m_Source_File_Index>
1

$$$$
No_0_530
                    3D
 Schrodinger Suite 2022-4.
 70 76  0  0  1  0            999 V2000
   -4.9230    3.6560  -21.9140 C   0  0  0  0  0  0
   -5.2060    3.8480  -23.2460 C   0  0  0  0  0  0
   -3.6810    3.3980  -21.5900 C   0  0  0  0  0  0
   -2.8190    3.5220  -23.7680 C   0  0  0  0  0  0
   -2.6400    3.2760  -22.3500 C   0  0  0  0  0  0
   -4.1720    3.7910  -24.2700 C   0  0  0  0  0  0
   -3.4470    3.8120  -26.4780 C   0  0  0  0  0  0
    6.3490    3.0300  -21.3460 C   0  0  0  0  0  0
    6.1770    3.1760  -23.8930 C   0  0  0  0  0  0
   -4.4410    3.9210  -25.6020 C   0  0  0  0  0  0
    2.3950    3.7400  -23.8580 C   0  0  0  0  0  0
    1.5830    4.8520  -23.5470 C   0  0  0  0  0  0
    3.3950    6.0390  -22.8900 C   0  0  0  0  0  0
    3.8000    3.9240  -23.5640 C   0  0  0  0  0  0
    1.8350    2.6260  -24.5130 C   0  0  0  0  0  0
   -0.2870    3.4490  -24.3730 C   0  0  0  0  0  0
    0.2530    4.6660  -23.7800 C   0  0  0  0  0  0
   -1.7450    3.4610  -24.7080 C   0  0  0  0  0  0
    4.3990    1.4240  -23.2830 C   0  0  0  0  0  0
    5.3460    1.0620  -22.1490 C   0  0  2  0  0  0
    6.9390    2.5970  -22.7060 C   0  0  2  0  0  0
    5.3480    2.0620  -20.9810 C   0  0  0  0  0  0
   -2.0890    3.6240  -26.1310 C   0  0  0  0  0  0
   -1.2890    2.8560  -21.7700 C   0  0  0  0  0  0
   -0.2540    2.5030  -21.2780 C   0  0  0  0  0  0
   -0.5800    5.7140  -23.4230 F   0  0  0  0  0  0
   -3.4530    3.1530  -20.2110 F   0  0  0  0  0  0
    2.0720    6.0080  -23.0210 N   0  0  0  0  0  0
    4.2840    5.0730  -23.1230 N   0  0  0  0  0  0
    0.5240    2.5430  -24.8010 N   0  0  0  0  0  0
    4.7110    2.8730  -23.7550 N   0  0  0  0  0  0
    6.7470    1.1240  -22.6510 N   0  0  1  0  0  0
   -3.6380    3.8290  -27.8650 O   0  0  0  0  0  0
   -5.7147    3.7222  -21.1765 H   0  0  0  0  0  0
   -6.2240    4.0478  -23.5602 H   0  0  0  0  0  0
    5.8815    4.0205  -21.4480 H   0  0  0  0  0  0
    7.1457    3.0361  -20.5876 H   0  0  0  0  0  0
    6.5564    2.7301  -24.8242 H   0  0  0  0  0  0
    6.3244    4.2656  -23.9263 H   0  0  0  0  0  0
   -5.4550    4.1118  -25.9343 H   0  0  0  0  0  0
    2.4665    1.7948  -24.8051 H   0  0  0  0  0  0
    3.3606    1.3715  -22.9238 H   0  0  0  0  0  0
    4.5463    0.7259  -24.1203 H   0  0  0  0  0  0
    5.1229    0.0503  -21.7794 H   0  0  0  0  0  0
    8.0079    2.8493  -22.7666 H   0  0  0  0  0  0
    4.3677    2.5577  -20.9235 H   0  0  0  0  0  0
    5.6589    1.5462  -20.0605 H   0  0  0  0  0  0
   -1.3297    3.6019  -26.9043 H   0  0  0  0  0  0
    0.6580    2.1920  -20.8460 H   0  0  0  0  0  0
    7.4016    0.6224  -21.9536 H   0  0  0  0  0  0
   -2.7997    3.7379  -28.3025 H   0  0  0  0  0  0
    3.2040    8.3260  -22.4440 O   0  0  0  0  0  0
   10.0140    8.9120  -22.5710 N   0  0  0  0  0  0
    5.2540    7.3900  -22.0530 N   0  0  0  0  0  0
    9.4660   10.0040  -24.5940 N   0  0  0  0  0  0
    7.3470    8.7270  -21.9300 C   0  0  0  0  0  0
    9.0790    9.4100  -23.4240 C   0  0  0  0  0  0
    5.8730    8.6320  -21.5600 C   0  0  0  0  0  0
    7.7280    9.3160  -23.0990 C   0  0  0  0  0  0
    8.3290    8.2160  -21.0710 C   0  0  0  0  0  0
    9.6380    8.3130  -21.3990 C   0  0  0  0  0  0
    3.9610    7.3620  -22.4330 C   0  0  0  0  0  0
    5.8080    6.5590  -22.1030 H   0  0  0  0  0  0
    8.7570   10.3810  -25.2390 H   0  0  0  0  0  0
   10.4661   10.0740  -24.8300 H   0  0  0  0  0  0
    5.7660    8.6850  -20.4665 H   0  0  0  0  0  0
    5.3350    9.4980  -21.9730 H   0  0  0  0  0  0
    6.9788    9.7101  -23.7761 H   0  0  0  0  0  0
    8.0410    7.7411  -20.1401 H   0  0  0  0  0  0
   10.3905    7.9138  -20.7286 H   0  0  0  0  0  0
  1  2  2  0  0  0
  1  3  1  0  0  0
  1 34  1  0  0  0
  2  6  1  0  0  0
  2 35  1  0  0  0
  3  5  2  0  0  0
  3 27  1  0  0  0
  4  5  1  0  0  0
  4  6  2  0  0  0
  4 18  1  0  0  0
  5 24  1  0  0  0
  6 10  1  0  0  0
  7 10  2  0  0  0
  7 23  1  0  0  0
  7 33  1  0  0  0
  8 21  1  0  0  0
  8 22  1  0  0  0
  8 36  1  0  0  0
  8 37  1  0  0  0
  9 21  1  0  0  0
  9 31  1  0  0  0
  9 38  1  0  0  0
  9 39  1  0  0  0
 10 40  1  0  0  0
 11 12  1  0  0  0
 11 14  2  0  0  0
 11 15  1  0  0  0
 12 17  1  0  0  0
 12 28  2  0  0  0
 13 28  1  0  0  0
 13 29  2  0  0  0
 13 62  1  0  0  0
 14 29  1  0  0  0
 14 31  1  0  0  0
 15 30  2  0  0  0
 15 41  1  0  0  0
 16 17  2  0  0  0
 16 18  1  0  0  0
 16 30  1  0  0  0
 17 26  1  0  0  0
 18 23  2  0  0  0
 19 20  1  0  0  0
 19 31  1  0  0  0
 19 42  1  0  0  0
 19 43  1  0  0  0
 20 22  1  0  0  0
 20 32  1  0  0  0
 20 44  1  0  0  0
 21 32  1  0  0  0
 21 45  1  0  0  0
 22 46  1  0  0  0
 22 47  1  0  0  0
 23 48  1  0  0  0
 24 25  3  0  0  0
 25 49  1  0  0  0
 32 50  1  0  0  0
 33 51  1  0  0  0
 52 62  2  0  0  0
 53 57  2  0  0  0
 53 61  1  0  0  0
 54 58  1  0  0  0
 54 62  1  0  0  0
 54 63  1  0  0  0
 55 57  1  0  0  0
 55 64  1  0  0  0
 55 65  1  0  0  0
 56 58  1  0  0  0
 56 59  2  0  0  0
 56 60  1  0  0  0
 57 59  1  0  0  0
 58 66  1  0  0  0
 58 67  1  0  0  0
 59 68  1  0  0  0
 60 61  2  0  0  0
 60 69  1  0  0  0
 61 70  1  0  0  0
M  END
> <s_m_entry_id>
507

> <s_m_entry_name>
000000507.1

> <s_m_Source_Path>
/Users/zaksoul/Documents/2

> <s_m_Source_File>
000000507.mol2

> <i_m_Source_File_Index>
1

$$$$
No_0_531
                    3D
 Schrodinger Suite 2022-4.
 73 79  0  0  1  0            999 V2000
   -4.9970    3.5020  -22.2050 C   0  0  0  0  0  0
   -5.2600    3.6770  -23.5430 C   0  0  0  0  0  0
   -3.7510    3.3050  -21.8540 C   0  0  0  0  0  0
   -2.8490    3.4680  -24.0120 C   0  0  0  0  0  0
   -2.6890    3.2330  -22.5900 C   0  0  0  0  0  0
   -4.2020    3.6690  -24.5450 C   0  0  0  0  0  0
   -3.4300    3.7210  -26.7370 C   0  0  0  0  0  0
    6.2780    3.4310  -21.3890 C   0  0  0  0  0  0
    6.1540    3.5630  -23.9400 C   0  0  0  0  0  0
   -4.4480    3.7830  -25.8830 C   0  0  0  0  0  0
    2.3490    3.9410  -23.9900 C   0  0  0  0  0  0
    1.4770    5.0130  -23.7000 C   0  0  0  0  0  0
    3.2140    6.2890  -23.0070 C   0  0  0  0  0  0
    3.7370    4.1950  -23.6660 C   0  0  0  0  0  0
    1.8590    2.8000  -24.6540 C   0  0  0  0  0  0
   -0.3040    3.5180  -24.5620 C   0  0  0  0  0  0
    0.1630    4.7610  -23.9610 C   0  0  0  0  0  0
   -1.7530    3.4580  -24.9290 C   0  0  0  0  0  0
    4.4510    1.7270  -23.3640 C   0  0  0  0  0  0
    5.3900    1.4160  -22.2090 C   0  0  2  0  0  0
    6.9170    3.0250  -22.7350 C   0  0  2  0  0  0
    5.3170    2.4170  -21.0440 C   0  0  0  0  0  0
   -2.0730    3.6010  -26.3590 C   0  0  0  0  0  0
   -1.3330    2.8820  -21.9790 C   0  0  0  0  0  0
   -0.2920    2.5810  -21.4640 C   0  0  0  0  0  0
   -0.7280    5.7680  -23.6260 F   0  0  0  0  0  0
   -3.5420    3.0750  -20.4700 F   0  0  0  0  0  0
    1.8970    6.1930  -23.1660 N   0  0  0  0  0  0
    4.1540    5.3670  -23.2180 N   0  0  0  0  0  0
    0.5600    2.6520  -24.9690 N   0  0  0  0  0  0
    4.7020    3.1890  -23.8330 N   0  0  0  0  0  0
    6.7960    1.5450  -22.6800 N   0  0  1  0  0  0
   -3.5920    3.7260  -28.1280 O   0  0  0  0  0  0
   -5.8071    3.5311  -21.4853 H   0  0  0  0  0  0
   -6.2795    3.8255  -23.8801 H   0  0  0  0  0  0
    5.7643    4.3968  -21.5051 H   0  0  0  0  0  0
    7.0566    3.4785  -20.6134 H   0  0  0  0  0  0
    6.5760    3.1360  -24.8617 H   0  0  0  0  0  0
    6.2478    4.6585  -23.9743 H   0  0  0  0  0  0
   -5.4629    3.9225  -26.2374 H   0  0  0  0  0  0
    2.5366    1.9999  -24.9291 H   0  0  0  0  0  0
    3.4088    1.6251  -23.0270 H   0  0  0  0  0  0
    4.6509    1.0355  -24.1958 H   0  0  0  0  0  0
    5.2085    0.3954  -21.8409 H   0  0  0  0  0  0
    7.9732    3.3299  -22.7734 H   0  0  0  0  0  0
    4.3122    2.8633  -21.0097 H   0  0  0  0  0  0
    5.6328    1.9185  -20.1157 H   0  0  0  0  0  0
   -1.2971    3.6140  -27.1159 H   0  0  0  0  0  0
    0.6247    2.3171  -21.0111 H   0  0  0  0  0  0
    7.4596    1.0780  -21.9673 H   0  0  0  0  0  0
   -2.7407    3.6755  -28.5467 H   0  0  0  0  0  0
    5.6630    6.5910  -21.3600 O   0  0  0  0  0  0
    3.0960    8.6330  -22.9110 O   0  0  0  0  0  0
    5.3170   10.9420  -22.4250 N   0  3  0  0  0  0
    4.9510   10.2420  -21.1420 C   0  0  0  0  0  0
    6.7910   11.2120  -22.5470 C   0  0  0  0  0  0
    4.5060   12.1890  -22.6380 C   0  0  0  0  0  0
    4.8940    7.6900  -21.6890 C   0  0  0  0  0  0
    6.5420    8.3260  -20.4120 C   0  0  0  0  0  0
    5.4160    8.7970  -21.1050 C   0  0  0  0  0  0
    6.6190    7.0110  -20.6120 C   0  0  0  0  0  0
    3.7040    7.6390  -22.5420 C   0  0  0  0  0  0
    5.0769   10.3118  -23.1742 H   0  0  0  0  0  0
    3.8602   10.2780  -21.0050 H   0  0  0  0  0  0
    5.3840   10.7880  -20.2909 H   0  0  0  0  0  0
    6.9940   11.7229  -23.4998 H   0  0  0  0  0  0
    7.1179   11.8508  -21.7133 H   0  0  0  0  0  0
    7.3418   10.2603  -22.5170 H   0  0  0  0  0  0
    4.8060   12.6651  -23.5832 H   0  0  0  0  0  0
    3.4381   11.9290  -22.6820 H   0  0  0  0  0  0
    4.6790   12.8861  -21.8049 H   0  0  0  0  0  0
    7.1626    9.0195  -19.8464 H   0  0  0  0  0  0
    7.4268    6.4381  -20.1591 H   0  0  0  0  0  0
  1  2  2  0  0  0
  1  3  1  0  0  0
  1 34  1  0  0  0
  2  6  1  0  0  0
  2 35  1  0  0  0
  3  5  2  0  0  0
  3 27  1  0  0  0
  4  5  1  0  0  0
  4  6  2  0  0  0
  4 18  1  0  0  0
  5 24  1  0  0  0
  6 10  1  0  0  0
  7 10  2  0  0  0
  7 23  1  0  0  0
  7 33  1  0  0  0
  8 21  1  0  0  0
  8 22  1  0  0  0
  8 36  1  0  0  0
  8 37  1  0  0  0
  9 21  1  0  0  0
  9 31  1  0  0  0
  9 38  1  0  0  0
  9 39  1  0  0  0
 10 40  1  0  0  0
 11 12  1  0  0  0
 11 14  2  0  0  0
 11 15  1  0  0  0
 12 17  1  0  0  0
 12 28  2  0  0  0
 13 28  1  0  0  0
 13 29  2  0  0  0
 13 62  1  0  0  0
 14 29  1  0  0  0
 14 31  1  0  0  0
 15 30  2  0  0  0
 15 41  1  0  0  0
 16 17  2  0  0  0
 16 18  1  0  0  0
 16 30  1  0  0  0
 17 26  1  0  0  0
 18 23  2  0  0  0
 19 20  1  0  0  0
 19 31  1  0  0  0
 19 42  1  0  0  0
 19 43  1  0  0  0
 20 22  1  0  0  0
 20 32  1  0  0  0
 20 44  1  0  0  0
 21 32  1  0  0  0
 21 45  1  0  0  0
 22 46  1  0  0  0
 22 47  1  0  0  0
 23 48  1  0  0  0
 24 25  3  0  0  0
 25 49  1  0  0  0
 32 50  1  0  0  0
 33 51  1  0  0  0
 52 58  1  0  0  0
 52 61  1  0  0  0
 53 62  2  0  0  0
 54 55  1  0  0  0
 54 56  1  0  0  0
 54 57  1  0  0  0
 54 63  1  0  0  0
 55 60  1  0  0  0
 55 64  1  0  0  0
 55 65  1  0  0  0
 56 66  1  0  0  0
 56 67  1  0  0  0
 56 68  1  0  0  0
 57 69  1  0  0  0
 57 70  1  0  0  0
 57 71  1  0  0  0
 58 60  2  0  0  0
 58 62  1  0  0  0
 59 60  1  0  0  0
 59 61  2  0  0  0
 59 72  1  0  0  0
 61 73  1  0  0  0
M  CHG  1  54   1
M  END
> <s_m_entry_id>
508

> <s_m_entry_name>
000000508.1

> <s_m_Source_Path>
/Users/zaksoul/Documents/2

> <s_m_Source_File>
000000508.mol2

> <i_m_Source_File_Index>
1

$$$$
No_0_532
                    3D
 Schrodinger Suite 2022-4.
 73 79  0  0  1  0            999 V2000
   -5.0270    3.5220  -22.0580 C   0  0  0  0  0  0
   -5.2870    3.7070  -23.3960 C   0  0  0  0  0  0
   -3.7880    3.2840  -21.7090 C   0  0  0  0  0  0
   -2.8850    3.4190  -23.8690 C   0  0  0  0  0  0
   -2.7300    3.1770  -22.4480 C   0  0  0  0  0  0
   -4.2320    3.6650  -24.3990 C   0  0  0  0  0  0
   -3.4630    3.6950  -26.5920 C   0  0  0  0  0  0
    6.2400    3.0780  -21.2640 C   0  0  0  0  0  0
    6.1160    3.2170  -23.8150 C   0  0  0  0  0  0
   -4.4760    3.7890  -25.7360 C   0  0  0  0  0  0
    2.3260    3.7210  -23.8570 C   0  0  0  0  0  0
    1.4900    4.8200  -23.5630 C   0  0  0  0  0  0
    3.2690    6.0370  -22.8730 C   0  0  0  0  0  0
    3.7220    3.9280  -23.5350 C   0  0  0  0  0  0
    1.7970    2.5970  -24.5210 C   0  0  0  0  0  0
   -0.3410    3.3850  -24.4240 C   0  0  0  0  0  0
    0.1680    4.6120  -23.8230 C   0  0  0  0  0  0
   -1.7910    3.3740  -24.7880 C   0  0  0  0  0  0
    4.3550    1.4380  -23.2370 C   0  0  0  0  0  0
    5.2850    1.0940  -22.0840 C   0  0  2  0  0  0
    6.8630    2.6530  -22.6120 C   0  0  2  0  0  0
    5.2480    2.0950  -20.9180 C   0  0  0  0  0  0
   -2.1100    3.5290  -26.2180 C   0  0  0  0  0  0
   -1.3850    2.7800  -21.8400 C   0  0  0  0  0  0
   -0.3530    2.4450  -21.3280 C   0  0  0  0  0  0
   -0.6880    5.6470  -23.4840 F   0  0  0  0  0  0
   -3.5840    3.0440  -20.3260 F   0  0  0  0  0  0
    1.9500    5.9850  -23.0300 N   0  0  0  0  0  0
    4.1780    5.0850  -23.0870 N   0  0  0  0  0  0
    0.4930    2.4920  -24.8340 N   0  0  0  0  0  0
    4.6530    2.8910  -23.7050 N   0  0  0  0  0  0
    6.6940    1.1770  -22.5580 N   0  0  1  0  0  0
   -3.6270    3.7070  -27.9830 O   0  0  0  0  0  0
   -5.8340    3.5762  -21.3363 H   0  0  0  0  0  0
   -6.3019    3.8897  -23.7303 H   0  0  0  0  0  0
    5.7588    4.0606  -21.3780 H   0  0  0  0  0  0
    7.0212    3.0982  -20.4899 H   0  0  0  0  0  0
    6.5219    2.7768  -24.7378 H   0  0  0  0  0  0
    6.2462    4.3088  -23.8473 H   0  0  0  0  0  0
   -5.4862    3.9616  -26.0891 H   0  0  0  0  0  0
    2.4473    1.7751  -24.7980 H   0  0  0  0  0  0
    3.3108    1.3694  -22.8980 H   0  0  0  0  0  0
    4.5306    0.7418  -24.0704 H   0  0  0  0  0  0
    5.0700    0.0797  -21.7166 H   0  0  0  0  0  0
    7.9287    2.9225  -22.6524 H   0  0  0  0  0  0
    4.2585    2.5741  -20.8807 H   0  0  0  0  0  0
    5.5487    1.5854  -19.9907 H   0  0  0  0  0  0
   -1.3351    3.5180  -26.9759 H   0  0  0  0  0  0
    0.5545    2.1498  -20.8758 H   0  0  0  0  0  0
    7.3430    0.6873  -21.8470 H   0  0  0  0  0  0
   -2.7789    3.6278  -28.4036 H   0  0  0  0  0  0
    5.9760    6.3190  -21.6910 O   0  0  0  0  0  0
    3.1130    8.3620  -22.5820 O   0  0  0  0  0  0
    5.3280   10.7170  -22.3440 N   0  3  0  0  0  0
    5.2270    9.9160  -21.0720 C   0  0  0  0  0  0
    6.7470   11.0500  -22.7170 C   0  0  0  0  0  0
    4.4610   11.9430  -22.3090 C   0  0  0  0  0  0
    5.1320    7.4070  -21.7880 C   0  0  0  0  0  0
    6.9750    8.0170  -20.7950 C   0  0  0  0  0  0
    5.7270    8.4900  -21.2310 C   0  0  0  0  0  0
    7.0450    6.7230  -21.1030 C   0  0  0  0  0  0
    3.8050    7.3700  -22.4070 C   0  0  0  0  0  0
    4.9680   10.1310  -23.0810 H   0  0  0  0  0  0
    4.1810    9.9010  -20.7320 H   0  0  0  0  0  0
    5.7991   10.4181  -20.2779 H   0  0  0  0  0  0
    6.7540   11.6329  -23.6498 H   0  0  0  0  0  0
    7.2081   11.6421  -21.9128 H   0  0  0  0  0  0
    7.3173   10.1205  -22.8611 H   0  0  0  0  0  0
    4.5670   12.4941  -23.2551 H   0  0  0  0  0  0
    3.4105   11.6459  -22.1739 H   0  0  0  0  0  0
    4.7701   12.5872  -21.4727 H   0  0  0  0  0  0
    7.6732    8.6932  -20.3039 H   0  0  0  0  0  0
    7.9370    6.1510  -20.8520 H   0  0  0  0  0  0
  1  2  2  0  0  0
  1  3  1  0  0  0
  1 34  1  0  0  0
  2  6  1  0  0  0
  2 35  1  0  0  0
  3  5  2  0  0  0
  3 27  1  0  0  0
  4  5  1  0  0  0
  4  6  2  0  0  0
  4 18  1  0  0  0
  5 24  1  0  0  0
  6 10  1  0  0  0
  7 10  2  0  0  0
  7 23  1  0  0  0
  7 33  1  0  0  0
  8 21  1  0  0  0
  8 22  1  0  0  0
  8 36  1  0  0  0
  8 37  1  0  0  0
  9 21  1  0  0  0
  9 31  1  0  0  0
  9 38  1  0  0  0
  9 39  1  0  0  0
 10 40  1  0  0  0
 11 12  1  0  0  0
 11 14  2  0  0  0
 11 15  1  0  0  0
 12 17  1  0  0  0
 12 28  2  0  0  0
 13 28  1  0  0  0
 13 29  2  0  0  0
 13 62  1  0  0  0
 14 29  1  0  0  0
 14 31  1  0  0  0
 15 30  2  0  0  0
 15 41  1  0  0  0
 16 17  2  0  0  0
 16 18  1  0  0  0
 16 30  1  0  0  0
 17 26  1  0  0  0
 18 23  2  0  0  0
 19 20  1  0  0  0
 19 31  1  0  0  0
 19 42  1  0  0  0
 19 43  1  0  0  0
 20 22  1  0  0  0
 20 32  1  0  0  0
 20 44  1  0  0  0
 21 32  1  0  0  0
 21 45  1  0  0  0
 22 46  1  0  0  0
 22 47  1  0  0  0
 23 48  1  0  0  0
 24 25  3  0  0  0
 25 49  1  0  0  0
 32 50  1  0  0  0
 33 51  1  0  0  0
 52 58  1  0  0  0
 52 61  1  0  0  0
 53 62  2  0  0  0
 54 55  1  0  0  0
 54 56  1  0  0  0
 54 57  1  0  0  0
 54 63  1  0  0  0
 55 60  1  0  0  0
 55 64  1  0  0  0
 55 65  1  0  0  0
 56 66  1  0  0  0
 56 67  1  0  0  0
 56 68  1  0  0  0
 57 69  1  0  0  0
 57 70  1  0  0  0
 57 71  1  0  0  0
 58 60  2  0  0  0
 58 62  1  0  0  0
 59 60  1  0  0  0
 59 61  2  0  0  0
 59 72  1  0  0  0
 61 73  1  0  0  0
M  CHG  1  54   1
M  END
> <s_m_entry_id>
509

> <s_m_entry_name>
000000509.1

> <s_m_Source_Path>
/Users/zaksoul/Documents/2

> <s_m_Source_File>
000000509.mol2

> <i_m_Source_File_Index>
1

$$$$
No_0_533
                    3D
 Schrodinger Suite 2022-4.
 71 77  0  0  1  0            999 V2000
   -5.1440    3.5510  -22.4050 C   0  0  0  0  0  0
   -5.3690    3.7250  -23.7500 C   0  0  0  0  0  0
   -3.9190    3.2850  -22.0260 C   0  0  0  0  0  0
   -2.9650    3.3700  -24.1660 C   0  0  0  0  0  0
   -2.8480    3.1430  -22.7390 C   0  0  0  0  0  0
   -4.2930    3.6450  -24.7290 C   0  0  0  0  0  0
   -3.4750    3.6270  -26.9050 C   0  0  0  0  0  0
    6.0880    2.8280  -21.3530 C   0  0  0  0  0  0
    6.0240    2.9390  -23.9070 C   0  0  0  0  0  0
   -4.5040    3.7580  -26.0730 C   0  0  0  0  0  0
    2.2500    3.5390  -24.0400 C   0  0  0  0  0  0
    1.4370    4.6620  -23.7790 C   0  0  0  0  0  0
    3.2310    5.8420  -23.0630 C   0  0  0  0  0  0
    3.6430    3.7140  -23.6890 C   0  0  0  0  0  0
    1.7070    2.4200  -24.7020 C   0  0  0  0  0  0
   -0.4110    3.2640  -24.6630 C   0  0  0  0  0  0
    0.1160    4.4850  -24.0650 C   0  0  0  0  0  0
   -1.8530    3.2860  -25.0590 C   0  0  0  0  0  0
    4.2050    1.2120  -23.3480 C   0  0  0  0  0  0
    5.1000    0.8590  -22.1710 C   0  0  2  0  0  0
    6.7300    2.3700  -22.6810 C   0  0  2  0  0  0
    5.0630    1.8750  -21.0180 C   0  0  0  0  0  0
   -2.1350    3.4310  -26.4980 C   0  0  0  0  0  0
   -1.5270    2.7190  -22.0970 C   0  0  0  0  0  0
   -0.5170    2.3630  -21.5570 C   0  0  0  0  0  0
   -0.7210    5.5460  -23.7580 F   0  0  0  0  0  0
   -3.7520    3.0580  -20.6350 F   0  0  0  0  0  0
    1.9150    5.8210  -23.2490 N   0  0  0  0  0  0
    4.1200    4.8640  -23.2450 N   0  0  0  0  0  0
    0.4090    2.3450  -25.0440 N   0  0  0  0  0  0
    4.5510    2.6510  -23.8270 N   0  0  0  0  0  0
    6.5210    0.9000  -22.6140 N   0  0  1  0  0  0
   -3.6080    3.6260  -28.2990 O   0  0  0  0  0  0
   -5.9652    3.6343  -21.7023 H   0  0  0  0  0  0
   -6.3707    3.9297  -24.1103 H   0  0  0  0  0  0
    5.6349    3.8210  -21.4892 H   0  0  0  0  0  0
    6.8520    2.8381  -20.5617 H   0  0  0  0  0  0
    6.4387    2.4769  -24.8150 H   0  0  0  0  0  0
    6.1835    4.0265  -23.9494 H   0  0  0  0  0  0
   -5.5014    3.9527  -26.4503 H   0  0  0  0  0  0
    2.3423    1.5789  -24.9549 H   0  0  0  0  0  0
    3.1520    1.1746  -23.0320 H   0  0  0  0  0  0
    4.3807    0.5012  -24.1689 H   0  0  0  0  0  0
    4.8518   -0.1451  -21.7966 H   0  0  0  0  0  0
    7.8028    2.6122  -22.7002 H   0  0  0  0  0  0
    4.0861    2.3806  -21.0089 H   0  0  0  0  0  0
    5.3293    1.3697  -20.0779 H   0  0  0  0  0  0
   -1.3443    3.3909  -27.2385 H   0  0  0  0  0  0
    0.3730    2.0510  -21.0820 H   0  0  0  0  0  0
    7.1411    0.4029  -21.8827 H   0  0  0  0  0  0
   -2.7528    3.5201  -28.6989 H   0  0  0  0  0  0
    4.7780    7.1300  -21.6830 N   0  3  0  0  0  0
    3.2680    8.2730  -23.1560 N   0  0  0  0  0  0
    5.4250    8.3210  -21.1330 C   0  0  0  0  0  0
    6.1890    9.1650  -22.1740 C   0  0  0  0  0  0
    4.5080    9.2760  -20.3470 C   0  0  0  0  0  0
    5.2000   10.6400  -20.4750 C   0  0  0  0  0  0
    5.8500   10.6360  -21.8680 C   0  0  0  0  0  0
    3.7910    7.1660  -22.6010 C   0  0  0  0  0  0
    5.1192    6.2254  -21.3278 H   0  0  0  0  0  0
    2.5120    8.1930  -23.8510 H   0  0  0  0  0  0
    3.6228    9.2015  -22.8861 H   0  0  0  0  0  0
    6.1782    7.9589  -20.4178 H   0  0  0  0  0  0
    5.8339    8.9099  -23.1834 H   0  0  0  0  0  0
    7.2704    9.0061  -22.0501 H   0  0  0  0  0  0
    4.4910    8.9750  -19.2891 H   0  0  0  0  0  0
    3.5237    9.3200  -20.8361 H   0  0  0  0  0  0
    5.9829   10.7260  -19.7071 H   0  0  0  0  0  0
    4.4452   11.4388  -20.4270 H   0  0  0  0  0  0
    5.1271   11.0060  -22.6099 H   0  0  0  0  0  0
    6.7780   11.2260  -21.8400 H   0  0  0  0  0  0
  1  2  2  0  0  0
  1  3  1  0  0  0
  1 34  1  0  0  0
  2  6  1  0  0  0
  2 35  1  0  0  0
  3  5  2  0  0  0
  3 27  1  0  0  0
  4  5  1  0  0  0
  4  6  2  0  0  0
  4 18  1  0  0  0
  5 24  1  0  0  0
  6 10  1  0  0  0
  7 10  2  0  0  0
  7 23  1  0  0  0
  7 33  1  0  0  0
  8 21  1  0  0  0
  8 22  1  0  0  0
  8 36  1  0  0  0
  8 37  1  0  0  0
  9 21  1  0  0  0
  9 31  1  0  0  0
  9 38  1  0  0  0
  9 39  1  0  0  0
 10 40  1  0  0  0
 11 12  1  0  0  0
 11 14  2  0  0  0
 11 15  1  0  0  0
 12 17  1  0  0  0
 12 28  2  0  0  0
 13 28  1  0  0  0
 13 29  2  0  0  0
 13 59  1  0  0  0
 14 29  1  0  0  0
 14 31  1  0  0  0
 15 30  2  0  0  0
 15 41  1  0  0  0
 16 17  2  0  0  0
 16 18  1  0  0  0
 16 30  1  0  0  0
 17 26  1  0  0  0
 18 23  2  0  0  0
 19 20  1  0  0  0
 19 31  1  0  0  0
 19 42  1  0  0  0
 19 43  1  0  0  0
 20 22  1  0  0  0
 20 32  1  0  0  0
 20 44  1  0  0  0
 21 32  1  0  0  0
 21 45  1  0  0  0
 22 46  1  0  0  0
 22 47  1  0  0  0
 23 48  1  0  0  0
 24 25  3  0  0  0
 25 49  1  0  0  0
 32 50  1  0  0  0
 33 51  1  0  0  0
 52 54  1  0  0  0
 52 59  2  0  0  0
 52 60  1  0  0  0
 53 59  1  0  0  0
 53 61  1  0  0  0
 53 62  1  0  0  0
 54 55  1  0  0  0
 54 56  1  0  0  0
 54 63  1  0  0  0
 55 58  1  0  0  0
 55 64  1  0  0  0
 55 65  1  0  0  0
 56 57  1  0  0  0
 56 66  1  0  0  0
 56 67  1  0  0  0
 57 58  1  0  0  0
 57 68  1  0  0  0
 57 69  1  0  0  0
 58 70  1  0  0  0
 58 71  1  0  0  0
M  CHG  1  52   1
M  END
> <s_m_entry_id>
510

> <s_m_entry_name>
000000510.1

> <s_m_Source_Path>
/Users/zaksoul/Documents/2

> <s_m_Source_File>
000000510.mol2

> <i_m_Source_File_Index>
1

$$$$
No_0_534
                    3D
 Schrodinger Suite 2022-4.
 70 75  0  0  1  0            999 V2000
   -5.0510    3.5930  -22.1960 C   0  0  0  0  0  0
   -5.2950    3.8250  -23.5290 C   0  0  0  0  0  0
   -3.8170    3.3340  -21.8430 C   0  0  0  0  0  0
   -2.8890    3.5390  -23.9870 C   0  0  0  0  0  0
   -2.7520    3.2470  -22.5730 C   0  0  0  0  0  0
   -4.2290    3.8120  -24.5220 C   0  0  0  0  0  0
   -3.4360    3.9130  -26.7050 C   0  0  0  0  0  0
    6.2040    3.0480  -21.2970 C   0  0  0  0  0  0
    6.1090    3.2760  -23.8430 C   0  0  0  0  0  0
   -4.4580    3.9840  -25.8570 C   0  0  0  0  0  0
    2.3230    3.8060  -23.9080 C   0  0  0  0  0  0
    1.4900    4.8990  -23.5850 C   0  0  0  0  0  0
    3.2700    6.0800  -22.8340 C   0  0  0  0  0  0
    3.7160    3.9930  -23.5640 C   0  0  0  0  0  0
    1.7940    2.7090  -24.6160 C   0  0  0  0  0  0
   -0.3390    3.5070  -24.5150 C   0  0  0  0  0  0
    0.1700    4.7090  -23.8660 C   0  0  0  0  0  0
   -1.7860    3.5180  -24.8950 C   0  0  0  0  0  0
    4.3310    1.4890  -23.3460 C   0  0  0  0  0  0
    5.2460    1.0990  -22.1960 C   0  0  2  0  0  0
    6.8400    2.6650  -22.6520 C   0  0  2  0  0  0
    5.2020    2.0600  -20.9960 C   0  0  0  0  0  0
   -2.0880    3.7250  -26.3220 C   0  0  0  0  0  0
   -1.4160    2.8200  -21.9650 C   0  0  0  0  0  0
   -0.3920    2.4600  -21.4530 C   0  0  0  0  0  0
   -0.6840    5.7380  -23.5010 F   0  0  0  0  0  0
   -3.6290    3.0460  -20.4660 F   0  0  0  0  0  0
    1.9520    6.0420  -23.0060 N   0  0  0  0  0  0
    4.1750    5.1300  -23.0710 N   0  0  0  0  0  0
    0.4940    2.6230  -24.9470 N   0  0  0  0  0  0
    4.6430    2.9560  -23.7600 N   0  0  0  0  0  0
    6.6610    1.1900  -22.6510 N   0  0  1  0  0  0
   -3.5850    3.9740  -28.0960 O   0  0  0  0  0  0
   -5.8657    3.6272  -21.4818 H   0  0  0  0  0  0
   -6.3046    4.0267  -23.8682 H   0  0  0  0  0  0
    5.7297    4.0369  -21.3818 H   0  0  0  0  0  0
    6.9772    3.0359  -20.5147 H   0  0  0  0  0  0
    6.5220    2.8650  -24.7760 H   0  0  0  0  0  0
    6.2472    4.3673  -23.8359 H   0  0  0  0  0  0
   -5.4632    4.1758  -26.2145 H   0  0  0  0  0  0
    2.4422    1.8932  -24.9150 H   0  0  0  0  0  0
    3.2826    1.4163  -23.0211 H   0  0  0  0  0  0
    4.5107    0.8207  -24.2010 H   0  0  0  0  0  0
    5.0208    0.0739  -21.8668 H   0  0  0  0  0  0
    7.9075    2.9296  -22.6712 H   0  0  0  0  0  0
    4.2153    2.5443  -20.9536 H   0  0  0  0  0  0
    5.4896    1.5170  -20.0836 H   0  0  0  0  0  0
   -1.3051    3.7350  -27.0717 H   0  0  0  0  0  0
    0.5094    2.1439  -21.0028 H   0  0  0  0  0  0
    7.2985    0.6712  -21.9504 H   0  0  0  0  0  0
   -2.7325    3.9048  -28.5094 H   0  0  0  0  0  0
    4.8060    7.3380  -21.4110 N   0  3  0  0  0  0
    3.2540    8.5130  -22.8100 N   0  0  0  0  0  0
    6.7510    8.8310  -21.6070 C   0  0  0  0  0  0
    5.4470    8.5240  -20.8510 C   0  0  0  0  0  0
    6.4800    9.1580  -23.0850 C   0  0  0  0  0  0
    3.8080    7.3920  -22.3160 C   0  0  0  0  0  0
    7.8180    9.2340  -23.8350 C   0  0  0  0  0  0
    5.1540    6.4261  -21.0820 H   0  0  0  0  0  0
    2.4919    8.4500  -23.5001 H   0  0  0  0  0  0
    3.5900    9.4350  -22.4970 H   0  0  0  0  0  0
    7.4249    7.9641  -21.5420 H   0  0  0  0  0  0
    7.2592    9.6824  -21.1308 H   0  0  0  0  0  0
    5.6720    8.3510  -19.7882 H   0  0  0  0  0  0
    4.7639    9.3822  -20.9340 H   0  0  0  0  0  0
    5.9641   10.1268  -23.1570 H   0  0  0  0  0  0
    5.8568    8.3667  -23.5272 H   0  0  0  0  0  0
    7.6321    9.4689  -24.8934 H   0  0  0  0  0  0
    8.4440   10.0220  -23.3910 H   0  0  0  0  0  0
    8.3374    8.2673  -23.7599 H   0  0  0  0  0  0
  1  2  2  0  0  0
  1  3  1  0  0  0
  1 34  1  0  0  0
  2  6  1  0  0  0
  2 35  1  0  0  0
  3  5  2  0  0  0
  3 27  1  0  0  0
  4  5  1  0  0  0
  4  6  2  0  0  0
  4 18  1  0  0  0
  5 24  1  0  0  0
  6 10  1  0  0  0
  7 10  2  0  0  0
  7 23  1  0  0  0
  7 33  1  0  0  0
  8 21  1  0  0  0
  8 22  1  0  0  0
  8 36  1  0  0  0
  8 37  1  0  0  0
  9 21  1  0  0  0
  9 31  1  0  0  0
  9 38  1  0  0  0
  9 39  1  0  0  0
 10 40  1  0  0  0
 11 12  1  0  0  0
 11 14  2  0  0  0
 11 15  1  0  0  0
 12 17  1  0  0  0
 12 28  2  0  0  0
 13 28  1  0  0  0
 13 29  2  0  0  0
 13 57  1  0  0  0
 14 29  1  0  0  0
 14 31  1  0  0  0
 15 30  2  0  0  0
 15 41  1  0  0  0
 16 17  2  0  0  0
 16 18  1  0  0  0
 16 30  1  0  0  0
 17 26  1  0  0  0
 18 23  2  0  0  0
 19 20  1  0  0  0
 19 31  1  0  0  0
 19 42  1  0  0  0
 19 43  1  0  0  0
 20 22  1  0  0  0
 20 32  1  0  0  0
 20 44  1  0  0  0
 21 32  1  0  0  0
 21 45  1  0  0  0
 22 46  1  0  0  0
 22 47  1  0  0  0
 23 48  1  0  0  0
 24 25  3  0  0  0
 25 49  1  0  0  0
 32 50  1  0  0  0
 33 51  1  0  0  0
 52 55  1  0  0  0
 52 57  2  0  0  0
 52 59  1  0  0  0
 53 57  1  0  0  0
 53 60  1  0  0  0
 53 61  1  0  0  0
 54 55  1  0  0  0
 54 56  1  0  0  0
 54 62  1  0  0  0
 54 63  1  0  0  0
 55 64  1  0  0  0
 55 65  1  0  0  0
 56 58  1  0  0  0
 56 66  1  0  0  0
 56 67  1  0  0  0
 58 68  1  0  0  0
 58 69  1  0  0  0
 58 70  1  0  0  0
M  CHG  1  52   1
M  END
> <s_m_entry_id>
511

> <s_m_entry_name>
000000511.1

> <s_m_Source_Path>
/Users/zaksoul/Documents/2

> <s_m_Source_File>
000000511.mol2

> <i_m_Source_File_Index>
1

$$$$
No_0_535
                    3D
 Schrodinger Suite 2022-4.
 68 74  0  0  1  0            999 V2000
   -5.0470    3.3530  -21.9690 C   0  0  0  0  0  0
   -5.3260    3.5320  -23.3030 C   0  0  0  0  0  0
   -3.8030    3.1200  -21.6360 C   0  0  0  0  0  0
   -2.9290    3.2520  -23.8080 C   0  0  0  0  0  0
   -2.7540    3.0160  -22.3880 C   0  0  0  0  0  0
   -4.2840    3.4910  -24.3210 C   0  0  0  0  0  0
   -3.5450    3.5150  -26.5240 C   0  0  0  0  0  0
    6.2320    2.9560  -21.3260 C   0  0  0  0  0  0
    6.0730    3.0860  -23.8740 C   0  0  0  0  0  0
   -4.5470    3.6090  -25.6550 C   0  0  0  0  0  0
    2.2800    3.5740  -23.8670 C   0  0  0  0  0  0
    1.4440    4.6710  -23.5660 C   0  0  0  0  0  0
    3.2280    5.8970  -22.9040 C   0  0  0  0  0  0
    3.6790    3.7880  -23.5650 C   0  0  0  0  0  0
    1.7470    2.4460  -24.5200 C   0  0  0  0  0  0
   -0.3920    3.2260  -24.3970 C   0  0  0  0  0  0
    0.1190    4.4570  -23.8070 C   0  0  0  0  0  0
   -1.8480    3.2080  -24.7410 C   0  0  0  0  0  0
    4.3260    1.3010  -23.2670 C   0  0  0  0  0  0
    5.2740    0.9650  -22.1250 C   0  0  2  0  0  0
    6.8380    2.5280  -22.6800 C   0  0  2  0  0  0
    5.2480    1.9710  -20.9620 C   0  0  0  0  0  0
   -2.1860    3.3560  -26.1670 C   0  0  0  0  0  0
   -1.3990    2.6260  -21.7970 C   0  0  0  0  0  0
   -0.3600    2.2970  -21.2970 C   0  0  0  0  0  0
   -0.7360    5.4900  -23.4610 F   0  0  0  0  0  0
   -3.5780    2.8870  -20.2540 F   0  0  0  0  0  0
    1.9060    5.8390  -23.0430 N   0  0  0  0  0  0
    4.1380    4.9480  -23.1270 N   0  0  0  0  0  0
    0.4400    2.3340  -24.8150 N   0  0  0  0  0  0
    4.6130    2.7540  -23.7440 N   0  0  0  0  0  0
    6.6760    1.0520  -22.6180 N   0  0  1  0  0  0
   -3.7280    3.5220  -27.9130 O   0  0  0  0  0  0
   -5.8445    3.4062  -21.2367 H   0  0  0  0  0  0
   -6.3457    3.7096  -23.6252 H   0  0  0  0  0  0
    5.7446    3.9359  -21.4360 H   0  0  0  0  0  0
    7.0231    2.9822  -20.5621 H   0  0  0  0  0  0
    6.4674    2.6442  -24.8010 H   0  0  0  0  0  0
    6.1982    4.1781  -23.9134 H   0  0  0  0  0  0
   -5.5627    3.7768  -25.9946 H   0  0  0  0  0  0
    2.3966    1.6257  -24.8031 H   0  0  0  0  0  0
    3.2866    1.2304  -22.9138 H   0  0  0  0  0  0
    4.4936    0.6023  -24.0999 H   0  0  0  0  0  0
    5.0682   -0.0490  -21.7517 H   0  0  0  0  0  0
    7.9017    2.8025  -22.7355 H   0  0  0  0  0  0
    4.2571    2.4462  -20.9136 H   0  0  0  0  0  0
    5.5630    1.4653  -20.0373 H   0  0  0  0  0  0
   -1.4215    3.3450  -26.9355 H   0  0  0  0  0  0
    0.5553    2.0072  -20.8573 H   0  0  0  0  0  0
    7.3362    0.5673  -21.9140 H   0  0  0  0  0  0
   -2.8847    3.4448  -28.3436 H   0  0  0  0  0  0
    4.7830    7.2440  -21.5700 N   0  3  0  0  0  0
    3.1830    8.3310  -22.9650 N   0  0  0  0  0  0
    8.0090    9.6660  -23.3530 N   0  0  0  0  0  0
    7.0500   10.5990  -23.5320 N   0  0  0  0  0  0
    5.3440    8.4800  -21.0310 C   0  0  0  0  0  0
    3.7640    7.2340  -22.4500 C   0  0  0  0  0  0
    7.4850    8.8180  -22.4320 C   0  0  0  0  0  0
    6.0210   10.3290  -22.7730 C   0  0  0  0  0  0
    6.2550    9.1660  -22.0310 C   0  0  0  0  0  0
    5.1968    6.3563  -21.2511 H   0  0  0  0  0  0
    2.4063    8.2360  -23.6348 H   0  0  0  0  0  0
    3.5139    9.2668  -22.6901 H   0  0  0  0  0  0
    8.8926    9.7280  -23.8787 H   0  0  0  0  0  0
    5.9090    8.2570  -20.1139 H   0  0  0  0  0  0
    4.5265    9.1616  -20.7532 H   0  0  0  0  0  0
    8.0574    7.9614  -22.0948 H   0  0  0  0  0  0
    5.1521   10.9769  -22.7870 H   0  0  0  0  0  0
  1  2  2  0  0  0
  1  3  1  0  0  0
  1 34  1  0  0  0
  2  6  1  0  0  0
  2 35  1  0  0  0
  3  5  2  0  0  0
  3 27  1  0  0  0
  4  5  1  0  0  0
  4  6  2  0  0  0
  4 18  1  0  0  0
  5 24  1  0  0  0
  6 10  1  0  0  0
  7 10  2  0  0  0
  7 23  1  0  0  0
  7 33  1  0  0  0
  8 21  1  0  0  0
  8 22  1  0  0  0
  8 36  1  0  0  0
  8 37  1  0  0  0
  9 21  1  0  0  0
  9 31  1  0  0  0
  9 38  1  0  0  0
  9 39  1  0  0  0
 10 40  1  0  0  0
 11 12  1  0  0  0
 11 14  2  0  0  0
 11 15  1  0  0  0
 12 17  1  0  0  0
 12 28  2  0  0  0
 13 28  1  0  0  0
 13 29  2  0  0  0
 13 57  1  0  0  0
 14 29  1  0  0  0
 14 31  1  0  0  0
 15 30  2  0  0  0
 15 41  1  0  0  0
 16 17  2  0  0  0
 16 18  1  0  0  0
 16 30  1  0  0  0
 17 26  1  0  0  0
 18 23  2  0  0  0
 19 20  1  0  0  0
 19 31  1  0  0  0
 19 42  1  0  0  0
 19 43  1  0  0  0
 20 22  1  0  0  0
 20 32  1  0  0  0
 20 44  1  0  0  0
 21 32  1  0  0  0
 21 45  1  0  0  0
 22 46  1  0  0  0
 22 47  1  0  0  0
 23 48  1  0  0  0
 24 25  3  0  0  0
 25 49  1  0  0  0
 32 50  1  0  0  0
 33 51  1  0  0  0
 52 56  1  0  0  0
 52 57  2  0  0  0
 52 61  1  0  0  0
 53 57  1  0  0  0
 53 62  1  0  0  0
 53 63  1  0  0  0
 54 55  1  0  0  0
 54 58  1  0  0  0
 54 64  1  0  0  0
 55 59  2  0  0  0
 56 60  1  0  0  0
 56 65  1  0  0  0
 56 66  1  0  0  0
 58 60  2  0  0  0
 58 67  1  0  0  0
 59 60  1  0  0  0
 59 68  1  0  0  0
M  CHG  1  52   1
M  END
> <s_m_entry_id>
512

> <s_m_entry_name>
000000512.1

> <s_m_Source_Path>
/Users/zaksoul/Documents/2

> <s_m_Source_File>
000000512.mol2

> <i_m_Source_File_Index>
1

$$$$
No_0_536
                    3D
 Schrodinger Suite 2022-4.
 68 74  0  0  1  0            999 V2000
   -5.0940    3.2450  -21.9420 C   0  0  0  0  0  0
   -5.3720    3.4740  -23.2680 C   0  0  0  0  0  0
   -3.8520    2.9860  -21.6200 C   0  0  0  0  0  0
   -2.9800    3.1830  -23.7880 C   0  0  0  0  0  0
   -2.8060    2.8950  -22.3780 C   0  0  0  0  0  0
   -4.3330    3.4570  -24.2890 C   0  0  0  0  0  0
   -3.5970    3.5510  -26.4920 C   0  0  0  0  0  0
    6.1800    2.6880  -21.3370 C   0  0  0  0  0  0
    6.0190    2.9100  -23.8790 C   0  0  0  0  0  0
   -4.5960    3.6260  -25.6170 C   0  0  0  0  0  0
    2.2320    3.4440  -23.8470 C   0  0  0  0  0  0
    1.4100    4.5400  -23.5050 C   0  0  0  0  0  0
    3.2100    5.7200  -22.8040 C   0  0  0  0  0  0
    3.6350    3.6300  -23.5400 C   0  0  0  0  0  0
    1.6840    2.3460  -24.5380 C   0  0  0  0  0  0
   -0.4450    3.1480  -24.3830 C   0  0  0  0  0  0
    0.0830    4.3500  -23.7510 C   0  0  0  0  0  0
   -1.9010    3.1590  -24.7250 C   0  0  0  0  0  0
    4.2520    1.1270  -23.3320 C   0  0  0  0  0  0
    5.1960    0.7380  -22.2050 C   0  0  2  0  0  0
    6.7790    2.3010  -22.7070 C   0  0  2  0  0  0
    5.1850    1.7020  -21.0070 C   0  0  0  0  0  0
   -2.2400    3.3630  -26.1440 C   0  0  0  0  0  0
   -1.4550    2.4680  -21.8040 C   0  0  0  0  0  0
   -0.4190    2.1080  -21.3180 C   0  0  0  0  0  0
   -0.7600    5.3810  -23.3660 F   0  0  0  0  0  0
   -3.6280    2.7000  -20.2480 F   0  0  0  0  0  0
    1.8880    5.6830  -22.9420 N   0  0  0  0  0  0
    4.1080    4.7680  -23.0620 N   0  0  0  0  0  0
    0.3750    2.2610  -24.8340 N   0  0  0  0  0  0
    4.5550    2.5920  -23.7580 N   0  0  0  0  0  0
    6.5990    0.8260  -22.6980 N   0  0  1  0  0  0
   -3.7830    3.6090  -27.8790 O   0  0  0  0  0  0
   -5.8891    3.2821  -21.2061 H   0  0  0  0  0  0
   -6.3901    3.6756  -23.5809 H   0  0  0  0  0  0
    5.7054    3.6775  -21.4117 H   0  0  0  0  0  0
    6.9733    2.6769  -20.5750 H   0  0  0  0  0  0
    6.4066    2.4962  -24.8216 H   0  0  0  0  0  0
    6.1573    4.0013  -23.8790 H   0  0  0  0  0  0
   -5.6100    3.8176  -25.9490 H   0  0  0  0  0  0
    2.3235    1.5287  -24.8512 H   0  0  0  0  0  0
    3.2123    1.0554  -22.9801 H   0  0  0  0  0  0
    4.4084    0.4561  -24.1896 H   0  0  0  0  0  0
    4.9789   -0.2859  -21.8667 H   0  0  0  0  0  0
    7.8460    2.5642  -22.7544 H   0  0  0  0  0  0
    4.2004    2.1877  -20.9393 H   0  0  0  0  0  0
    5.4960    1.1608  -20.1013 H   0  0  0  0  0  0
   -1.4770    3.3700  -26.9140 H   0  0  0  0  0  0
    0.4937    1.7921  -20.8911 H   0  0  0  0  0  0
    7.2542    0.3087  -22.0128 H   0  0  0  0  0  0
   -2.9415    3.5378  -28.3141 H   0  0  0  0  0  0
    4.9280    7.0150  -21.6270 N   0  3  0  0  0  0
    3.0490    8.1390  -22.5750 N   0  0  0  0  0  0
    7.6550    9.8120  -23.6740 N   0  0  0  0  0  0
    6.6390   10.6960  -23.5680 N   0  0  0  0  0  0
    5.5250    8.2210  -21.0600 C   0  0  0  0  0  0
    3.7630    7.0330  -22.3030 C   0  0  0  0  0  0
    7.3490    8.8410  -22.7770 C   0  0  0  0  0  0
    5.7840   10.2820  -22.6710 C   0  0  0  0  0  0
    6.2020    9.0650  -22.1230 C   0  0  0  0  0  0
    5.4322    6.1267  -21.4940 H   0  0  0  0  0  0
    2.1653    8.0650  -23.0989 H   0  0  0  0  0  0
    3.3850    9.0600  -22.2590 H   0  0  0  0  0  0
    8.4208    9.9849  -24.3408 H   0  0  0  0  0  0
    6.2613    7.9399  -20.2927 H   0  0  0  0  0  0
    4.7456    8.8163  -20.5618 H   0  0  0  0  0  0
    8.0110    7.9920  -22.6510 H   0  0  0  0  0  0
    4.9007   10.8712  -22.4529 H   0  0  0  0  0  0
  1  2  2  0  0  0
  1  3  1  0  0  0
  1 34  1  0  0  0
  2  6  1  0  0  0
  2 35  1  0  0  0
  3  5  2  0  0  0
  3 27  1  0  0  0
  4  5  1  0  0  0
  4  6  2  0  0  0
  4 18  1  0  0  0
  5 24  1  0  0  0
  6 10  1  0  0  0
  7 10  2  0  0  0
  7 23  1  0  0  0
  7 33  1  0  0  0
  8 21  1  0  0  0
  8 22  1  0  0  0
  8 36  1  0  0  0
  8 37  1  0  0  0
  9 21  1  0  0  0
  9 31  1  0  0  0
  9 38  1  0  0  0
  9 39  1  0  0  0
 10 40  1  0  0  0
 11 12  1  0  0  0
 11 14  2  0  0  0
 11 15  1  0  0  0
 12 17  1  0  0  0
 12 28  2  0  0  0
 13 28  1  0  0  0
 13 29  2  0  0  0
 13 57  1  0  0  0
 14 29  1  0  0  0
 14 31  1  0  0  0
 15 30  2  0  0  0
 15 41  1  0  0  0
 16 17  2  0  0  0
 16 18  1  0  0  0
 16 30  1  0  0  0
 17 26  1  0  0  0
 18 23  2  0  0  0
 19 20  1  0  0  0
 19 31  1  0  0  0
 19 42  1  0  0  0
 19 43  1  0  0  0
 20 22  1  0  0  0
 20 32  1  0  0  0
 20 44  1  0  0  0
 21 32  1  0  0  0
 21 45  1  0  0  0
 22 46  1  0  0  0
 22 47  1  0  0  0
 23 48  1  0  0  0
 24 25  3  0  0  0
 25 49  1  0  0  0
 32 50  1  0  0  0
 33 51  1  0  0  0
 52 56  1  0  0  0
 52 57  2  0  0  0
 52 61  1  0  0  0
 53 57  1  0  0  0
 53 62  1  0  0  0
 53 63  1  0  0  0
 54 55  1  0  0  0
 54 58  1  0  0  0
 54 64  1  0  0  0
 55 59  2  0  0  0
 56 60  1  0  0  0
 56 65  1  0  0  0
 56 66  1  0  0  0
 58 60  2  0  0  0
 58 67  1  0  0  0
 59 60  1  0  0  0
 59 68  1  0  0  0
M  CHG  1  52   1
M  END
> <s_m_entry_id>
513

> <s_m_entry_name>
000000513.1

> <s_m_Source_Path>
/Users/zaksoul/Documents/2

> <s_m_Source_File>
000000513.mol2

> <i_m_Source_File_Index>
1

$$$$
No_0_537
                    3D
 Schrodinger Suite 2022-4.
 68 74  0  0  1  0            999 V2000
   -5.0360    3.5090  -22.1690 C   0  0  0  0  0  0
   -5.2880    3.6710  -23.5100 C   0  0  0  0  0  0
   -3.7950    3.3030  -21.8070 C   0  0  0  0  0  0
   -2.8760    3.4310  -23.9610 C   0  0  0  0  0  0
   -2.7280    3.2100  -22.5350 C   0  0  0  0  0  0
   -4.2240    3.6410  -24.5040 C   0  0  0  0  0  0
   -3.4370    3.6590  -26.6920 C   0  0  0  0  0  0
    6.2320    3.3230  -21.2770 C   0  0  0  0  0  0
    6.1260    3.4270  -23.8300 C   0  0  0  0  0  0
   -4.4590    3.7420  -25.8450 C   0  0  0  0  0  0
    2.3260    3.8470  -23.9090 C   0  0  0  0  0  0
    1.4640    4.9310  -23.6370 C   0  0  0  0  0  0
    3.2110    6.1950  -22.9480 C   0  0  0  0  0  0
    3.7140    4.0890  -23.5790 C   0  0  0  0  0  0
    1.8270    2.7030  -24.5630 C   0  0  0  0  0  0
   -0.3270    3.4460  -24.4940 C   0  0  0  0  0  0
    0.1490    4.6910  -23.9040 C   0  0  0  0  0  0
   -1.7740    3.3980  -24.8700 C   0  0  0  0  0  0
    4.3990    1.6170  -23.2440 C   0  0  0  0  0  0
    5.3270    1.3080  -22.0800 C   0  0  2  0  0  0
    6.8750    2.8940  -22.6140 C   0  0  2  0  0  0
    5.2580    2.3230  -20.9270 C   0  0  0  0  0  0
   -2.0840    3.5280  -26.3040 C   0  0  0  0  0  0
   -1.3800    2.8510  -21.9110 C   0  0  0  0  0  0
   -0.3460    2.5450  -21.3860 C   0  0  0  0  0  0
   -0.7320    5.7110  -23.5860 F   0  0  0  0  0  0
   -3.5970    3.0850  -20.4180 F   0  0  0  0  0  0
    1.8940    6.1120  -23.1140 N   0  0  0  0  0  0
    4.1420    5.2610  -23.1420 N   0  0  0  0  0  0
    0.5290    2.5660  -24.8860 N   0  0  0  0  0  0
    4.6700    3.0700  -23.7280 N   0  0  0  0  0  0
    6.7380    1.4160  -22.5430 N   0  0  1  0  0  0
   -3.5900    3.6500  -28.0840 O   0  0  0  0  0  0
   -5.8499    3.5552  -21.4545 H   0  0  0  0  0  0
   -6.3036    3.8275  -23.8552 H   0  0  0  0  0  0
    5.7294    4.2928  -21.4072 H   0  0  0  0  0  0
    7.0061    3.3704  -20.4969 H   0  0  0  0  0  0
    6.5487    2.9842  -24.7439 H   0  0  0  0  0  0
    6.2330    4.5208  -23.8754 H   0  0  0  0  0  0
   -5.4697    3.8885  -26.2083 H   0  0  0  0  0  0
    2.4983    1.8932  -24.8249 H   0  0  0  0  0  0
    3.3536    1.5302  -22.9130 H   0  0  0  0  0  0
    4.5967    0.9148  -24.0673 H   0  0  0  0  0  0
    5.1313    0.2942  -21.7007 H   0  0  0  0  0  0
    7.9348    3.1867  -22.6493 H   0  0  0  0  0  0
    4.2582    2.7810  -20.9038 H   0  0  0  0  0  0
    5.5617    1.8317  -19.9908 H   0  0  0  0  0  0
   -1.3031    3.5240  -27.0558 H   0  0  0  0  0  0
    0.5645    2.2751  -20.9242 H   0  0  0  0  0  0
    7.3913    0.9498  -21.8203 H   0  0  0  0  0  0
   -2.7362    3.5857  -28.4956 H   0  0  0  0  0  0
    4.7130    7.5800  -21.5920 N   0  3  0  0  0  0
    3.1280    8.6280  -23.0360 N   0  0  0  0  0  0
    7.4220    9.7940  -21.9160 N   0  0  0  0  0  0
    5.7590    9.8390  -23.3140 N   0  0  0  0  0  0
    5.2530    8.8300  -21.0690 C   0  0  0  0  0  0
    3.7130    7.5450  -22.4940 C   0  0  0  0  0  0
    6.1440    9.4910  -22.0990 C   0  0  0  0  0  0
    7.8440   10.3610  -23.1010 C   0  0  0  0  0  0
    6.8310   10.3930  -23.9620 C   0  0  0  0  0  0
    5.1250    6.7021  -21.2450 H   0  0  0  0  0  0
    2.3671    8.5150  -23.7209 H   0  0  0  0  0  0
    3.4408    9.5713  -22.7652 H   0  0  0  0  0  0
    7.8757    9.5881  -21.0145 H   0  0  0  0  0  0
    5.8357    8.6261  -20.1585 H   0  0  0  0  0  0
    4.4259    9.5081  -20.8120 H   0  0  0  0  0  0
    8.8693   10.6961  -23.2080 H   0  0  0  0  0  0
    6.7250   10.7470  -24.9811 H   0  0  0  0  0  0
  1  2  2  0  0  0
  1  3  1  0  0  0
  1 34  1  0  0  0
  2  6  1  0  0  0
  2 35  1  0  0  0
  3  5  2  0  0  0
  3 27  1  0  0  0
  4  5  1  0  0  0
  4  6  2  0  0  0
  4 18  1  0  0  0
  5 24  1  0  0  0
  6 10  1  0  0  0
  7 10  2  0  0  0
  7 23  1  0  0  0
  7 33  1  0  0  0
  8 21  1  0  0  0
  8 22  1  0  0  0
  8 36  1  0  0  0
  8 37  1  0  0  0
  9 21  1  0  0  0
  9 31  1  0  0  0
  9 38  1  0  0  0
  9 39  1  0  0  0
 10 40  1  0  0  0
 11 12  1  0  0  0
 11 14  2  0  0  0
 11 15  1  0  0  0
 12 17  1  0  0  0
 12 28  2  0  0  0
 13 28  1  0  0  0
 13 29  2  0  0  0
 13 57  1  0  0  0
 14 29  1  0  0  0
 14 31  1  0  0  0
 15 30  2  0  0  0
 15 41  1  0  0  0
 16 17  2  0  0  0
 16 18  1  0  0  0
 16 30  1  0  0  0
 17 26  1  0  0  0
 18 23  2  0  0  0
 19 20  1  0  0  0
 19 31  1  0  0  0
 19 42  1  0  0  0
 19 43  1  0  0  0
 20 22  1  0  0  0
 20 32  1  0  0  0
 20 44  1  0  0  0
 21 32  1  0  0  0
 21 45  1  0  0  0
 22 46  1  0  0  0
 22 47  1  0  0  0
 23 48  1  0  0  0
 24 25  3  0  0  0
 25 49  1  0  0  0
 32 50  1  0  0  0
 33 51  1  0  0  0
 52 56  1  0  0  0
 52 57  2  0  0  0
 52 61  1  0  0  0
 53 57  1  0  0  0
 53 62  1  0  0  0
 53 63  1  0  0  0
 54 58  1  0  0  0
 54 59  1  0  0  0
 54 64  1  0  0  0
 55 58  2  0  0  0
 55 60  1  0  0  0
 56 58  1  0  0  0
 56 65  1  0  0  0
 56 66  1  0  0  0
 59 60  2  0  0  0
 59 67  1  0  0  0
 60 68  1  0  0  0
M  CHG  1  52   1
M  END
> <s_m_entry_id>
514

> <s_m_entry_name>
000000514.1

> <s_m_Source_Path>
/Users/zaksoul/Documents/2

> <s_m_Source_File>
000000514.mol2

> <i_m_Source_File_Index>
1

$$$$
No_0_538
                    3D
 Schrodinger Suite 2022-4.
 65 71  0  0  1  0            999 V2000
   -5.1920    3.4890  -22.4150 C   0  0  0  0  0  0
   -5.3900    3.7070  -23.7570 C   0  0  0  0  0  0
   -3.9730    3.2230  -22.0180 C   0  0  0  0  0  0
   -2.9740    3.3910  -24.1330 C   0  0  0  0  0  0
   -2.8860    3.1160  -22.7120 C   0  0  0  0  0  0
   -4.2930    3.6710  -24.7150 C   0  0  0  0  0  0
   -3.4300    3.7370  -26.8720 C   0  0  0  0  0  0
    6.0220    2.8440  -21.1460 C   0  0  0  0  0  0
    6.0110    3.0420  -23.6950 C   0  0  0  0  0  0
   -4.4770    3.8290  -26.0580 C   0  0  0  0  0  0
    2.2340    3.6080  -23.8890 C   0  0  0  0  0  0
    1.4030    4.7130  -23.6070 C   0  0  0  0  0  0
    3.1700    5.8860  -22.8130 C   0  0  0  0  0  0
    3.6180    3.7850  -23.5030 C   0  0  0  0  0  0
    1.7180    2.5070  -24.6010 C   0  0  0  0  0  0
   -0.4100    3.3280  -24.5790 C   0  0  0  0  0  0
    0.0910    4.5330  -23.9280 C   0  0  0  0  0  0
   -1.8430    3.3490  -25.0050 C   0  0  0  0  0  0
    4.1990    1.2790  -23.2350 C   0  0  0  0  0  0
    5.0730    0.8940  -22.0520 C   0  0  2  0  0  0
    6.6970    2.4380  -22.4750 C   0  0  2  0  0  0
    5.0010    1.8700  -20.8650 C   0  0  0  0  0  0
   -2.0960    3.5400  -26.4430 C   0  0  0  0  0  0
   -1.5740    2.6830  -22.0570 C   0  0  0  0  0  0
   -0.5710    2.3200  -21.5080 C   0  0  0  0  0  0
   -0.7630    5.5740  -23.6030 F   0  0  0  0  0  0
   -3.8330    2.9490  -20.6330 F   0  0  0  0  0  0
    1.8580    5.8580  -23.0280 N   0  0  0  0  0  0
    4.0730    4.9240  -23.0090 N   0  0  0  0  0  0
    0.4280    2.4310  -24.9730 N   0  0  0  0  0  0
    4.5400    2.7370  -23.6570 N   0  0  0  0  0  0
    6.5030    0.9650  -22.4620 N   0  0  1  0  0  0
   -3.5330    3.7820  -28.2680 O   0  0  0  0  0  0
   -6.0287    3.5402  -21.7278 H   0  0  0  0  0  0
   -6.3862    3.9137  -24.1312 H   0  0  0  0  0  0
    5.5606    3.8364  -21.2570 H   0  0  0  0  0  0
    6.7689    2.8339  -20.3385 H   0  0  0  0  0  0
    6.4498    2.6153  -24.6090 H   0  0  0  0  0  0
    6.1594    4.1319  -23.6980 H   0  0  0  0  0  0
   -5.4682    4.0256  -26.4503 H   0  0  0  0  0  0
    2.3676    1.6817  -24.8691 H   0  0  0  0  0  0
    3.1401    1.2194  -22.9433 H   0  0  0  0  0  0
    4.3997    0.5981  -24.0753 H   0  0  0  0  0  0
    4.8279   -0.1247  -21.7171 H   0  0  0  0  0  0
    7.7673    2.6914  -22.4629 H   0  0  0  0  0  0
    4.0184    2.3643  -20.8600 H   0  0  0  0  0  0
    5.2524    1.3350  -19.9373 H   0  0  0  0  0  0
   -1.2899    3.5340  -27.1678 H   0  0  0  0  0  0
    0.3116    1.9998  -21.0247 H   0  0  0  0  0  0
    7.1124    0.4486  -21.7350 H   0  0  0  0  0  0
   -2.6683    3.6999  -28.6528 H   0  0  0  0  0  0
    3.1750    8.3920  -22.6400 O   0  0  0  0  0  0
    7.0030    8.6630  -19.9570 N   0  3  0  0  0  0
    5.8660    9.5340  -20.4160 C   0  0  0  0  0  0
    4.7370    7.3850  -21.4640 C   0  0  0  0  0  0
    3.8930    9.3030  -22.0200 C   0  0  0  0  0  0
    4.8670    8.7780  -21.2740 C   0  0  0  0  0  0
    3.7050    7.1990  -22.2940 C   0  0  0  0  0  0
    7.6370    9.2070  -19.3930 H   0  0  0  0  0  0
    6.6412    7.8974  -19.4103 H   0  0  0  0  0  0
    7.4940    8.3000  -20.7590 H   0  0  0  0  0  0
    6.2650   10.3860  -20.9860 H   0  0  0  0  0  0
    5.3510    9.9550  -19.5399 H   0  0  0  0  0  0
    5.4220    6.7010  -20.9650 H   0  0  0  0  0  0
    3.7649   10.3835  -22.0660 H   0  0  0  0  0  0
  1  2  2  0  0  0
  1  3  1  0  0  0
  1 34  1  0  0  0
  2  6  1  0  0  0
  2 35  1  0  0  0
  3  5  2  0  0  0
  3 27  1  0  0  0
  4  5  1  0  0  0
  4  6  2  0  0  0
  4 18  1  0  0  0
  5 24  1  0  0  0
  6 10  1  0  0  0
  7 10  2  0  0  0
  7 23  1  0  0  0
  7 33  1  0  0  0
  8 21  1  0  0  0
  8 22  1  0  0  0
  8 36  1  0  0  0
  8 37  1  0  0  0
  9 21  1  0  0  0
  9 31  1  0  0  0
  9 38  1  0  0  0
  9 39  1  0  0  0
 10 40  1  0  0  0
 11 12  1  0  0  0
 11 14  2  0  0  0
 11 15  1  0  0  0
 12 17  1  0  0  0
 12 28  2  0  0  0
 13 28  1  0  0  0
 13 29  2  0  0  0
 13 58  1  0  0  0
 14 29  1  0  0  0
 14 31  1  0  0  0
 15 30  2  0  0  0
 15 41  1  0  0  0
 16 17  2  0  0  0
 16 18  1  0  0  0
 16 30  1  0  0  0
 17 26  1  0  0  0
 18 23  2  0  0  0
 19 20  1  0  0  0
 19 31  1  0  0  0
 19 42  1  0  0  0
 19 43  1  0  0  0
 20 22  1  0  0  0
 20 32  1  0  0  0
 20 44  1  0  0  0
 21 32  1  0  0  0
 21 45  1  0  0  0
 22 46  1  0  0  0
 22 47  1  0  0  0
 23 48  1  0  0  0
 24 25  3  0  0  0
 25 49  1  0  0  0
 32 50  1  0  0  0
 33 51  1  0  0  0
 52 56  1  0  0  0
 52 58  1  0  0  0
 53 54  1  0  0  0
 53 59  1  0  0  0
 53 60  1  0  0  0
 53 61  1  0  0  0
 54 57  1  0  0  0
 54 62  1  0  0  0
 54 63  1  0  0  0
 55 57  1  0  0  0
 55 58  2  0  0  0
 55 64  1  0  0  0
 56 57  2  0  0  0
 56 65  1  0  0  0
M  CHG  1  53   1
M  END
> <s_m_entry_id>
515

> <s_m_entry_name>
000000515.1

> <s_m_Source_Path>
/Users/zaksoul/Documents/2

> <s_m_Source_File>
000000515.mol2

> <i_m_Source_File_Index>
1

$$$$
No_0_539
                    3D
 Schrodinger Suite 2022-4.
 65 71  0  0  1  0            999 V2000
   -5.0840    3.4500  -22.2630 C   0  0  0  0  0  0
   -5.3140    3.6620  -23.6020 C   0  0  0  0  0  0
   -3.8570    3.1810  -21.8950 C   0  0  0  0  0  0
   -2.9090    3.3340  -24.0350 C   0  0  0  0  0  0
   -2.7870    3.0660  -22.6150 C   0  0  0  0  0  0
   -4.2410    3.6170  -24.5860 C   0  0  0  0  0  0
   -3.4290    3.6670  -26.7630 C   0  0  0  0  0  0
    6.1550    2.7670  -21.2620 C   0  0  0  0  0  0
    6.0830    2.9520  -23.8120 C   0  0  0  0  0  0
   -4.4570    3.7670  -25.9250 C   0  0  0  0  0  0
    2.3050    3.5310  -23.9180 C   0  0  0  0  0  0
    1.4850    4.6420  -23.6220 C   0  0  0  0  0  0
    3.2740    5.8120  -22.8760 C   0  0  0  0  0  0
    3.6980    3.7060  -23.5650 C   0  0  0  0  0  0
    1.7670    2.4300  -24.6100 C   0  0  0  0  0  0
   -0.3560    3.2590  -24.5410 C   0  0  0  0  0  0
    0.1640    4.4650  -23.9090 C   0  0  0  0  0  0
   -1.8000    3.2830  -24.9330 C   0  0  0  0  0  0
    4.2760    1.1980  -23.2990 C   0  0  0  0  0  0
    5.1770    0.8160  -22.1340 C   0  0  2  0  0  0
    6.7950    2.3520  -22.6050 C   0  0  2  0  0  0
    5.1370    1.7990  -20.9520 C   0  0  0  0  0  0
   -2.0870    3.4680  -26.3660 C   0  0  0  0  0  0
   -1.4620    2.6320  -21.9890 C   0  0  0  0  0  0
   -0.4480    2.2670  -21.4620 C   0  0  0  0  0  0
   -0.6780    5.5110  -23.5700 F   0  0  0  0  0  0
   -3.6840    2.9150  -20.5120 F   0  0  0  0  0  0
    1.9570    5.7880  -23.0590 N   0  0  0  0  0  0
    4.1690    4.8450  -23.0890 N   0  0  0  0  0  0
    0.4680    2.3560  -24.9510 N   0  0  0  0  0  0
    4.6120    2.6530  -23.7360 N   0  0  0  0  0  0
    6.5960    0.8790  -22.5790 N   0  0  1  0  0  0
   -3.5660    3.7050  -28.1560 O   0  0  0  0  0  0
   -5.9040    3.5082  -21.5564 H   0  0  0  0  0  0
   -6.3181    3.8706  -23.9531 H   0  0  0  0  0  0
    5.6950    3.7606  -21.3679 H   0  0  0  0  0  0
    6.9211    2.7589  -20.4727 H   0  0  0  0  0  0
    6.4977    2.5191  -24.7343 H   0  0  0  0  0  0
    6.2354    4.0413  -23.8231 H   0  0  0  0  0  0
   -5.4567    3.9667  -26.2934 H   0  0  0  0  0  0
    2.4062    1.6001  -24.8890 H   0  0  0  0  0  0
    3.2243    1.1455  -22.9811 H   0  0  0  0  0  0
    4.4538    0.5121  -24.1404 H   0  0  0  0  0  0
    4.9346   -0.1999  -21.7886 H   0  0  0  0  0  0
    7.8663    2.6012  -22.6201 H   0  0  0  0  0  0
    4.1567    2.2972  -20.9258 H   0  0  0  0  0  0
    5.4094    1.2683  -20.0278 H   0  0  0  0  0  0
   -1.2978    3.4539  -27.1090 H   0  0  0  0  0  0
    0.4454    1.9469  -20.9988 H   0  0  0  0  0  0
    7.2216    0.3646  -21.8646 H   0  0  0  0  0  0
   -2.7114    3.6170  -28.5615 H   0  0  0  0  0  0
    3.1420    8.2860  -22.4640 O   0  0  0  0  0  0
    7.4930    8.7100  -20.7870 N   0  3  0  0  0  0
    6.2170    9.5020  -20.8660 C   0  0  0  0  0  0
    5.0190    7.3430  -21.8120 C   0  0  0  0  0  0
    3.9260    9.2100  -21.9530 C   0  0  0  0  0  0
    5.0910    8.7240  -21.5230 C   0  0  0  0  0  0
    3.8270    7.1250  -22.3770 C   0  0  0  0  0  0
    8.2081    9.2661  -20.3449 H   0  0  0  0  0  0
    7.3370    7.8739  -20.2460 H   0  0  0  0  0  0
    7.7908    8.4581  -21.7165 H   0  0  0  0  0  0
    6.3970   10.4298  -21.4289 H   0  0  0  0  0  0
    5.9109    9.8041  -19.8536 H   0  0  0  0  0  0
    5.8553    6.6907  -21.5649 H   0  0  0  0  0  0
    3.7121   10.2736  -21.8590 H   0  0  0  0  0  0
  1  2  2  0  0  0
  1  3  1  0  0  0
  1 34  1  0  0  0
  2  6  1  0  0  0
  2 35  1  0  0  0
  3  5  2  0  0  0
  3 27  1  0  0  0
  4  5  1  0  0  0
  4  6  2  0  0  0
  4 18  1  0  0  0
  5 24  1  0  0  0
  6 10  1  0  0  0
  7 10  2  0  0  0
  7 23  1  0  0  0
  7 33  1  0  0  0
  8 21  1  0  0  0
  8 22  1  0  0  0
  8 36  1  0  0  0
  8 37  1  0  0  0
  9 21  1  0  0  0
  9 31  1  0  0  0
  9 38  1  0  0  0
  9 39  1  0  0  0
 10 40  1  0  0  0
 11 12  1  0  0  0
 11 14  2  0  0  0
 11 15  1  0  0  0
 12 17  1  0  0  0
 12 28  2  0  0  0
 13 28  1  0  0  0
 13 29  2  0  0  0
 13 58  1  0  0  0
 14 29  1  0  0  0
 14 31  1  0  0  0
 15 30  2  0  0  0
 15 41  1  0  0  0
 16 17  2  0  0  0
 16 18  1  0  0  0
 16 30  1  0  0  0
 17 26  1  0  0  0
 18 23  2  0  0  0
 19 20  1  0  0  0
 19 31  1  0  0  0
 19 42  1  0  0  0
 19 43  1  0  0  0
 20 22  1  0  0  0
 20 32  1  0  0  0
 20 44  1  0  0  0
 21 32  1  0  0  0
 21 45  1  0  0  0
 22 46  1  0  0  0
 22 47  1  0  0  0
 23 48  1  0  0  0
 24 25  3  0  0  0
 25 49  1  0  0  0
 32 50  1  0  0  0
 33 51  1  0  0  0
 52 56  1  0  0  0
 52 58  1  0  0  0
 53 54  1  0  0  0
 53 59  1  0  0  0
 53 60  1  0  0  0
 53 61  1  0  0  0
 54 57  1  0  0  0
 54 62  1  0  0  0
 54 63  1  0  0  0
 55 57  1  0  0  0
 55 58  2  0  0  0
 55 64  1  0  0  0
 56 57  2  0  0  0
 56 65  1  0  0  0
M  CHG  1  53   1
M  END
> <s_m_entry_id>
516

> <s_m_entry_name>
000000516.1

> <s_m_Source_Path>
/Users/zaksoul/Documents/2

> <s_m_Source_File>
000000516.mol2

> <i_m_Source_File_Index>
1

$$$$
No_0_540
                    3D
 Schrodinger Suite 2022-4.
 64 70  0  0  1  0            999 V2000
   -5.2030    3.8590  -22.2450 C   0  0  0  0  0  0
   -5.4570    4.0050  -23.5880 C   0  0  0  0  0  0
   -3.9670    3.6220  -21.8850 C   0  0  0  0  0  0
   -3.0560    3.6860  -24.0450 C   0  0  0  0  0  0
   -2.9070    3.4860  -22.6160 C   0  0  0  0  0  0
   -4.3990    3.9260  -24.5860 C   0  0  0  0  0  0
   -3.6230    3.8840  -26.7770 C   0  0  0  0  0  0
    6.0590    3.3590  -21.4010 C   0  0  0  0  0  0
    5.9430    3.4220  -23.9540 C   0  0  0  0  0  0
   -4.6380    4.0120  -25.9270 C   0  0  0  0  0  0
    2.1570    3.9510  -24.0240 C   0  0  0  0  0  0
    1.3280    5.0640  -23.7670 C   0  0  0  0  0  0
    3.1140    6.2890  -23.1070 C   0  0  0  0  0  0
    3.5530    4.1580  -23.7040 C   0  0  0  0  0  0
    1.6220    2.8120  -24.6560 C   0  0  0  0  0  0
   -0.5100    3.6180  -24.5900 C   0  0  0  0  0  0
    0.0050    4.8580  -24.0240 C   0  0  0  0  0  0
   -1.9600    3.6060  -24.9580 C   0  0  0  0  0  0
    4.1670    1.6740  -23.3300 C   0  0  0  0  0  0
    5.0920    1.3580  -22.1640 C   0  0  2  0  0  0
    6.6830    2.8890  -22.7330 C   0  0  2  0  0  0
    5.0580    2.3940  -21.0280 C   0  0  0  0  0  0
   -2.2720    3.7200  -26.3930 C   0  0  0  0  0  0
   -1.5670    3.0980  -21.9920 C   0  0  0  0  0  0
   -0.5390    2.7710  -21.4670 C   0  0  0  0  0  0
   -0.8440    5.9100  -23.7190 F   0  0  0  0  0  0
   -3.7680    3.4230  -20.4940 F   0  0  0  0  0  0
    1.7950    6.2420  -23.2660 N   0  0  0  0  0  0
    4.0170    5.3250  -23.2890 N   0  0  0  0  0  0
    0.3190    2.7070  -24.9700 N   0  0  0  0  0  0
    4.4780    3.1100  -23.8400 N   0  0  0  0  0  0
    6.5030    1.4170  -22.6350 N   0  0  1  0  0  0
   -3.7830    3.8560  -28.1680 O   0  0  0  0  0  0
   -6.0121    3.9403  -21.5282 H   0  0  0  0  0  0
   -6.4693    4.1856  -23.9311 H   0  0  0  0  0  0
    5.5847    4.3409  -21.5453 H   0  0  0  0  0  0
    6.8374    3.3964  -20.6246 H   0  0  0  0  0  0
    6.3486    2.9519  -24.8620 H   0  0  0  0  0  0
    6.0822    4.5112  -24.0196 H   0  0  0  0  0  0
   -5.6461    4.1805  -26.2881 H   0  0  0  0  0  0
    2.2675    1.9778  -24.9060 H   0  0  0  0  0  0
    3.1215    1.6225  -22.9919 H   0  0  0  0  0  0
    4.3407    0.9511  -24.1407 H   0  0  0  0  0  0
    4.8692    0.3567  -21.7667 H   0  0  0  0  0  0
    7.7508    3.1494  -22.7774 H   0  0  0  0  0  0
    4.0721    2.8814  -21.0088 H   0  0  0  0  0  0
    5.3519    1.9103  -20.0848 H   0  0  0  0  0  0
   -1.4950    3.6809  -27.1479 H   0  0  0  0  0  0
    0.3652    2.4829  -21.0039 H   0  0  0  0  0  0
    7.1457    0.9432  -21.9078 H   0  0  0  0  0  0
   -2.9338    3.7590  -28.5827 H   0  0  0  0  0  0
    3.9220    9.7690  -22.4520 O   0  0  0  0  0  0
    7.2340    9.9840  -21.5330 N   0  3  0  0  0  0
    3.1250    8.7630  -23.0500 N   0  0  0  0  0  0
    5.8750    9.9460  -20.8940 C   0  0  0  0  0  0
    4.7760    7.8580  -21.8390 C   0  0  0  0  0  0
    4.8720    9.1710  -21.7270 C   0  0  0  0  0  0
    3.6580    7.6310  -22.6790 C   0  0  0  0  0  0
    7.8659   10.5069  -20.9471 H   0  0  0  0  0  0
    7.5801    9.0438  -21.6440 H   0  0  0  0  0  0
    7.1690   10.4270  -22.4361 H   0  0  0  0  0  0
    5.5109   10.9734  -20.7459 H   0  0  0  0  0  0
    5.9520    9.4888  -19.8965 H   0  0  0  0  0  0
    5.4892    7.2138  -21.3269 H   0  0  0  0  0  0
  1  2  2  0  0  0
  1  3  1  0  0  0
  1 34  1  0  0  0
  2  6  1  0  0  0
  2 35  1  0  0  0
  3  5  2  0  0  0
  3 27  1  0  0  0
  4  5  1  0  0  0
  4  6  2  0  0  0
  4 18  1  0  0  0
  5 24  1  0  0  0
  6 10  1  0  0  0
  7 10  2  0  0  0
  7 23  1  0  0  0
  7 33  1  0  0  0
  8 21  1  0  0  0
  8 22  1  0  0  0
  8 36  1  0  0  0
  8 37  1  0  0  0
  9 21  1  0  0  0
  9 31  1  0  0  0
  9 38  1  0  0  0
  9 39  1  0  0  0
 10 40  1  0  0  0
 11 12  1  0  0  0
 11 14  2  0  0  0
 11 15  1  0  0  0
 12 17  1  0  0  0
 12 28  2  0  0  0
 13 28  1  0  0  0
 13 29  2  0  0  0
 13 58  1  0  0  0
 14 29  1  0  0  0
 14 31  1  0  0  0
 15 30  2  0  0  0
 15 41  1  0  0  0
 16 17  2  0  0  0
 16 18  1  0  0  0
 16 30  1  0  0  0
 17 26  1  0  0  0
 18 23  2  0  0  0
 19 20  1  0  0  0
 19 31  1  0  0  0
 19 42  1  0  0  0
 19 43  1  0  0  0
 20 22  1  0  0  0
 20 32  1  0  0  0
 20 44  1  0  0  0
 21 32  1  0  0  0
 21 45  1  0  0  0
 22 46  1  0  0  0
 22 47  1  0  0  0
 23 48  1  0  0  0
 24 25  3  0  0  0
 25 49  1  0  0  0
 32 50  1  0  0  0
 33 51  1  0  0  0
 52 54  1  0  0  0
 52 57  1  0  0  0
 53 55  1  0  0  0
 53 59  1  0  0  0
 53 60  1  0  0  0
 53 61  1  0  0  0
 54 58  2  0  0  0
 55 57  1  0  0  0
 55 62  1  0  0  0
 55 63  1  0  0  0
 56 57  2  0  0  0
 56 58  1  0  0  0
 56 64  1  0  0  0
M  CHG  1  53   1
M  END
> <s_m_entry_id>
517

> <s_m_entry_name>
000000517.1

> <s_m_Source_Path>
/Users/zaksoul/Documents/2

> <s_m_Source_File>
000000517.mol2

> <i_m_Source_File_Index>
1

$$$$
No_0_541
                    3D
 Schrodinger Suite 2022-4.
 64 70  0  0  1  0            999 V2000
   -5.2510    3.5760  -22.0140 C   0  0  0  0  0  0
   -5.5040    3.7980  -23.3470 C   0  0  0  0  0  0
   -4.0160    3.3170  -21.6670 C   0  0  0  0  0  0
   -3.1030    3.5010  -23.8190 C   0  0  0  0  0  0
   -2.9560    3.2200  -22.4030 C   0  0  0  0  0  0
   -4.4450    3.7740  -24.3470 C   0  0  0  0  0  0
   -3.6670    3.8530  -26.5360 C   0  0  0  0  0  0
    6.0080    3.0050  -21.1890 C   0  0  0  0  0  0
    5.8960    3.2120  -23.7350 C   0  0  0  0  0  0
   -4.6830    3.9350  -25.6810 C   0  0  0  0  0  0
    2.1100    3.7530  -23.7780 C   0  0  0  0  0  0
    1.2830    4.8510  -23.4600 C   0  0  0  0  0  0
    3.0720    6.0330  -22.7310 C   0  0  0  0  0  0
    3.5070    3.9380  -23.4460 C   0  0  0  0  0  0
    1.5730    2.6520  -24.4740 C   0  0  0  0  0  0
   -0.5570    3.4570  -24.3650 C   0  0  0  0  0  0
   -0.0390    4.6630  -23.7290 C   0  0  0  0  0  0
   -2.0060    3.4690  -24.7340 C   0  0  0  0  0  0
    4.1150    1.4350  -23.2120 C   0  0  0  0  0  0
    5.0380    1.0520  -22.0650 C   0  0  2  0  0  0
    6.6330    2.6090  -22.5450 C   0  0  2  0  0  0
    5.0050    2.0230  -20.8730 C   0  0  0  0  0  0
   -2.3170    3.6650  -26.1610 C   0  0  0  0  0  0
   -1.6170    2.7950  -21.8020 C   0  0  0  0  0  0
   -0.5910    2.4360  -21.2940 C   0  0  0  0  0  0
   -0.8870    5.6970  -23.3670 F   0  0  0  0  0  0
   -3.8190    3.0400  -20.2890 F   0  0  0  0  0  0
    1.7520    5.9970  -22.8940 N   0  0  0  0  0  0
    3.9730    5.0780  -22.9660 N   0  0  0  0  0  0
    0.2710    2.5670  -24.7950 N   0  0  0  0  0  0
    4.4290    2.8970  -23.6400 N   0  0  0  0  0  0
    6.4490    1.1340  -22.5310 N   0  0  1  0  0  0
   -3.8260    3.9030  -27.9260 O   0  0  0  0  0  0
   -6.0607    3.6191  -21.2946 H   0  0  0  0  0  0
   -6.5156    3.9997  -23.6802 H   0  0  0  0  0  0
    5.5359    3.9945  -21.2788 H   0  0  0  0  0  0
    6.7863    2.9979  -20.4117 H   0  0  0  0  0  0
    6.3008    2.7921  -24.6677 H   0  0  0  0  0  0
    6.0363    4.3030  -23.7390 H   0  0  0  0  0  0
   -5.6900    4.1268  -26.0334 H   0  0  0  0  0  0
    2.2169    1.8316  -24.7698 H   0  0  0  0  0  0
    3.0689    1.3673  -22.8788 H   0  0  0  0  0  0
    4.2876    0.7586  -24.0621 H   0  0  0  0  0  0
    4.8119    0.0306  -21.7249 H   0  0  0  0  0  0
    7.7011    2.8705  -22.5743 H   0  0  0  0  0  0
    4.0200    2.5105  -20.8266 H   0  0  0  0  0  0
    5.2965    1.4864  -19.9581 H   0  0  0  0  0  0
   -1.5390    3.6660  -26.9159 H   0  0  0  0  0  0
    0.3123    2.1209  -20.8469 H   0  0  0  0  0  0
    7.0905    0.6197  -21.8307 H   0  0  0  0  0  0
   -2.9768    3.8279  -28.3452 H   0  0  0  0  0  0
    3.1070    8.5060  -22.5200 O   0  0  0  0  0  0
    7.1550    9.8160  -21.3300 N   0  3  0  0  0  0
    4.6740    7.4890  -21.4490 N   0  0  0  0  0  0
    6.0060    9.4140  -20.4360 C   0  0  0  0  0  0
    4.8660    8.8220  -21.2430 C   0  0  0  0  0  0
    3.8770    9.4250  -21.9010 C   0  0  0  0  0  0
    3.6170    7.3480  -22.2270 C   0  0  0  0  0  0
    7.8961   10.2060  -20.7690 H   0  0  0  0  0  0
    7.4973    9.0064  -21.8234 H   0  0  0  0  0  0
    6.8391   10.5057  -21.9937 H   0  0  0  0  0  0
    5.6449   10.2942  -19.8839 H   0  0  0  0  0  0
    6.3560    8.6751  -19.7001 H   0  0  0  0  0  0
    3.7910   10.5104  -21.8790 H   0  0  0  0  0  0
  1  2  2  0  0  0
  1  3  1  0  0  0
  1 34  1  0  0  0
  2  6  1  0  0  0
  2 35  1  0  0  0
  3  5  2  0  0  0
  3 27  1  0  0  0
  4  5  1  0  0  0
  4  6  2  0  0  0
  4 18  1  0  0  0
  5 24  1  0  0  0
  6 10  1  0  0  0
  7 10  2  0  0  0
  7 23  1  0  0  0
  7 33  1  0  0  0
  8 21  1  0  0  0
  8 22  1  0  0  0
  8 36  1  0  0  0
  8 37  1  0  0  0
  9 21  1  0  0  0
  9 31  1  0  0  0
  9 38  1  0  0  0
  9 39  1  0  0  0
 10 40  1  0  0  0
 11 12  1  0  0  0
 11 14  2  0  0  0
 11 15  1  0  0  0
 12 17  1  0  0  0
 12 28  2  0  0  0
 13 28  1  0  0  0
 13 29  2  0  0  0
 13 58  1  0  0  0
 14 29  1  0  0  0
 14 31  1  0  0  0
 15 30  2  0  0  0
 15 41  1  0  0  0
 16 17  2  0  0  0
 16 18  1  0  0  0
 16 30  1  0  0  0
 17 26  1  0  0  0
 18 23  2  0  0  0
 19 20  1  0  0  0
 19 31  1  0  0  0
 19 42  1  0  0  0
 19 43  1  0  0  0
 20 22  1  0  0  0
 20 32  1  0  0  0
 20 44  1  0  0  0
 21 32  1  0  0  0
 21 45  1  0  0  0
 22 46  1  0  0  0
 22 47  1  0  0  0
 23 48  1  0  0  0
 24 25  3  0  0  0
 25 49  1  0  0  0
 32 50  1  0  0  0
 33 51  1  0  0  0
 52 57  1  0  0  0
 52 58  1  0  0  0
 53 55  1  0  0  0
 53 59  1  0  0  0
 53 60  1  0  0  0
 53 61  1  0  0  0
 54 56  1  0  0  0
 54 58  2  0  0  0
 55 56  1  0  0  0
 55 62  1  0  0  0
 55 63  1  0  0  0
 56 57  2  0  0  0
 57 64  1  0  0  0
M  CHG  1  53   1
M  END
> <s_m_entry_id>
518

> <s_m_entry_name>
000000518.1

> <s_m_Source_Path>
/Users/zaksoul/Documents/2

> <s_m_Source_File>
000000518.mol2

> <i_m_Source_File_Index>
1

$$$$
No_0_542
                    3D
 Schrodinger Suite 2022-4.
 64 70  0  0  1  0            999 V2000
   -5.0020    3.7130  -22.3180 C   0  0  0  0  0  0
   -5.2360    3.9010  -23.6600 C   0  0  0  0  0  0
   -3.7760    3.4390  -21.9500 C   0  0  0  0  0  0
   -2.8370    3.5410  -24.0970 C   0  0  0  0  0  0
   -2.7110    3.2990  -22.6720 C   0  0  0  0  0  0
   -4.1680    3.8260  -24.6470 C   0  0  0  0  0  0
   -3.3660    3.8250  -26.8290 C   0  0  0  0  0  0
    6.2340    2.9360  -21.3550 C   0  0  0  0  0  0
    6.1520    3.0710  -23.9080 C   0  0  0  0  0  0
   -4.3890    3.9520  -25.9880 C   0  0  0  0  0  0
    2.3790    3.6870  -24.0070 C   0  0  0  0  0  0
    1.5730    4.8110  -23.7300 C   0  0  0  0  0  0
    3.3770    5.9770  -23.0160 C   0  0  0  0  0  0
    3.7760    3.8540  -23.6650 C   0  0  0  0  0  0
    1.8270    2.5770  -24.6760 C   0  0  0  0  0  0
   -0.2870    3.4290  -24.6140 C   0  0  0  0  0  0
    0.2490    4.6420  -24.0080 C   0  0  0  0  0  0
   -1.7320    3.4600  -24.9990 C   0  0  0  0  0  0
    4.3300    1.3460  -23.3510 C   0  0  0  0  0  0
    5.2330    0.9780  -22.1840 C   0  0  2  0  0  0
    6.8640    2.4880  -22.6920 C   0  0  2  0  0  0
    5.2080    1.9840  -21.0210 C   0  0  0  0  0  0
   -2.0240    3.6200  -26.4340 C   0  0  0  0  0  0
   -1.3870    2.8640  -22.0440 C   0  0  0  0  0  0
   -0.3740    2.5000  -21.5150 C   0  0  0  0  0  0
   -0.5810    5.7040  -23.6850 F   0  0  0  0  0  0
   -3.5990    3.1980  -20.5630 F   0  0  0  0  0  0
    2.0590    5.9630  -23.1920 N   0  0  0  0  0  0
    4.2610    4.9970  -23.2140 N   0  0  0  0  0  0
    0.5260    2.5100  -25.0090 N   0  0  0  0  0  0
    4.6790    2.7880  -23.8190 N   0  0  0  0  0  0
    6.6500    1.0180  -22.6370 N   0  0  1  0  0  0
   -3.5090    3.8370  -28.2220 O   0  0  0  0  0  0
   -5.8177    3.7943  -21.6087 H   0  0  0  0  0  0
   -6.2396    4.1138  -24.0102 H   0  0  0  0  0  0
    5.7839    3.9321  -21.4781 H   0  0  0  0  0  0
    7.0042    2.9350  -20.5696 H   0  0  0  0  0  0
    6.5578    2.6158  -24.8235 H   0  0  0  0  0  0
    6.3155    4.1583  -23.9413 H   0  0  0  0  0  0
   -5.3882    4.1539  -26.3566 H   0  0  0  0  0  0
    2.4567    1.7354  -24.9411 H   0  0  0  0  0  0
    3.2791    1.3097  -23.0280 H   0  0  0  0  0  0
    4.4976    0.6424  -24.1798 H   0  0  0  0  0  0
    4.9827   -0.0282  -21.8166 H   0  0  0  0  0  0
    7.9378    2.7252  -22.7172 H   0  0  0  0  0  0
    4.2329    2.4927  -20.9998 H   0  0  0  0  0  0
    5.4795    1.4693  -20.0875 H   0  0  0  0  0  0
   -1.2391    3.5829  -27.1807 H   0  0  0  0  0  0
    0.5177    2.1791  -21.0492 H   0  0  0  0  0  0
    7.2734    0.5112  -21.9152 H   0  0  0  0  0  0
   -2.6569    3.7321  -28.6287 H   0  0  0  0  0  0
    3.3190    8.4290  -22.6360 O   0  0  0  0  0  0
    7.4490    9.9480  -22.2440 N   0  3  0  0  0  0
    5.1360    7.4630  -22.0020 N   0  0  0  0  0  0
    6.5470    9.4130  -21.1580 C   0  0  0  0  0  0
    5.2940    8.7910  -21.7450 C   0  0  0  0  0  0
    4.1540    9.3610  -22.1300 C   0  0  0  0  0  0
    3.9450    7.2950  -22.5450 C   0  0  0  0  0  0
    8.2727   10.3538  -21.8282 H   0  0  0  0  0  0
    7.7200    9.1960  -22.8580 H   0  0  0  0  0  0
    6.9581   10.6518  -22.7729 H   0  0  0  0  0  0
    6.2668   10.2315  -20.4786 H   0  0  0  0  0  0
    7.0901    8.6578  -20.5709 H   0  0  0  0  0  0
    4.0130   10.4341  -22.0100 H   0  0  0  0  0  0
  1  2  2  0  0  0
  1  3  1  0  0  0
  1 34  1  0  0  0
  2  6  1  0  0  0
  2 35  1  0  0  0
  3  5  2  0  0  0
  3 27  1  0  0  0
  4  5  1  0  0  0
  4  6  2  0  0  0
  4 18  1  0  0  0
  5 24  1  0  0  0
  6 10  1  0  0  0
  7 10  2  0  0  0
  7 23  1  0  0  0
  7 33  1  0  0  0
  8 21  1  0  0  0
  8 22  1  0  0  0
  8 36  1  0  0  0
  8 37  1  0  0  0
  9 21  1  0  0  0
  9 31  1  0  0  0
  9 38  1  0  0  0
  9 39  1  0  0  0
 10 40  1  0  0  0
 11 12  1  0  0  0
 11 14  2  0  0  0
 11 15  1  0  0  0
 12 17  1  0  0  0
 12 28  2  0  0  0
 13 28  1  0  0  0
 13 29  2  0  0  0
 13 58  1  0  0  0
 14 29  1  0  0  0
 14 31  1  0  0  0
 15 30  2  0  0  0
 15 41  1  0  0  0
 16 17  2  0  0  0
 16 18  1  0  0  0
 16 30  1  0  0  0
 17 26  1  0  0  0
 18 23  2  0  0  0
 19 20  1  0  0  0
 19 31  1  0  0  0
 19 42  1  0  0  0
 19 43  1  0  0  0
 20 22  1  0  0  0
 20 32  1  0  0  0
 20 44  1  0  0  0
 21 32  1  0  0  0
 21 45  1  0  0  0
 22 46  1  0  0  0
 22 47  1  0  0  0
 23 48  1  0  0  0
 24 25  3  0  0  0
 25 49  1  0  0  0
 32 50  1  0  0  0
 33 51  1  0  0  0
 52 57  1  0  0  0
 52 58  1  0  0  0
 53 55  1  0  0  0
 53 59  1  0  0  0
 53 60  1  0  0  0
 53 61  1  0  0  0
 54 56  1  0  0  0
 54 58  2  0  0  0
 55 56  1  0  0  0
 55 62  1  0  0  0
 55 63  1  0  0  0
 56 57  2  0  0  0
 57 64  1  0  0  0
M  CHG  1  53   1
M  END
> <s_m_entry_id>
519

> <s_m_entry_name>
000000519.1

> <s_m_Source_Path>
/Users/zaksoul/Documents/2

> <s_m_Source_File>
000000519.mol2

> <i_m_Source_File_Index>
1

$$$$
No_0_543
                    3D
 Schrodinger Suite 2022-4.
 65 70  0  0  1  0            999 V2000
   -5.2530    3.4920  -22.3440 C   0  0  0  0  0  0
   -5.4870    3.6770  -23.6860 C   0  0  0  0  0  0
   -4.0270    3.2200  -21.9740 C   0  0  0  0  0  0
   -3.0860    3.3200  -24.1200 C   0  0  0  0  0  0
   -2.9610    3.0810  -22.6950 C   0  0  0  0  0  0
   -4.4170    3.6020  -24.6720 C   0  0  0  0  0  0
   -3.6130    3.5990  -26.8530 C   0  0  0  0  0  0
    5.9830    2.7370  -21.3680 C   0  0  0  0  0  0
    5.9040    2.8670  -23.9210 C   0  0  0  0  0  0
   -4.6370    3.7260  -26.0140 C   0  0  0  0  0  0
    2.1300    3.4760  -24.0250 C   0  0  0  0  0  0
    1.3200    4.6000  -23.7500 C   0  0  0  0  0  0
    3.1220    5.7700  -23.0370 C   0  0  0  0  0  0
    3.5260    3.6460  -23.6820 C   0  0  0  0  0  0
    1.5800    2.3650  -24.6930 C   0  0  0  0  0  0
   -0.5360    3.2130  -24.6340 C   0  0  0  0  0  0
   -0.0030    4.4280  -24.0300 C   0  0  0  0  0  0
   -1.9800    3.2400  -25.0210 C   0  0  0  0  0  0
    4.0840    1.1400  -23.3640 C   0  0  0  0  0  0
    4.9860    0.7760  -22.1950 C   0  0  2  0  0  0
    6.6150    2.2880  -22.7040 C   0  0  2  0  0  0
    4.9580    1.7840  -21.0340 C   0  0  0  0  0  0
   -2.2710    3.3970  -26.4570 C   0  0  0  0  0  0
   -1.6370    2.6490  -22.0650 C   0  0  0  0  0  0
   -0.6240    2.2880  -21.5340 C   0  0  0  0  0  0
   -0.8350    5.4880  -23.7090 F   0  0  0  0  0  0
   -3.8520    2.9820  -20.5870 F   0  0  0  0  0  0
    1.8040    5.7540  -23.2140 N   0  0  0  0  0  0
    4.0070    4.7920  -23.2320 N   0  0  0  0  0  0
    0.2790    2.2950  -25.0270 N   0  0  0  0  0  0
    4.4300    2.5830  -23.8330 N   0  0  0  0  0  0
    6.4040    0.8180  -22.6460 N   0  0  1  0  0  0
   -3.7550    3.6090  -28.2470 O   0  0  0  0  0  0
   -6.0697    3.5713  -21.6357 H   0  0  0  0  0  0
   -6.4905    3.8867  -24.0382 H   0  0  0  0  0  0
    5.5305    3.7318  -21.4932 H   0  0  0  0  0  0
    6.7522    2.7380  -20.5816 H   0  0  0  0  0  0
    6.3109    2.4116  -24.8359 H   0  0  0  0  0  0
    6.0654    3.9545  -23.9563 H   0  0  0  0  0  0
   -5.6363    3.9259  -26.3836 H   0  0  0  0  0  0
    2.2112    1.5241  -24.9569 H   0  0  0  0  0  0
    3.0331    1.1027  -23.0413 H   0  0  0  0  0  0
    4.2536    0.4355  -24.1916 H   0  0  0  0  0  0
    4.7367   -0.2301  -21.8267 H   0  0  0  0  0  0
    7.6884    2.5271  -22.7282 H   0  0  0  0  0  0
    3.9819    2.2907  -21.0148 H   0  0  0  0  0  0
    5.2294    1.2705  -20.0998 H   0  0  0  0  0  0
   -1.4846    3.3608  -27.2022 H   0  0  0  0  0  0
    0.2678    1.9691  -21.0671 H   0  0  0  0  0  0
    7.0275    0.3132  -21.9230 H   0  0  0  0  0  0
   -2.9022    3.5051  -28.6526 H   0  0  0  0  0  0
    3.1640    8.1070  -23.0070 O   0  0  0  0  0  0
    7.6790    7.5600  -21.3980 N   0  3  0  0  0  0
    4.7210    7.0590  -21.7070 N   0  0  0  0  0  0
    5.3030    8.3140  -21.2090 C   0  0  0  0  0  0
    6.6360    8.1080  -20.4690 C   0  0  0  0  0  0
    3.6870    7.0890  -22.5670 C   0  0  0  0  0  0
    8.5439    7.4330  -20.8961 H   0  0  0  0  0  0
    7.3709    6.6737  -21.7661 H   0  0  0  0  0  0
    7.8250    8.2059  -22.1579 H   0  0  0  0  0  0
    5.0950    6.1821  -21.4050 H   0  0  0  0  0  0
    4.5849    8.8080  -20.5379 H   0  0  0  0  0  0
    5.4550    9.0051  -22.0512 H   0  0  0  0  0  0
    6.9791    9.0693  -20.0589 H   0  0  0  0  0  0
    6.4860    7.4090  -19.6330 H   0  0  0  0  0  0
  1  2  2  0  0  0
  1  3  1  0  0  0
  1 34  1  0  0  0
  2  6  1  0  0  0
  2 35  1  0  0  0
  3  5  2  0  0  0
  3 27  1  0  0  0
  4  5  1  0  0  0
  4  6  2  0  0  0
  4 18  1  0  0  0
  5 24  1  0  0  0
  6 10  1  0  0  0
  7 10  2  0  0  0
  7 23  1  0  0  0
  7 33  1  0  0  0
  8 21  1  0  0  0
  8 22  1  0  0  0
  8 36  1  0  0  0
  8 37  1  0  0  0
  9 21  1  0  0  0
  9 31  1  0  0  0
  9 38  1  0  0  0
  9 39  1  0  0  0
 10 40  1  0  0  0
 11 12  1  0  0  0
 11 14  2  0  0  0
 11 15  1  0  0  0
 12 17  1  0  0  0
 12 28  2  0  0  0
 13 28  1  0  0  0
 13 29  2  0  0  0
 13 57  1  0  0  0
 14 29  1  0  0  0
 14 31  1  0  0  0
 15 30  2  0  0  0
 15 41  1  0  0  0
 16 17  2  0  0  0
 16 18  1  0  0  0
 16 30  1  0  0  0
 17 26  1  0  0  0
 18 23  2  0  0  0
 19 20  1  0  0  0
 19 31  1  0  0  0
 19 42  1  0  0  0
 19 43  1  0  0  0
 20 22  1  0  0  0
 20 32  1  0  0  0
 20 44  1  0  0  0
 21 32  1  0  0  0
 21 45  1  0  0  0
 22 46  1  0  0  0
 22 47  1  0  0  0
 23 48  1  0  0  0
 24 25  3  0  0  0
 25 49  1  0  0  0
 32 50  1  0  0  0
 33 51  1  0  0  0
 52 57  2  0  0  0
 53 56  1  0  0  0
 53 58  1  0  0  0
 53 59  1  0  0  0
 53 60  1  0  0  0
 54 55  1  0  0  0
 54 57  1  0  0  0
 54 61  1  0  0  0
 55 56  1  0  0  0
 55 62  1  0  0  0
 55 63  1  0  0  0
 56 64  1  0  0  0
 56 65  1  0  0  0
M  CHG  1  53   1
M  END
> <s_m_entry_id>
520

> <s_m_entry_name>
000000520.1

> <s_m_Source_Path>
/Users/zaksoul/Documents/2

> <s_m_Source_File>
000000520.mol2

> <i_m_Source_File_Index>
1

$$$$
No_0_544
                    3D
 Schrodinger Suite 2022-4.
 65 70  0  0  1  0            999 V2000
   -4.9760    3.5480  -22.1110 C   0  0  0  0  0  0
   -5.2470    3.7510  -23.4440 C   0  0  0  0  0  0
   -3.7350    3.3070  -21.7750 C   0  0  0  0  0  0
   -2.8470    3.4750  -23.9390 C   0  0  0  0  0  0
   -2.6820    3.2130  -22.5230 C   0  0  0  0  0  0
   -4.1990    3.7260  -24.4550 C   0  0  0  0  0  0
   -3.4470    3.7890  -26.6540 C   0  0  0  0  0  0
    6.2970    3.1120  -21.4090 C   0  0  0  0  0  0
    6.1540    3.2870  -23.9560 C   0  0  0  0  0  0
   -4.4530    3.8690  -25.7890 C   0  0  0  0  0  0
    2.3620    3.7850  -23.9620 C   0  0  0  0  0  0
    1.5270    4.8780  -23.6470 C   0  0  0  0  0  0
    3.3100    6.0880  -22.9520 C   0  0  0  0  0  0
    3.7600    3.9900  -23.6470 C   0  0  0  0  0  0
    1.8300    2.6700  -24.6380 C   0  0  0  0  0  0
   -0.3080    3.4530  -24.5140 C   0  0  0  0  0  0
    0.2030    4.6720  -23.8990 C   0  0  0  0  0  0
   -1.7610    3.4450  -24.8670 C   0  0  0  0  0  0
    4.4000    1.4970  -23.3910 C   0  0  0  0  0  0
    5.3390    1.1380  -22.2500 C   0  0  2  0  0  0
    6.9110    2.7070  -22.7670 C   0  0  2  0  0  0
    5.3090    2.1220  -21.0690 C   0  0  0  0  0  0
   -2.0900    3.6190  -26.2920 C   0  0  0  0  0  0
   -1.3310    2.8090  -21.9310 C   0  0  0  0  0  0
   -0.2960    2.4680  -21.4310 C   0  0  0  0  0  0
   -0.6520    5.7010  -23.5390 F   0  0  0  0  0  0
   -3.5190    3.0480  -20.3960 F   0  0  0  0  0  0
    1.9890    6.0360  -23.0990 N   0  0  0  0  0  0
    4.2190    5.1410  -23.1860 N   0  0  0  0  0  0
    0.5250    2.5670  -24.9430 N   0  0  0  0  0  0
    4.6920    2.9570  -23.8400 N   0  0  0  0  0  0
    6.7440    1.2300  -22.7330 N   0  0  1  0  0  0
   -3.6210    3.8200  -28.0430 O   0  0  0  0  0  0
   -5.7782    3.5902  -21.3831 H   0  0  0  0  0  0
   -6.2643    3.9378  -23.7684 H   0  0  0  0  0  0
    5.8134    4.0954  -21.5039 H   0  0  0  0  0  0
    7.0838    3.1221  -20.6403 H   0  0  0  0  0  0
    6.5538    2.8609  -24.8880 H   0  0  0  0  0  0
    6.2821    4.3794  -23.9742 H   0  0  0  0  0  0
   -5.4663    4.0456  -26.1311 H   0  0  0  0  0  0
    2.4792    1.8532  -24.9320 H   0  0  0  0  0  0
    3.3585    1.4214  -23.0452 H   0  0  0  0  0  0
    4.5696    0.8124  -24.2351 H   0  0  0  0  0  0
    5.1291    0.1179  -21.8959 H   0  0  0  0  0  0
    7.9761    2.9786  -22.8104 H   0  0  0  0  0  0
    4.3192    2.5992  -21.0175 H   0  0  0  0  0  0
    5.6179    1.6001  -20.1513 H   0  0  0  0  0  0
   -1.3210    3.6210  -27.0560 H   0  0  0  0  0  0
    0.6159    2.1680  -20.9910 H   0  0  0  0  0  0
    7.3993    0.7318  -22.0339 H   0  0  0  0  0  0
   -2.7756    3.7497  -28.4706 H   0  0  0  0  0  0
    3.1580    8.4070  -22.6880 O   0  0  0  0  0  0
    7.9400    8.2000  -22.0820 N   0  3  0  0  0  0
    5.0370    7.4200  -21.8420 N   0  0  0  0  0  0
    5.6010    8.6830  -21.3430 C   0  0  0  0  0  0
    7.0720    8.5550  -20.9110 C   0  0  0  0  0  0
    3.8470    7.4150  -22.4710 C   0  0  0  0  0  0
    8.8978    8.1210  -21.7781 H   0  0  0  0  0  0
    7.6380    7.3200  -22.4700 H   0  0  0  0  0  0
    7.8690    8.9194  -22.7844 H   0  0  0  0  0  0
    5.5392    6.5646  -21.7149 H   0  0  0  0  0  0
    5.0000    9.0410  -20.4941 H   0  0  0  0  0  0
    5.5140    9.4549  -22.1219 H   0  0  0  0  0  0
    7.4099    9.5086  -20.4792 H   0  0  0  0  0  0
    7.1600    7.7762  -20.1392 H   0  0  0  0  0  0
  1  2  2  0  0  0
  1  3  1  0  0  0
  1 34  1  0  0  0
  2  6  1  0  0  0
  2 35  1  0  0  0
  3  5  2  0  0  0
  3 27  1  0  0  0
  4  5  1  0  0  0
  4  6  2  0  0  0
  4 18  1  0  0  0
  5 24  1  0  0  0
  6 10  1  0  0  0
  7 10  2  0  0  0
  7 23  1  0  0  0
  7 33  1  0  0  0
  8 21  1  0  0  0
  8 22  1  0  0  0
  8 36  1  0  0  0
  8 37  1  0  0  0
  9 21  1  0  0  0
  9 31  1  0  0  0
  9 38  1  0  0  0
  9 39  1  0  0  0
 10 40  1  0  0  0
 11 12  1  0  0  0
 11 14  2  0  0  0
 11 15  1  0  0  0
 12 17  1  0  0  0
 12 28  2  0  0  0
 13 28  1  0  0  0
 13 29  2  0  0  0
 13 57  1  0  0  0
 14 29  1  0  0  0
 14 31  1  0  0  0
 15 30  2  0  0  0
 15 41  1  0  0  0
 16 17  2  0  0  0
 16 18  1  0  0  0
 16 30  1  0  0  0
 17 26  1  0  0  0
 18 23  2  0  0  0
 19 20  1  0  0  0
 19 31  1  0  0  0
 19 42  1  0  0  0
 19 43  1  0  0  0
 20 22  1  0  0  0
 20 32  1  0  0  0
 20 44  1  0  0  0
 21 32  1  0  0  0
 21 45  1  0  0  0
 22 46  1  0  0  0
 22 47  1  0  0  0
 23 48  1  0  0  0
 24 25  3  0  0  0
 25 49  1  0  0  0
 32 50  1  0  0  0
 33 51  1  0  0  0
 52 57  2  0  0  0
 53 56  1  0  0  0
 53 58  1  0  0  0
 53 59  1  0  0  0
 53 60  1  0  0  0
 54 55  1  0  0  0
 54 57  1  0  0  0
 54 61  1  0  0  0
 55 56  1  0  0  0
 55 62  1  0  0  0
 55 63  1  0  0  0
 56 64  1  0  0  0
 56 65  1  0  0  0
M  CHG  1  53   1
M  END
> <s_m_entry_id>
521

> <s_m_entry_name>
000000521.1

> <s_m_Source_Path>
/Users/zaksoul/Documents/2

> <s_m_Source_File>
000000521.mol2

> <i_m_Source_File_Index>
1

$$$$
No_0_545
                    3D
 Schrodinger Suite 2022-4.
 65 70  0  0  1  0            999 V2000
   -5.1240    3.5530  -22.2690 C   0  0  0  0  0  0
   -5.3640    3.7060  -23.6140 C   0  0  0  0  0  0
   -3.8910    3.3180  -21.8960 C   0  0  0  0  0  0
   -2.9560    3.3980  -24.0460 C   0  0  0  0  0  0
   -2.8230    3.1900  -22.6170 C   0  0  0  0  0  0
   -4.2950    3.6360  -24.6010 C   0  0  0  0  0  0
   -3.4940    3.6090  -26.7830 C   0  0  0  0  0  0
    6.1290    3.0830  -21.3030 C   0  0  0  0  0  0
    6.0420    3.1610  -23.8570 C   0  0  0  0  0  0
   -4.5190    3.7280  -25.9440 C   0  0  0  0  0  0
    2.2550    3.6780  -23.9660 C   0  0  0  0  0  0
    1.4200    4.7880  -23.7110 C   0  0  0  0  0  0
    3.1950    6.0140  -23.0250 C   0  0  0  0  0  0
    3.6470    3.8880  -23.6290 C   0  0  0  0  0  0
    1.7300    2.5410  -24.6100 C   0  0  0  0  0  0
   -0.4050    3.3400  -24.5630 C   0  0  0  0  0  0
    0.1010    4.5790  -23.9840 C   0  0  0  0  0  0
   -1.8500    3.3260  -24.9470 C   0  0  0  0  0  0
    4.2650    1.4030  -23.2620 C   0  0  0  0  0  0
    5.1770    1.0830  -22.0880 C   0  0  2  0  0  0
    6.7690    2.6230  -22.6300 C   0  0  2  0  0  0
    5.1280    2.1130  -20.9470 C   0  0  0  0  0  0
   -2.1470    3.4470  -26.3850 C   0  0  0  0  0  0
   -1.4880    2.8020  -21.9810 C   0  0  0  0  0  0
   -0.4660    2.4750  -21.4450 C   0  0  0  0  0  0
   -0.7560    5.6260  -23.6830 F   0  0  0  0  0  0
   -3.7070    3.1120  -20.5050 F   0  0  0  0  0  0
    1.8770    5.9630  -23.1990 N   0  0  0  0  0  0
    4.1020    5.0530  -23.2030 N   0  0  0  0  0  0
    0.4310    2.4330  -24.9390 N   0  0  0  0  0  0
    4.5760    2.8430  -23.7610 N   0  0  0  0  0  0
    6.5930    1.1490  -22.5430 N   0  0  1  0  0  0
   -3.6390    3.5880  -28.1760 O   0  0  0  0  0  0
   -5.9409    3.6283  -21.5605 H   0  0  0  0  0  0
   -6.3731    3.8847  -23.9674 H   0  0  0  0  0  0
    5.6539    4.0645  -21.4473 H   0  0  0  0  0  0
    6.8988    3.1193  -20.5181 H   0  0  0  0  0  0
    6.4587    2.6969  -24.7631 H   0  0  0  0  0  0
    6.1783    4.2510  -23.9145 H   0  0  0  0  0  0
   -5.5234    3.8966  -26.3153 H   0  0  0  0  0  0
    2.3810    1.7104  -24.8578 H   0  0  0  0  0  0
    3.2158    1.3475  -22.9362 H   0  0  0  0  0  0
    4.4487    0.6855  -24.0753 H   0  0  0  0  0  0
    4.9529    0.0786  -21.6994 H   0  0  0  0  0  0
    7.8363    2.8873  -22.6623 H   0  0  0  0  0  0
    4.1404    2.5972  -20.9359 H   0  0  0  0  0  0
    5.4127    1.6254  -20.0030 H   0  0  0  0  0  0
   -1.3620    3.4139  -27.1318 H   0  0  0  0  0  0
    0.4344    2.1879  -20.9738 H   0  0  0  0  0  0
    7.2296    0.6740  -21.8112 H   0  0  0  0  0  0
   -2.7850    3.4960  -28.5817 H   0  0  0  0  0  0
    3.1470    8.3380  -22.9960 O   0  0  0  0  0  0
    5.4090    8.8300  -21.4540 N   0  0  0  0  0  0
    4.9510    7.4170  -21.6960 C   0  0  0  0  0  0
    6.8390    8.8850  -20.9900 C   0  0  0  0  0  0
    4.4980    9.6040  -20.5410 C   0  0  0  0  0  0
    3.7290    7.3550  -22.5840 C   0  0  0  0  0  0
    4.7290    6.9340  -20.7330 H   0  0  0  0  0  0
    5.7675    6.8424  -22.1577 H   0  0  0  0  0  0
    7.1321    9.9325  -20.8259 H   0  0  0  0  0  0
    6.9420    8.3238  -20.0496 H   0  0  0  0  0  0
    7.4908    8.4391  -21.7558 H   0  0  0  0  0  0
    4.8900   10.6231  -20.4080 H   0  0  0  0  0  0
    3.4916    9.6540  -20.9822 H   0  0  0  0  0  0
    4.4450    9.1023  -19.5635 H   0  0  0  0  0  0
  1  2  2  0  0  0
  1  3  1  0  0  0
  1 34  1  0  0  0
  2  6  1  0  0  0
  2 35  1  0  0  0
  3  5  2  0  0  0
  3 27  1  0  0  0
  4  5  1  0  0  0
  4  6  2  0  0  0
  4 18  1  0  0  0
  5 24  1  0  0  0
  6 10  1  0  0  0
  7 10  2  0  0  0
  7 23  1  0  0  0
  7 33  1  0  0  0
  8 21  1  0  0  0
  8 22  1  0  0  0
  8 36  1  0  0  0
  8 37  1  0  0  0
  9 21  1  0  0  0
  9 31  1  0  0  0
  9 38  1  0  0  0
  9 39  1  0  0  0
 10 40  1  0  0  0
 11 12  1  0  0  0
 11 14  2  0  0  0
 11 15  1  0  0  0
 12 17  1  0  0  0
 12 28  2  0  0  0
 13 28  1  0  0  0
 13 29  2  0  0  0
 13 57  1  0  0  0
 14 29  1  0  0  0
 14 31  1  0  0  0
 15 30  2  0  0  0
 15 41  1  0  0  0
 16 17  2  0  0  0
 16 18  1  0  0  0
 16 30  1  0  0  0
 17 26  1  0  0  0
 18 23  2  0  0  0
 19 20  1  0  0  0
 19 31  1  0  0  0
 19 42  1  0  0  0
 19 43  1  0  0  0
 20 22  1  0  0  0
 20 32  1  0  0  0
 20 44  1  0  0  0
 21 32  1  0  0  0
 21 45  1  0  0  0
 22 46  1  0  0  0
 22 47  1  0  0  0
 23 48  1  0  0  0
 24 25  3  0  0  0
 25 49  1  0  0  0
 32 50  1  0  0  0
 33 51  1  0  0  0
 52 57  2  0  0  0
 53 54  1  0  0  0
 53 55  1  0  0  0
 53 56  1  0  0  0
 54 57  1  0  0  0
 54 58  1  0  0  0
 54 59  1  0  0  0
 55 60  1  0  0  0
 55 61  1  0  0  0
 55 62  1  0  0  0
 56 63  1  0  0  0
 56 64  1  0  0  0
 56 65  1  0  0  0
M  END
> <s_m_entry_id>
522

> <s_m_entry_name>
000000522.1

> <s_m_Source_Path>
/Users/zaksoul/Documents/2

> <s_m_Source_File>
000000522.mol2

> <i_m_Source_File_Index>
1

$$$$
No_0_546
                    3D
 Schrodinger Suite 2022-4.
 64 69  0  0  1  0            999 V2000
   -5.0920    3.2580  -21.9140 C   0  0  0  0  0  0
   -5.3710    3.4770  -23.2430 C   0  0  0  0  0  0
   -3.8470    3.0220  -21.5880 C   0  0  0  0  0  0
   -2.9730    3.2260  -23.7550 C   0  0  0  0  0  0
   -2.7970    2.9470  -22.3420 C   0  0  0  0  0  0
   -4.3290    3.4730  -24.2600 C   0  0  0  0  0  0
   -3.5890    3.5710  -26.4620 C   0  0  0  0  0  0
    6.1880    2.9030  -21.2770 C   0  0  0  0  0  0
    6.0300    3.1120  -23.8210 C   0  0  0  0  0  0
   -4.5920    3.6310  -25.5900 C   0  0  0  0  0  0
    2.2340    3.5780  -23.8000 C   0  0  0  0  0  0
    1.3920    4.6610  -23.4660 C   0  0  0  0  0  0
    3.1690    5.8760  -22.7650 C   0  0  0  0  0  0
    3.6320    3.7910  -23.4910 C   0  0  0  0  0  0
    1.7080    2.4680  -24.4880 C   0  0  0  0  0  0
   -0.4360    3.2320  -24.3430 C   0  0  0  0  0  0
    0.0690    4.4470  -23.7140 C   0  0  0  0  0  0
   -1.8910    3.2170  -24.6880 C   0  0  0  0  0  0
    4.2930    1.2990  -23.2700 C   0  0  0  0  0  0
    5.2410    0.9330  -22.1390 C   0  0  2  0  0  0
    6.7980    2.5210  -22.6430 C   0  0  2  0  0  0
    5.2100    1.9020  -20.9450 C   0  0  0  0  0  0
   -2.2290    3.4080  -26.1090 C   0  0  0  0  0  0
   -1.4410    2.5460  -21.7630 C   0  0  0  0  0  0
   -0.3990    2.2070  -21.2740 C   0  0  0  0  0  0
   -0.7930    5.4640  -23.3360 F   0  0  0  0  0  0
   -3.6220    2.7470  -20.2140 F   0  0  0  0  0  0
    1.8480    5.8150  -22.9060 N   0  0  0  0  0  0
    4.0840    4.9390  -23.0170 N   0  0  0  0  0  0
    0.4010    2.3590  -24.7880 N   0  0  0  0  0  0
    4.5710    2.7680  -23.7020 N   0  0  0  0  0  0
    6.6430    1.0430  -22.6280 N   0  0  1  0  0  0
   -3.7710    3.6190  -27.8490 O   0  0  0  0  0  0
   -5.8902    3.2841  -21.1810 H   0  0  0  0  0  0
   -6.3918    3.6587  -23.5592 H   0  0  0  0  0  0
    5.6957    3.8835  -21.3567 H   0  0  0  0  0  0
    6.9788    2.9101  -20.5124 H   0  0  0  0  0  0
    6.4277    2.7012  -24.7607 H   0  0  0  0  0  0
    6.1491    4.2055  -23.8250 H   0  0  0  0  0  0
   -5.6082    3.8037  -25.9254 H   0  0  0  0  0  0
    2.3626    1.6608  -24.7962 H   0  0  0  0  0  0
    3.2539    1.2112  -22.9199 H   0  0  0  0  0  0
    4.4645    0.6280  -24.1246 H   0  0  0  0  0  0
    5.0412   -0.0935  -21.7978 H   0  0  0  0  0  0
    7.8603    2.8027  -22.6894 H   0  0  0  0  0  0
    4.2167    2.3704  -20.8824 H   0  0  0  0  0  0
    5.5270    1.3690  -20.0365 H   0  0  0  0  0  0
   -1.4641    3.4251  -26.8769 H   0  0  0  0  0  0
    0.5173    1.9089  -20.8419 H   0  0  0  0  0  0
    7.3060    0.5404  -21.9393 H   0  0  0  0  0  0
   -2.9277    3.5606  -28.2825 H   0  0  0  0  0  0
    5.8860    8.6270  -20.2060 O   0  0  0  0  0  0
    3.3710    7.4150  -20.8100 N   0  0  1  0  0  0
    5.0040   10.5690  -20.9720 N   0  0  0  0  0  0
    3.4940    8.8380  -20.3410 C   0  0  0  0  0  0
    3.7030    7.2140  -22.2640 C   0  0  0  0  0  0
    4.9210    9.3210  -20.4890 C   0  0  0  0  0  0
    4.0427    6.7883  -20.2422 H   0  0  0  0  0  0
    4.1711   11.0810  -21.1820 H   0  0  0  0  0  0
    5.8990   10.9890  -21.1220 H   0  0  0  0  0  0
    3.1930    8.9030  -19.2850 H   0  0  0  0  0  0
    2.8269    9.4791  -20.9361 H   0  0  0  0  0  0
    4.7943    7.2460  -22.3980 H   0  0  0  0  0  0
    3.2618    8.0293  -22.8562 H   0  0  0  0  0  0
  1  2  2  0  0  0
  1  3  1  0  0  0
  1 34  1  0  0  0
  2  6  1  0  0  0
  2 35  1  0  0  0
  3  5  2  0  0  0
  3 27  1  0  0  0
  4  5  1  0  0  0
  4  6  2  0  0  0
  4 18  1  0  0  0
  5 24  1  0  0  0
  6 10  1  0  0  0
  7 10  2  0  0  0
  7 23  1  0  0  0
  7 33  1  0  0  0
  8 21  1  0  0  0
  8 22  1  0  0  0
  8 36  1  0  0  0
  8 37  1  0  0  0
  9 21  1  0  0  0
  9 31  1  0  0  0
  9 38  1  0  0  0
  9 39  1  0  0  0
 10 40  1  0  0  0
 11 12  1  0  0  0
 11 14  2  0  0  0
 11 15  1  0  0  0
 12 17  1  0  0  0
 12 28  2  0  0  0
 13 28  1  0  0  0
 13 29  2  0  0  0
 13 56  1  0  0  0
 14 29  1  0  0  0
 14 31  1  0  0  0
 15 30  2  0  0  0
 15 41  1  0  0  0
 16 17  2  0  0  0
 16 18  1  0  0  0
 16 30  1  0  0  0
 17 26  1  0  0  0
 18 23  2  0  0  0
 19 20  1  0  0  0
 19 31  1  0  0  0
 19 42  1  0  0  0
 19 43  1  0  0  0
 20 22  1  0  0  0
 20 32  1  0  0  0
 20 44  1  0  0  0
 21 32  1  0  0  0
 21 45  1  0  0  0
 22 46  1  0  0  0
 22 47  1  0  0  0
 23 48  1  0  0  0
 24 25  3  0  0  0
 25 49  1  0  0  0
 32 50  1  0  0  0
 33 51  1  0  0  0
 52 57  2  0  0  0
 53 55  1  0  0  0
 53 56  1  0  0  0
 53 58  1  0  0  0
 54 57  1  0  0  0
 54 59  1  0  0  0
 54 60  1  0  0  0
 55 57  1  0  0  0
 55 61  1  0  0  0
 55 62  1  0  0  0
 56 63  1  0  0  0
 56 64  1  0  0  0
M  END
> <s_m_entry_id>
523

> <s_m_entry_name>
000000523.1

> <s_m_Source_Path>
/Users/zaksoul/Documents/2

> <s_m_Source_File>
000000523.mol2

> <i_m_Source_File_Index>
1

$$$$
No_0_547
                    3D
 Schrodinger Suite 2022-4.
 64 69  0  0  1  0            999 V2000
   -5.3610    3.3470  -21.8920 C   0  0  0  0  0  0
   -5.5980    3.5230  -23.2350 C   0  0  0  0  0  0
   -4.1250    3.1320  -21.5180 C   0  0  0  0  0  0
   -3.1820    3.2770  -23.6600 C   0  0  0  0  0  0
   -3.0510    3.0430  -22.2340 C   0  0  0  0  0  0
   -4.5220    3.4970  -24.2170 C   0  0  0  0  0  0
   -3.7110    3.5340  -26.3950 C   0  0  0  0  0  0
    5.8950    3.1120  -20.8740 C   0  0  0  0  0  0
    5.8190    3.2400  -23.4270 C   0  0  0  0  0  0
   -4.7420    3.6120  -25.5590 C   0  0  0  0  0  0
    2.0210    3.6740  -23.5450 C   0  0  0  0  0  0
    1.1600    4.7590  -23.2730 C   0  0  0  0  0  0
    2.9030    6.0110  -22.5520 C   0  0  0  0  0  0
    3.4060    3.9080  -23.1970 C   0  0  0  0  0  0
    1.5260    2.5390  -24.2160 C   0  0  0  0  0  0
   -0.6270    3.2880  -24.1640 C   0  0  0  0  0  0
   -0.1530    4.5260  -23.5570 C   0  0  0  0  0  0
   -2.0700    3.2490  -24.5560 C   0  0  0  0  0  0
    4.0790    1.4310  -22.8780 C   0  0  0  0  0  0
    4.9920    1.1080  -21.7060 C   0  0  2  0  0  0
    6.5520    2.6940  -22.2070 C   0  0  2  0  0  0
    4.9140    2.1120  -20.5440 C   0  0  0  0  0  0
   -2.3620    3.3930  -25.9930 C   0  0  0  0  0  0
   -1.7110    2.6730  -21.5990 C   0  0  0  0  0  0
   -0.6840    2.3580  -21.0650 C   0  0  0  0  0  0
   -1.0340    5.5470  -23.2400 F   0  0  0  0  0  0
   -3.9440    2.9020  -20.1290 F   0  0  0  0  0  0
    1.5880    5.9340  -22.7340 N   0  0  0  0  0  0
    3.8330    5.0740  -22.7440 N   0  0  0  0  0  0
    0.2310    2.4090  -24.5540 N   0  0  0  0  0  0
    4.3600    2.8880  -23.3450 N   0  0  0  0  0  0
    6.4080    1.2150  -22.1520 N   0  0  1  0  0  0
   -3.8470    3.5380  -27.7890 O   0  0  0  0  0  0
   -6.1829    3.3891  -21.1865 H   0  0  0  0  0  0
   -6.6091    3.6857  -23.5904 H   0  0  0  0  0  0
    5.3974    4.0849  -21.0002 H   0  0  0  0  0  0
    6.6602    3.1493  -20.0846 H   0  0  0  0  0  0
    6.2501    2.8049  -24.3407 H   0  0  0  0  0  0
    5.9300    4.3338  -23.4613 H   0  0  0  0  0  0
   -5.7480    3.7656  -25.9325 H   0  0  0  0  0  0
    2.1964    1.7281  -24.4769 H   0  0  0  0  0  0
    3.0298    1.3442  -22.5592 H   0  0  0  0  0  0
    4.2839    0.7347  -23.7045 H   0  0  0  0  0  0
    4.7892    0.0911  -21.3388 H   0  0  0  0  0  0
    7.6132    2.9828  -22.2272 H   0  0  0  0  0  0
    3.9154    2.5730  -20.5279 H   0  0  0  0  0  0
    5.2046    1.6115  -19.6086 H   0  0  0  0  0  0
   -1.5723    3.3940  -26.7356 H   0  0  0  0  0  0
    0.2201    2.0810  -20.5949 H   0  0  0  0  0  0
    7.0516    0.7403  -21.4261 H   0  0  0  0  0  0
   -2.9892    3.4736  -28.1921 H   0  0  0  0  0  0
    6.0430    8.9650  -20.8460 O   0  0  0  0  0  0
    3.7040    7.3440  -20.5990 N   0  0  1  0  0  0
    4.6610   10.7610  -20.8330 N   0  0  0  0  0  0
    3.8180    8.7060  -19.9730 C   0  0  0  0  0  0
    3.4090    7.3680  -22.0750 C   0  0  0  0  0  0
    4.9640    9.4780  -20.5900 C   0  0  0  0  0  0
    4.6332    6.8089  -20.4700 H   0  0  0  0  0  0
    3.7557   11.1141  -20.5969 H   0  0  0  0  0  0
    5.3406   11.3647  -21.2498 H   0  0  0  0  0  0
    3.9889    8.5981  -18.8917 H   0  0  0  0  0  0
    2.8795    9.2593  -20.1251 H   0  0  0  0  0  0
    4.3234    7.6318  -22.6266 H   0  0  0  0  0  0
    2.6505    8.1365  -22.2851 H   0  0  0  0  0  0
  1  2  2  0  0  0
  1  3  1  0  0  0
  1 34  1  0  0  0
  2  6  1  0  0  0
  2 35  1  0  0  0
  3  5  2  0  0  0
  3 27  1  0  0  0
  4  5  1  0  0  0
  4  6  2  0  0  0
  4 18  1  0  0  0
  5 24  1  0  0  0
  6 10  1  0  0  0
  7 10  2  0  0  0
  7 23  1  0  0  0
  7 33  1  0  0  0
  8 21  1  0  0  0
  8 22  1  0  0  0
  8 36  1  0  0  0
  8 37  1  0  0  0
  9 21  1  0  0  0
  9 31  1  0  0  0
  9 38  1  0  0  0
  9 39  1  0  0  0
 10 40  1  0  0  0
 11 12  1  0  0  0
 11 14  2  0  0  0
 11 15  1  0  0  0
 12 17  1  0  0  0
 12 28  2  0  0  0
 13 28  1  0  0  0
 13 29  2  0  0  0
 13 56  1  0  0  0
 14 29  1  0  0  0
 14 31  1  0  0  0
 15 30  2  0  0  0
 15 41  1  0  0  0
 16 17  2  0  0  0
 16 18  1  0  0  0
 16 30  1  0  0  0
 17 26  1  0  0  0
 18 23  2  0  0  0
 19 20  1  0  0  0
 19 31  1  0  0  0
 19 42  1  0  0  0
 19 43  1  0  0  0
 20 22  1  0  0  0
 20 32  1  0  0  0
 20 44  1  0  0  0
 21 32  1  0  0  0
 21 45  1  0  0  0
 22 46  1  0  0  0
 22 47  1  0  0  0
 23 48  1  0  0  0
 24 25  3  0  0  0
 25 49  1  0  0  0
 32 50  1  0  0  0
 33 51  1  0  0  0
 52 57  2  0  0  0
 53 55  1  0  0  0
 53 56  1  0  0  0
 53 58  1  0  0  0
 54 57  1  0  0  0
 54 59  1  0  0  0
 54 60  1  0  0  0
 55 57  1  0  0  0
 55 61  1  0  0  0
 55 62  1  0  0  0
 56 63  1  0  0  0
 56 64  1  0  0  0
M  END
> <s_m_entry_id>
524

> <s_m_entry_name>
000000524.1

> <s_m_Source_Path>
/Users/zaksoul/Documents/2

> <s_m_Source_File>
000000524.mol2

> <i_m_Source_File_Index>
1

$$$$
No_0_548
                    3D
 Schrodinger Suite 2022-4.
 64 69  0  0  1  0            999 V2000
   -5.1940    3.3310  -21.8660 C   0  0  0  0  0  0
   -5.4690    3.4890  -23.2040 C   0  0  0  0  0  0
   -3.9470    3.1260  -21.5250 C   0  0  0  0  0  0
   -3.0650    3.2460  -23.6940 C   0  0  0  0  0  0
   -2.8930    3.0310  -22.2710 C   0  0  0  0  0  0
   -4.4220    3.4550  -24.2160 C   0  0  0  0  0  0
   -3.6730    3.4660  -26.4160 C   0  0  0  0  0  0
    6.0870    3.1450  -21.1670 C   0  0  0  0  0  0
    5.9380    3.2410  -23.7180 C   0  0  0  0  0  0
   -4.6810    3.5520  -25.5530 C   0  0  0  0  0  0
    2.1370    3.6610  -23.7330 C   0  0  0  0  0  0
    1.2800    4.7460  -23.4500 C   0  0  0  0  0  0
    3.0380    6.0130  -22.7950 C   0  0  0  0  0  0
    3.5310    3.9040  -23.4270 C   0  0  0  0  0  0
    1.6270    2.5160  -24.3750 C   0  0  0  0  0  0
   -0.5260    3.2590  -24.2720 C   0  0  0  0  0  0
   -0.0390    4.5060  -23.6940 C   0  0  0  0  0  0
   -1.9790    3.2100  -24.6220 C   0  0  0  0  0  0
    4.2210    1.4330  -23.0960 C   0  0  0  0  0  0
    5.1680    1.1270  -21.9470 C   0  0  2  0  0  0
    6.7070    2.7120  -22.5130 C   0  0  2  0  0  0
    5.1190    2.1470  -20.7960 C   0  0  0  0  0  0
   -2.3130    3.3360  -26.0510 C   0  0  0  0  0  0
   -1.5350    2.6730  -21.6690 C   0  0  0  0  0  0
   -0.4920    2.3680  -21.1610 C   0  0  0  0  0  0
   -0.9150    5.5280  -23.3640 F   0  0  0  0  0  0
   -3.7260    2.9130  -20.1390 F   0  0  0  0  0  0
    1.7190    5.9290  -22.9390 N   0  0  0  0  0  0
    3.9660    5.0770  -23.0020 N   0  0  0  0  0  0
    0.3240    2.3770  -24.6750 N   0  0  0  0  0  0
    4.4830    2.8850  -23.5900 N   0  0  0  0  0  0
    6.5710    1.2340  -22.4340 N   0  0  1  0  0  0
   -3.8490    3.4520  -27.8060 O   0  0  0  0  0  0
   -5.9960    3.3792  -21.1383 H   0  0  0  0  0  0
   -6.4904    3.6445  -23.5321 H   0  0  0  0  0  0
    5.5825    4.1146  -21.2911 H   0  0  0  0  0  0
    6.8741    3.1944  -20.4001 H   0  0  0  0  0  0
    6.3448    2.7949  -24.6375 H   0  0  0  0  0  0
    6.0439    4.3347  -23.7684 H   0  0  0  0  0  0
   -5.6978    3.6975  -25.8993 H   0  0  0  0  0  0
    2.2925    1.7040  -24.6450 H   0  0  0  0  0  0
    3.1813    1.3473  -22.7471 H   0  0  0  0  0  0
    4.4046    0.7279  -23.9201 H   0  0  0  0  0  0
    4.9792    0.1143  -21.5613 H   0  0  0  0  0  0
    7.7663    3.0036  -22.5665 H   0  0  0  0  0  0
    4.1194    2.6044  -20.7576 H   0  0  0  0  0  0
    5.4389    1.6586  -19.8637 H   0  0  0  0  0  0
   -1.5450    3.3290  -26.8160 H   0  0  0  0  0  0
    0.4260    2.1000  -20.7130 H   0  0  0  0  0  0
    7.2365    0.7696  -21.7214 H   0  0  0  0  0  0
   -3.0028    3.3857  -28.2326 H   0  0  0  0  0  0
    6.2960    9.1270  -21.7030 O   0  0  0  0  0  0
    4.2250    7.2870  -21.0060 N   0  0  1  0  0  0
    4.8410   10.7850  -21.1850 N   0  0  0  0  0  0
    4.4010    8.6110  -20.3160 C   0  0  0  0  0  0
    3.5530    7.3770  -22.3500 C   0  0  0  0  0  0
    5.2880    9.5220  -21.1370 C   0  0  0  0  0  0
    5.1911    6.8309  -21.1640 H   0  0  0  0  0  0
    4.0064   11.0389  -20.6962 H   0  0  0  0  0  0
    5.3423   11.4734  -21.7093 H   0  0  0  0  0  0
    4.8559    8.4510  -19.3273 H   0  0  0  0  0  0
    3.4182    9.0849  -20.1760 H   0  0  0  0  0  0
    4.2701    7.7580  -23.0921 H   0  0  0  0  0  0
    2.7130    8.0850  -22.2930 H   0  0  0  0  0  0
  1  2  2  0  0  0
  1  3  1  0  0  0
  1 34  1  0  0  0
  2  6  1  0  0  0
  2 35  1  0  0  0
  3  5  2  0  0  0
  3 27  1  0  0  0
  4  5  1  0  0  0
  4  6  2  0  0  0
  4 18  1  0  0  0
  5 24  1  0  0  0
  6 10  1  0  0  0
  7 10  2  0  0  0
  7 23  1  0  0  0
  7 33  1  0  0  0
  8 21  1  0  0  0
  8 22  1  0  0  0
  8 36  1  0  0  0
  8 37  1  0  0  0
  9 21  1  0  0  0
  9 31  1  0  0  0
  9 38  1  0  0  0
  9 39  1  0  0  0
 10 40  1  0  0  0
 11 12  1  0  0  0
 11 14  2  0  0  0
 11 15  1  0  0  0
 12 17  1  0  0  0
 12 28  2  0  0  0
 13 28  1  0  0  0
 13 29  2  0  0  0
 13 56  1  0  0  0
 14 29  1  0  0  0
 14 31  1  0  0  0
 15 30  2  0  0  0
 15 41  1  0  0  0
 16 17  2  0  0  0
 16 18  1  0  0  0
 16 30  1  0  0  0
 17 26  1  0  0  0
 18 23  2  0  0  0
 19 20  1  0  0  0
 19 31  1  0  0  0
 19 42  1  0  0  0
 19 43  1  0  0  0
 20 22  1  0  0  0
 20 32  1  0  0  0
 20 44  1  0  0  0
 21 32  1  0  0  0
 21 45  1  0  0  0
 22 46  1  0  0  0
 22 47  1  0  0  0
 23 48  1  0  0  0
 24 25  3  0  0  0
 25 49  1  0  0  0
 32 50  1  0  0  0
 33 51  1  0  0  0
 52 57  2  0  0  0
 53 55  1  0  0  0
 53 56  1  0  0  0
 53 58  1  0  0  0
 54 57  1  0  0  0
 54 59  1  0  0  0
 54 60  1  0  0  0
 55 57  1  0  0  0
 55 61  1  0  0  0
 55 62  1  0  0  0
 56 63  1  0  0  0
 56 64  1  0  0  0
M  END
> <s_m_entry_id>
525

> <s_m_entry_name>
000000525.1

> <s_m_Source_Path>
/Users/zaksoul/Documents/2

> <s_m_Source_File>
000000525.mol2

> <i_m_Source_File_Index>
1

$$$$
No_0_549
                    3D
 Schrodinger Suite 2022-4.
 64 69  0  0  1  0            999 V2000
   -5.2150    3.4510  -22.1760 C   0  0  0  0  0  0
   -5.4260    3.6540  -23.5190 C   0  0  0  0  0  0
   -3.9900    3.2030  -21.7860 C   0  0  0  0  0  0
   -3.0090    3.3630  -23.9100 C   0  0  0  0  0  0
   -2.9060    3.1030  -22.4870 C   0  0  0  0  0  0
   -4.3350    3.6220  -24.4850 C   0  0  0  0  0  0
   -3.4880    3.6770  -26.6490 C   0  0  0  0  0  0
    6.0150    2.9550  -20.9840 C   0  0  0  0  0  0
    5.9840    3.1280  -23.5350 C   0  0  0  0  0  0
   -4.5310    3.7630  -25.8280 C   0  0  0  0  0  0
    2.1980    3.6460  -23.7070 C   0  0  0  0  0  0
    1.3560    4.7440  -23.4290 C   0  0  0  0  0  0
    3.1140    5.9460  -22.6590 C   0  0  0  0  0  0
    3.5830    3.8440  -23.3320 C   0  0  0  0  0  0
    1.6900    2.5330  -24.4040 C   0  0  0  0  0  0
   -0.4470    3.3270  -24.3740 C   0  0  0  0  0  0
    0.0440    4.5440  -23.7380 C   0  0  0  0  0  0
   -1.8830    3.3260  -24.7890 C   0  0  0  0  0  0
    4.1970    1.3480  -23.0450 C   0  0  0  0  0  0
    5.0840    0.9850  -21.8640 C   0  0  2  0  0  0
    6.6850    2.5450  -22.3140 C   0  0  2  0  0  0
    5.0080    1.9720  -20.6860 C   0  0  0  0  0  0
   -2.1490    3.5010  -26.2280 C   0  0  0  0  0  0
   -1.5850    2.6930  -21.8370 C   0  0  0  0  0  0
   -0.5740    2.3470  -21.2920 C   0  0  0  0  0  0
   -0.8210    5.5780  -23.4170 F   0  0  0  0  0  0
   -3.8360    2.9450  -20.3990 F   0  0  0  0  0  0
    1.8000    5.9000  -22.8640 N   0  0  0  0  0  0
    4.0270    4.9930  -22.8530 N   0  0  0  0  0  0
    0.3990    2.4360  -24.7650 N   0  0  0  0  0  0
    4.5160    2.8060  -23.4820 N   0  0  0  0  0  0
    6.5090    1.0700  -22.2850 N   0  0  1  0  0  0
   -3.6020    3.7070  -28.0440 O   0  0  0  0  0  0
   -6.0474    3.4982  -21.4832 H   0  0  0  0  0  0
   -6.4271    3.8448  -23.8885 H   0  0  0  0  0  0
    5.5409    3.9405  -21.1020 H   0  0  0  0  0  0
    6.7677    2.9631  -20.1819 H   0  0  0  0  0  0
    6.4210    2.6981  -24.4483 H   0  0  0  0  0  0
    6.1182    4.2197  -23.5491 H   0  0  0  0  0  0
   -5.5274    3.9446  -26.2143 H   0  0  0  0  0  0
    2.3472    1.7123  -24.6679 H   0  0  0  0  0  0
    3.1411    1.2784  -22.7445 H   0  0  0  0  0  0
    4.4000    0.6614  -23.8801 H   0  0  0  0  0  0
    4.8529   -0.0332  -21.5179 H   0  0  0  0  0  0
    7.7522    2.8116  -22.3120 H   0  0  0  0  0  0
    4.0194    2.4542  -20.6789 H   0  0  0  0  0  0
    5.2735    1.4491  -19.7553 H   0  0  0  0  0  0
   -1.3477    3.4970  -26.9580 H   0  0  0  0  0  0
    0.3165    2.0428  -20.8127 H   0  0  0  0  0  0
    7.1303    0.5685  -21.5578 H   0  0  0  0  0  0
   -2.7394    3.6308  -28.4347 H   0  0  0  0  0  0
    6.3550    9.1720  -21.8980 O   0  0  0  0  0  0
    4.6140    7.0840  -21.0210 N   0  0  1  0  0  0
    4.9720   10.6170  -20.8330 N   0  0  0  0  0  0
    4.8740    8.3210  -20.2070 C   0  0  0  0  0  0
    3.6410    7.2830  -22.1520 C   0  0  0  0  0  0
    5.4890    9.4020  -21.0680 C   0  0  0  0  0  0
    5.5399    6.7390  -21.4570 H   0  0  0  0  0  0
    4.2632   10.7330  -20.1372 H   0  0  0  0  0  0
    5.2961   11.4072  -21.3531 H   0  0  0  0  0  0
    5.5571    8.0779  -19.3798 H   0  0  0  0  0  0
    3.9267    8.6847  -19.7823 H   0  0  0  0  0  0
    4.1399    7.8159  -22.9749 H   0  0  0  0  0  0
    2.8001    7.9020  -21.8060 H   0  0  0  0  0  0
  1  2  2  0  0  0
  1  3  1  0  0  0
  1 34  1  0  0  0
  2  6  1  0  0  0
  2 35  1  0  0  0
  3  5  2  0  0  0
  3 27  1  0  0  0
  4  5  1  0  0  0
  4  6  2  0  0  0
  4 18  1  0  0  0
  5 24  1  0  0  0
  6 10  1  0  0  0
  7 10  2  0  0  0
  7 23  1  0  0  0
  7 33  1  0  0  0
  8 21  1  0  0  0
  8 22  1  0  0  0
  8 36  1  0  0  0
  8 37  1  0  0  0
  9 21  1  0  0  0
  9 31  1  0  0  0
  9 38  1  0  0  0
  9 39  1  0  0  0
 10 40  1  0  0  0
 11 12  1  0  0  0
 11 14  2  0  0  0
 11 15  1  0  0  0
 12 17  1  0  0  0
 12 28  2  0  0  0
 13 28  1  0  0  0
 13 29  2  0  0  0
 13 56  1  0  0  0
 14 29  1  0  0  0
 14 31  1  0  0  0
 15 30  2  0  0  0
 15 41  1  0  0  0
 16 17  2  0  0  0
 16 18  1  0  0  0
 16 30  1  0  0  0
 17 26  1  0  0  0
 18 23  2  0  0  0
 19 20  1  0  0  0
 19 31  1  0  0  0
 19 42  1  0  0  0
 19 43  1  0  0  0
 20 22  1  0  0  0
 20 32  1  0  0  0
 20 44  1  0  0  0
 21 32  1  0  0  0
 21 45  1  0  0  0
 22 46  1  0  0  0
 22 47  1  0  0  0
 23 48  1  0  0  0
 24 25  3  0  0  0
 25 49  1  0  0  0
 32 50  1  0  0  0
 33 51  1  0  0  0
 52 57  2  0  0  0
 53 55  1  0  0  0
 53 56  1  0  0  0
 53 58  1  0  0  0
 54 57  1  0  0  0
 54 59  1  0  0  0
 54 60  1  0  0  0
 55 57  1  0  0  0
 55 61  1  0  0  0
 55 62  1  0  0  0
 56 63  1  0  0  0
 56 64  1  0  0  0
M  END
> <s_m_entry_id>
526

> <s_m_entry_name>
000000526.1

> <s_m_Source_Path>
/Users/zaksoul/Documents/2

> <s_m_Source_File>
000000526.mol2

> <i_m_Source_File_Index>
1

$$$$
No_0_550
                    3D
 Schrodinger Suite 2022-4.
 64 69  0  0  1  0            999 V2000
   -5.1940    3.3510  -22.0680 C   0  0  0  0  0  0
   -5.4380    3.5350  -23.4080 C   0  0  0  0  0  0
   -3.9550    3.1370  -21.7020 C   0  0  0  0  0  0
   -3.0230    3.2990  -23.8480 C   0  0  0  0  0  0
   -2.8840    3.0550  -22.4250 C   0  0  0  0  0  0
   -4.3670    3.5200  -24.3960 C   0  0  0  0  0  0
   -3.5680    3.5730  -26.5780 C   0  0  0  0  0  0
    6.0680    3.1390  -21.1110 C   0  0  0  0  0  0
    5.9780    3.2850  -23.6620 C   0  0  0  0  0  0
   -4.5950    3.6430  -25.7360 C   0  0  0  0  0  0
    2.1790    3.7090  -23.7580 C   0  0  0  0  0  0
    1.3160    4.7900  -23.4730 C   0  0  0  0  0  0
    3.0600    6.0410  -22.7520 C   0  0  0  0  0  0
    3.5650    3.9450  -23.4150 C   0  0  0  0  0  0
    1.6830    2.5770  -24.4330 C   0  0  0  0  0  0
   -0.4710    3.3200  -24.3650 C   0  0  0  0  0  0
    0.0030    4.5550  -23.7520 C   0  0  0  0  0  0
   -1.9160    3.2800  -24.7500 C   0  0  0  0  0  0
    4.2460    1.4670  -23.1170 C   0  0  0  0  0  0
    5.1660    1.1380  -21.9510 C   0  0  2  0  0  0
    6.7190    2.7310  -22.4500 C   0  0  2  0  0  0
    5.0910    2.1340  -20.7820 C   0  0  0  0  0  0
   -2.2170    3.4340  -26.1840 C   0  0  0  0  0  0
   -1.5400    2.6840  -21.7990 C   0  0  0  0  0  0
   -0.5100    2.3690  -21.2730 C   0  0  0  0  0  0
   -0.8800    5.5710  -23.4230 F   0  0  0  0  0  0
   -3.7660    2.8970  -20.3160 F   0  0  0  0  0  0
    1.7440    5.9620  -22.9280 N   0  0  0  0  0  0
    3.9910    5.1090  -22.9560 N   0  0  0  0  0  0
    0.3870    2.4460  -24.7660 N   0  0  0  0  0  0
    4.5210    2.9280  -23.5750 N   0  0  0  0  0  0
    6.5800    1.2520  -22.4040 N   0  0  1  0  0  0
   -3.7120    3.5870  -27.9710 O   0  0  0  0  0  0
   -6.0124    3.3851  -21.3580 H   0  0  0  0  0  0
   -6.4512    3.6977  -23.7574 H   0  0  0  0  0  0
    5.5672    4.1114  -21.2281 H   0  0  0  0  0  0
    6.8368    3.1723  -20.3250 H   0  0  0  0  0  0
    6.4058    2.8562  -24.5802 H   0  0  0  0  0  0
    6.0860    4.3793  -23.6893 H   0  0  0  0  0  0
   -5.6032    3.7966  -26.1035 H   0  0  0  0  0  0
    2.3543    1.7702  -24.7039 H   0  0  0  0  0  0
    3.1988    1.3752  -22.7931 H   0  0  0  0  0  0
    4.4479    0.7774  -23.9499 H   0  0  0  0  0  0
    4.9672    0.1178  -21.5908 H   0  0  0  0  0  0
    7.7791    3.0235  -22.4742 H   0  0  0  0  0  0
    4.0914    2.5924  -20.7578 H   0  0  0  0  0  0
    5.3888    1.6272  -19.8522 H   0  0  0  0  0  0
   -1.4312    3.4420  -26.9307 H   0  0  0  0  0  0
    0.3972    2.0912  -20.8094 H   0  0  0  0  0  0
    7.2282    0.7728  -21.6852 H   0  0  0  0  0  0
   -2.8560    3.5276  -28.3787 H   0  0  0  0  0  0
    6.0570    9.5710  -22.5150 O   0  0  0  0  0  0
    4.8080    7.2400  -21.4340 N   0  0  1  0  0  0
    4.8540   10.7710  -21.0160 N   0  0  0  0  0  0
    5.1420    8.4440  -20.5980 C   0  0  0  0  0  0
    3.5650    7.3960  -22.2690 C   0  0  0  0  0  0
    5.4100    9.6430  -21.4810 C   0  0  0  0  0  0
    5.6223    7.0349  -22.1132 H   0  0  0  0  0  0
    4.3371   10.7580  -20.1601 H   0  0  0  0  0  0
    4.9570   11.6261  -21.5241 H   0  0  0  0  0  0
    6.0330    8.2310  -19.9890 H   0  0  0  0  0  0
    4.3026    8.6661  -19.9227 H   0  0  0  0  0  0
    3.7850    8.0361  -23.1361 H   0  0  0  0  0  0
    2.7822    7.8869  -21.6721 H   0  0  0  0  0  0
  1  2  2  0  0  0
  1  3  1  0  0  0
  1 34  1  0  0  0
  2  6  1  0  0  0
  2 35  1  0  0  0
  3  5  2  0  0  0
  3 27  1  0  0  0
  4  5  1  0  0  0
  4  6  2  0  0  0
  4 18  1  0  0  0
  5 24  1  0  0  0
  6 10  1  0  0  0
  7 10  2  0  0  0
  7 23  1  0  0  0
  7 33  1  0  0  0
  8 21  1  0  0  0
  8 22  1  0  0  0
  8 36  1  0  0  0
  8 37  1  0  0  0
  9 21  1  0  0  0
  9 31  1  0  0  0
  9 38  1  0  0  0
  9 39  1  0  0  0
 10 40  1  0  0  0
 11 12  1  0  0  0
 11 14  2  0  0  0
 11 15  1  0  0  0
 12 17  1  0  0  0
 12 28  2  0  0  0
 13 28  1  0  0  0
 13 29  2  0  0  0
 13 56  1  0  0  0
 14 29  1  0  0  0
 14 31  1  0  0  0
 15 30  2  0  0  0
 15 41  1  0  0  0
 16 17  2  0  0  0
 16 18  1  0  0  0
 16 30  1  0  0  0
 17 26  1  0  0  0
 18 23  2  0  0  0
 19 20  1  0  0  0
 19 31  1  0  0  0
 19 42  1  0  0  0
 19 43  1  0  0  0
 20 22  1  0  0  0
 20 32  1  0  0  0
 20 44  1  0  0  0
 21 32  1  0  0  0
 21 45  1  0  0  0
 22 46  1  0  0  0
 22 47  1  0  0  0
 23 48  1  0  0  0
 24 25  3  0  0  0
 25 49  1  0  0  0
 32 50  1  0  0  0
 33 51  1  0  0  0
 52 57  2  0  0  0
 53 55  1  0  0  0
 53 56  1  0  0  0
 53 58  1  0  0  0
 54 57  1  0  0  0
 54 59  1  0  0  0
 54 60  1  0  0  0
 55 57  1  0  0  0
 55 61  1  0  0  0
 55 62  1  0  0  0
 56 63  1  0  0  0
 56 64  1  0  0  0
M  END
> <s_m_entry_id>
527

> <s_m_entry_name>
000000527.1

> <s_m_Source_Path>
/Users/zaksoul/Documents/2

> <s_m_Source_File>
000000527.mol2

> <i_m_Source_File_Index>
1

$$$$
No_0_551
                    3D
 Schrodinger Suite 2022-4.
 64 69  0  0  1  0            999 V2000
   -5.5890    3.4220  -22.0850 C   0  0  0  0  0  0
   -5.7910    3.5760  -23.4360 C   0  0  0  0  0  0
   -4.3680    3.1850  -21.6780 C   0  0  0  0  0  0
   -3.3730    3.2640  -23.8000 C   0  0  0  0  0  0
   -3.2800    3.0550  -22.3680 C   0  0  0  0  0  0
   -4.6950    3.5050  -24.3920 C   0  0  0  0  0  0
   -3.8330    3.4790  -26.5510 C   0  0  0  0  0  0
    5.6310    2.9350  -20.8020 C   0  0  0  0  0  0
    5.6160    3.0150  -23.3580 C   0  0  0  0  0  0
   -4.8810    3.5990  -25.7410 C   0  0  0  0  0  0
    1.8340    3.5380  -23.5730 C   0  0  0  0  0  0
    0.9940    4.6480  -23.3410 C   0  0  0  0  0  0
    2.7500    5.8710  -22.6040 C   0  0  0  0  0  0
    3.2160    3.7450  -23.1970 C   0  0  0  0  0  0
    1.3270    2.4010  -24.2320 C   0  0  0  0  0  0
   -0.8080    3.2030  -24.2450 C   0  0  0  0  0  0
   -0.3170    4.4410  -23.6520 C   0  0  0  0  0  0
   -2.2420    3.1910  -24.6700 C   0  0  0  0  0  0
    3.8200    1.2590  -22.8150 C   0  0  0  0  0  0
    4.6990    0.9370  -21.6160 C   0  0  2  0  0  0
    6.3080    2.4740  -22.1120 C   0  0  2  0  0  0
    4.6190    1.9660  -20.4760 C   0  0  0  0  0  0
   -2.4980    3.3140  -26.1160 C   0  0  0  0  0  0
   -1.9650    2.6650  -21.6950 C   0  0  0  0  0  0
   -0.9580    2.3370  -21.1310 C   0  0  0  0  0  0
   -1.1800    5.4890  -23.3740 F   0  0  0  0  0  0
   -4.2240    2.9770  -20.2820 F   0  0  0  0  0  0
    1.4380    5.8220  -22.8160 N   0  0  0  0  0  0
    3.6610    4.9090  -22.7570 N   0  0  0  0  0  0
    0.0370    2.2960  -24.5990 N   0  0  0  0  0  0
    4.1480    2.6990  -23.3030 N   0  0  0  0  0  0
    6.1270    1.0010  -22.0310 N   0  0  1  0  0  0
   -3.9380    3.4590  -27.9480 O   0  0  0  0  0  0
   -6.4256    3.4972  -21.3998 H   0  0  0  0  0  0
   -6.7895    3.7566  -23.8173 H   0  0  0  0  0  0
    5.1607    3.9169  -20.9594 H   0  0  0  0  0  0
    6.3791    2.9693  -19.9963 H   0  0  0  0  0  0
    6.0578    2.5500  -24.2517 H   0  0  0  0  0  0
    5.7553    4.1049  -23.4105 H   0  0  0  0  0  0
   -5.8744    3.7686  -26.1404 H   0  0  0  0  0  0
    1.9835    1.5699  -24.4629 H   0  0  0  0  0  0
    2.7619    1.2045  -22.5192 H   0  0  0  0  0  0
    4.0268    0.5418  -23.6230 H   0  0  0  0  0  0
    4.4619   -0.0668  -21.2337 H   0  0  0  0  0  0
    7.3760    2.7375  -22.1130 H   0  0  0  0  0  0
    3.6320    2.4514  -20.4921 H   0  0  0  0  0  0
    4.8762    1.4768  -19.5249 H   0  0  0  0  0  0
   -1.6918    3.2809  -26.8399 H   0  0  0  0  0  0
   -0.0720    2.0470  -20.6350 H   0  0  0  0  0  0
    6.7419    0.5251  -21.2814 H   0  0  0  0  0  0
   -3.0728    3.3659  -28.3291 H   0  0  0  0  0  0
    5.5620    9.5560  -22.7380 O   0  0  0  0  0  0
    4.6720    7.0970  -21.5870 N   0  0  1  0  0  0
    4.6360   10.5960  -20.9500 N   0  0  0  0  0  0
    5.1130    8.2700  -20.7560 C   0  0  0  0  0  0
    3.2790    7.2250  -22.1430 C   0  0  0  0  0  0
    5.1380    9.5310  -21.5920 C   0  0  0  0  0  0
    5.3392    6.9800  -22.4282 H   0  0  0  0  0  0
    4.3050   10.5030  -20.0110 H   0  0  0  0  0  0
    4.5920   11.4822  -21.4111 H   0  0  0  0  0  0
    6.1190    8.0770  -20.3550 H   0  0  0  0  0  0
    4.4196    8.4031  -19.9125 H   0  0  0  0  0  0
    3.2860    7.9242  -22.9922 H   0  0  0  0  0  0
    2.6123    7.6338  -21.3694 H   0  0  0  0  0  0
  1  2  2  0  0  0
  1  3  1  0  0  0
  1 34  1  0  0  0
  2  6  1  0  0  0
  2 35  1  0  0  0
  3  5  2  0  0  0
  3 27  1  0  0  0
  4  5  1  0  0  0
  4  6  2  0  0  0
  4 18  1  0  0  0
  5 24  1  0  0  0
  6 10  1  0  0  0
  7 10  2  0  0  0
  7 23  1  0  0  0
  7 33  1  0  0  0
  8 21  1  0  0  0
  8 22  1  0  0  0
  8 36  1  0  0  0
  8 37  1  0  0  0
  9 21  1  0  0  0
  9 31  1  0  0  0
  9 38  1  0  0  0
  9 39  1  0  0  0
 10 40  1  0  0  0
 11 12  1  0  0  0
 11 14  2  0  0  0
 11 15  1  0  0  0
 12 17  1  0  0  0
 12 28  2  0  0  0
 13 28  1  0  0  0
 13 29  2  0  0  0
 13 56  1  0  0  0
 14 29  1  0  0  0
 14 31  1  0  0  0
 15 30  2  0  0  0
 15 41  1  0  0  0
 16 17  2  0  0  0
 16 18  1  0  0  0
 16 30  1  0  0  0
 17 26  1  0  0  0
 18 23  2  0  0  0
 19 20  1  0  0  0
 19 31  1  0  0  0
 19 42  1  0  0  0
 19 43  1  0  0  0
 20 22  1  0  0  0
 20 32  1  0  0  0
 20 44  1  0  0  0
 21 32  1  0  0  0
 21 45  1  0  0  0
 22 46  1  0  0  0
 22 47  1  0  0  0
 23 48  1  0  0  0
 24 25  3  0  0  0
 25 49  1  0  0  0
 32 50  1  0  0  0
 33 51  1  0  0  0
 52 57  2  0  0  0
 53 55  1  0  0  0
 53 56  1  0  0  0
 53 58  1  0  0  0
 54 57  1  0  0  0
 54 59  1  0  0  0
 54 60  1  0  0  0
 55 57  1  0  0  0
 55 61  1  0  0  0
 55 62  1  0  0  0
 56 63  1  0  0  0
 56 64  1  0  0  0
M  END
> <s_m_entry_id>
528

> <s_m_entry_name>
000000528.1

> <s_m_Source_Path>
/Users/zaksoul/Documents/2

> <s_m_Source_File>
000000528.mol2

> <i_m_Source_File_Index>
1

$$$$
No_0_552
                    3D
 Schrodinger Suite 2022-4.
 64 69  0  0  1  0            999 V2000
   -5.3210    3.2450  -22.0620 C   0  0  0  0  0  0
   -5.5650    3.4290  -23.4020 C   0  0  0  0  0  0
   -4.0820    3.0320  -21.6950 C   0  0  0  0  0  0
   -3.1510    3.1950  -23.8420 C   0  0  0  0  0  0
   -3.0120    2.9520  -22.4190 C   0  0  0  0  0  0
   -4.4950    3.4140  -24.3900 C   0  0  0  0  0  0
   -3.6950    3.4680  -26.5720 C   0  0  0  0  0  0
    5.9410    3.0420  -21.1050 C   0  0  0  0  0  0
    5.8510    3.1870  -23.6570 C   0  0  0  0  0  0
   -4.7220    3.5370  -25.7300 C   0  0  0  0  0  0
    2.0510    3.6090  -23.7520 C   0  0  0  0  0  0
    1.1880    4.6880  -23.4680 C   0  0  0  0  0  0
    2.9300    5.9410  -22.7470 C   0  0  0  0  0  0
    3.4370    3.8450  -23.4090 C   0  0  0  0  0  0
    1.5560    2.4760  -24.4270 C   0  0  0  0  0  0
   -0.5990    3.2180  -24.3590 C   0  0  0  0  0  0
   -0.1260    4.4530  -23.7470 C   0  0  0  0  0  0
   -2.0430    3.1770  -24.7440 C   0  0  0  0  0  0
    4.1200    1.3680  -23.1100 C   0  0  0  0  0  0
    5.0410    1.0400  -21.9450 C   0  0  2  0  0  0
    6.5920    2.6340  -22.4450 C   0  0  2  0  0  0
    4.9650    2.0370  -20.7760 C   0  0  0  0  0  0
   -2.3440    3.3290  -26.1780 C   0  0  0  0  0  0
   -1.6670    2.5810  -21.7930 C   0  0  0  0  0  0
   -0.6360    2.2670  -21.2660 C   0  0  0  0  0  0
   -1.0090    5.4690  -23.4170 F   0  0  0  0  0  0
   -3.8930    2.7930  -20.3100 F   0  0  0  0  0  0
    1.6140    5.8610  -22.9230 N   0  0  0  0  0  0
    3.8630    5.0100  -22.9510 N   0  0  0  0  0  0
    0.2600    2.3440  -24.7600 N   0  0  0  0  0  0
    4.3940    2.8290  -23.5690 N   0  0  0  0  0  0
    6.4540    1.1550  -22.3980 N   0  0  1  0  0  0
   -3.8390    3.4810  -27.9650 O   0  0  0  0  0  0
   -6.1389    3.2791  -21.3515 H   0  0  0  0  0  0
   -6.5784    3.5905  -23.7512 H   0  0  0  0  0  0
    5.4394    4.0139  -21.2221 H   0  0  0  0  0  0
    6.7103    3.0763  -20.3195 H   0  0  0  0  0  0
    6.2793    2.7587  -24.5752 H   0  0  0  0  0  0
    5.9579    4.2815  -23.6842 H   0  0  0  0  0  0
   -5.7304    3.6895  -26.0972 H   0  0  0  0  0  0
    2.2284    1.6701  -24.6980 H   0  0  0  0  0  0
    3.0725    1.2762  -22.7871 H   0  0  0  0  0  0
    4.3229    0.6786  -23.9428 H   0  0  0  0  0  0
    4.8423    0.0202  -21.5839 H   0  0  0  0  0  0
    7.6519    2.9275  -22.4682 H   0  0  0  0  0  0
    3.9648    2.4942  -20.7528 H   0  0  0  0  0  0
    5.2628    1.5302  -19.8462 H   0  0  0  0  0  0
   -1.5582    3.3380  -26.9247 H   0  0  0  0  0  0
    0.2716    1.9898  -20.8027 H   0  0  0  0  0  0
    7.1032    0.6770  -21.6793 H   0  0  0  0  0  0
   -2.9829    3.4226  -28.3727 H   0  0  0  0  0  0
    5.2560    9.9360  -23.1110 O   0  0  0  0  0  0
    4.9300    7.2860  -22.0960 N   0  0  1  0  0  0
    4.7400   10.6730  -21.0310 N   0  0  0  0  0  0
    5.4640    8.4150  -21.2600 C   0  0  0  0  0  0
    3.4350    7.2970  -22.2640 C   0  0  0  0  0  0
    5.1520    9.7470  -21.9090 C   0  0  0  0  0  0
    5.3607    7.3340  -23.0853 H   0  0  0  0  0  0
    4.6790   10.4479  -20.0586 H   0  0  0  0  0  0
    4.4950   11.5889  -21.3490 H   0  0  0  0  0  0
    6.5534    8.3071  -21.1521 H   0  0  0  0  0  0
    5.0079    8.3790  -20.2597 H   0  0  0  0  0  0
    3.1541    8.0726  -22.9917 H   0  0  0  0  0  0
    2.9599    7.5430  -21.3029 H   0  0  0  0  0  0
  1  2  2  0  0  0
  1  3  1  0  0  0
  1 34  1  0  0  0
  2  6  1  0  0  0
  2 35  1  0  0  0
  3  5  2  0  0  0
  3 27  1  0  0  0
  4  5  1  0  0  0
  4  6  2  0  0  0
  4 18  1  0  0  0
  5 24  1  0  0  0
  6 10  1  0  0  0
  7 10  2  0  0  0
  7 23  1  0  0  0
  7 33  1  0  0  0
  8 21  1  0  0  0
  8 22  1  0  0  0
  8 36  1  0  0  0
  8 37  1  0  0  0
  9 21  1  0  0  0
  9 31  1  0  0  0
  9 38  1  0  0  0
  9 39  1  0  0  0
 10 40  1  0  0  0
 11 12  1  0  0  0
 11 14  2  0  0  0
 11 15  1  0  0  0
 12 17  1  0  0  0
 12 28  2  0  0  0
 13 28  1  0  0  0
 13 29  2  0  0  0
 13 56  1  0  0  0
 14 29  1  0  0  0
 14 31  1  0  0  0
 15 30  2  0  0  0
 15 41  1  0  0  0
 16 17  2  0  0  0
 16 18  1  0  0  0
 16 30  1  0  0  0
 17 26  1  0  0  0
 18 23  2  0  0  0
 19 20  1  0  0  0
 19 31  1  0  0  0
 19 42  1  0  0  0
 19 43  1  0  0  0
 20 22  1  0  0  0
 20 32  1  0  0  0
 20 44  1  0  0  0
 21 32  1  0  0  0
 21 45  1  0  0  0
 22 46  1  0  0  0
 22 47  1  0  0  0
 23 48  1  0  0  0
 24 25  3  0  0  0
 25 49  1  0  0  0
 32 50  1  0  0  0
 33 51  1  0  0  0
 52 57  2  0  0  0
 53 55  1  0  0  0
 53 56  1  0  0  0
 53 58  1  0  0  0
 54 57  1  0  0  0
 54 59  1  0  0  0
 54 60  1  0  0  0
 55 57  1  0  0  0
 55 61  1  0  0  0
 55 62  1  0  0  0
 56 63  1  0  0  0
 56 64  1  0  0  0
M  END
> <s_m_entry_id>
529

> <s_m_entry_name>
000000529.1

> <s_m_Source_Path>
/Users/zaksoul/Documents/2

> <s_m_Source_File>
000000529.mol2

> <i_m_Source_File_Index>
1

$$$$
No_0_553
                    3D
 Schrodinger Suite 2022-4.
 64 69  0  0  1  0            999 V2000
   -5.3670    3.3840  -22.0120 C   0  0  0  0  0  0
   -5.5850    3.5930  -23.3530 C   0  0  0  0  0  0
   -4.1380    3.1470  -21.6270 C   0  0  0  0  0  0
   -3.1660    3.3310  -23.7530 C   0  0  0  0  0  0
   -3.0560    3.0630  -22.3320 C   0  0  0  0  0  0
   -4.4970    3.5790  -24.3220 C   0  0  0  0  0  0
   -3.6580    3.6560  -26.4880 C   0  0  0  0  0  0
    5.8720    3.0000  -20.8600 C   0  0  0  0  0  0
    5.8300    3.1880  -23.4090 C   0  0  0  0  0  0
   -4.6990    3.7270  -25.6640 C   0  0  0  0  0  0
    2.0390    3.6670  -23.5650 C   0  0  0  0  0  0
    1.1860    4.7540  -23.2780 C   0  0  0  0  0  0
    2.9330    5.9700  -22.5070 C   0  0  0  0  0  0
    3.4220    3.8770  -23.1940 C   0  0  0  0  0  0
    1.5400    2.5530  -24.2680 C   0  0  0  0  0  0
   -0.6050    3.3250  -24.2260 C   0  0  0  0  0  0
   -0.1250    4.5430  -23.5840 C   0  0  0  0  0  0
   -2.0430    3.3110  -24.6370 C   0  0  0  0  0  0
    4.0630    1.3860  -22.9240 C   0  0  0  0  0  0
    4.9580    1.0260  -21.7480 C   0  0  2  0  0  0
    6.5410    2.6050  -22.1940 C   0  0  2  0  0  0
    4.8760    2.0040  -20.5650 C   0  0  0  0  0  0
   -2.3160    3.4920  -26.0730 C   0  0  0  0  0  0
   -1.7280    2.6630  -21.6890 C   0  0  0  0  0  0
   -0.7120    2.3240  -21.1500 C   0  0  0  0  0  0
   -1.0000    5.5660  -23.2540 F   0  0  0  0  0  0
   -3.9770    2.8820  -20.2420 F   0  0  0  0  0  0
    1.6200    5.9120  -22.7070 N   0  0  0  0  0  0
    3.8560    5.0280  -22.7090 N   0  0  0  0  0  0
    0.2480    2.4450  -24.6250 N   0  0  0  0  0  0
    4.3660    2.8500  -23.3540 N   0  0  0  0  0  0
    6.3810    1.1280  -22.1740 N   0  0  1  0  0  0
   -3.7770    3.6940  -27.8830 O   0  0  0  0  0  0
   -6.1969    3.4191  -21.3155 H   0  0  0  0  0  0
   -6.5894    3.7758  -23.7176 H   0  0  0  0  0  0
    5.3866    3.9809  -20.9700 H   0  0  0  0  0  0
    6.6267    3.0101  -20.0598 H   0  0  0  0  0  0
    6.2681    2.7681  -24.3265 H   0  0  0  0  0  0
    5.9531    4.2811  -23.4171 H   0  0  0  0  0  0
   -5.6987    3.8998  -26.0458 H   0  0  0  0  0  0
    2.2053    1.7412  -24.5389 H   0  0  0  0  0  0
    3.0087    1.3042  -22.6210 H   0  0  0  0  0  0
    4.2708    0.7072  -23.7642 H   0  0  0  0  0  0
    4.7391    0.0030  -21.4080 H   0  0  0  0  0  0
    7.6054    2.8825  -22.1940 H   0  0  0  0  0  0
    3.8821    2.4752  -20.5509 H   0  0  0  0  0  0
    5.1495    1.4781  -19.6384 H   0  0  0  0  0  0
   -1.5171    3.5010  -26.8056 H   0  0  0  0  0  0
    0.1829    2.0260  -20.6751 H   0  0  0  0  0  0
    7.0100    0.6285  -21.4520 H   0  0  0  0  0  0
   -2.9147    3.6297  -28.2766 H   0  0  0  0  0  0
    4.7920   10.1980  -22.9160 O   0  0  0  0  0  0
    4.9330    7.4340  -22.2080 N   0  0  1  0  0  0
    4.7870   10.6490  -20.6950 N   0  0  0  0  0  0
    5.5850    8.5150  -21.3920 C   0  0  0  0  0  0
    3.4480    7.3100  -21.9920 C   0  0  0  0  0  0
    5.0200    9.8700  -21.7610 C   0  0  0  0  0  0
    5.0851    7.6331  -23.2585 H   0  0  0  0  0  0
    4.9979   10.3151  -19.7763 H   0  0  0  0  0  0
    4.4021   11.5637  -20.8180 H   0  0  0  0  0  0
    6.6696    8.5090  -21.5751 H   0  0  0  0  0  0
    5.4090    8.3240  -20.3231 H   0  0  0  0  0  0
    2.9329    8.1272  -22.5181 H   0  0  0  0  0  0
    3.2249    7.4010  -20.9187 H   0  0  0  0  0  0
  1  2  2  0  0  0
  1  3  1  0  0  0
  1 34  1  0  0  0
  2  6  1  0  0  0
  2 35  1  0  0  0
  3  5  2  0  0  0
  3 27  1  0  0  0
  4  5  1  0  0  0
  4  6  2  0  0  0
  4 18  1  0  0  0
  5 24  1  0  0  0
  6 10  1  0  0  0
  7 10  2  0  0  0
  7 23  1  0  0  0
  7 33  1  0  0  0
  8 21  1  0  0  0
  8 22  1  0  0  0
  8 36  1  0  0  0
  8 37  1  0  0  0
  9 21  1  0  0  0
  9 31  1  0  0  0
  9 38  1  0  0  0
  9 39  1  0  0  0
 10 40  1  0  0  0
 11 12  1  0  0  0
 11 14  2  0  0  0
 11 15  1  0  0  0
 12 17  1  0  0  0
 12 28  2  0  0  0
 13 28  1  0  0  0
 13 29  2  0  0  0
 13 56  1  0  0  0
 14 29  1  0  0  0
 14 31  1  0  0  0
 15 30  2  0  0  0
 15 41  1  0  0  0
 16 17  2  0  0  0
 16 18  1  0  0  0
 16 30  1  0  0  0
 17 26  1  0  0  0
 18 23  2  0  0  0
 19 20  1  0  0  0
 19 31  1  0  0  0
 19 42  1  0  0  0
 19 43  1  0  0  0
 20 22  1  0  0  0
 20 32  1  0  0  0
 20 44  1  0  0  0
 21 32  1  0  0  0
 21 45  1  0  0  0
 22 46  1  0  0  0
 22 47  1  0  0  0
 23 48  1  0  0  0
 24 25  3  0  0  0
 25 49  1  0  0  0
 32 50  1  0  0  0
 33 51  1  0  0  0
 52 57  2  0  0  0
 53 55  1  0  0  0
 53 56  1  0  0  0
 53 58  1  0  0  0
 54 57  1  0  0  0
 54 59  1  0  0  0
 54 60  1  0  0  0
 55 57  1  0  0  0
 55 61  1  0  0  0
 55 62  1  0  0  0
 56 63  1  0  0  0
 56 64  1  0  0  0
M  END
> <s_m_entry_id>
530

> <s_m_entry_name>
000000530.1

> <s_m_Source_Path>
/Users/zaksoul/Documents/2

> <s_m_Source_File>
000000530.mol2

> <i_m_Source_File_Index>
1

$$$$
No_0_554
                    3D
 Schrodinger Suite 2022-4.
 64 69  0  0  1  0            999 V2000
   -5.2890    3.1940  -22.0230 C   0  0  0  0  0  0
   -5.5170    3.3920  -23.3650 C   0  0  0  0  0  0
   -4.0550    2.9720  -21.6450 C   0  0  0  0  0  0
   -3.0990    3.1510  -23.7790 C   0  0  0  0  0  0
   -2.9770    2.8940  -22.3570 C   0  0  0  0  0  0
   -4.4360    3.3820  -24.3410 C   0  0  0  0  0  0
   -3.6110    3.4520  -26.5130 C   0  0  0  0  0  0
    5.9600    2.9310  -20.9420 C   0  0  0  0  0  0
    5.9000    3.1020  -23.4930 C   0  0  0  0  0  0
   -4.6480    3.5180  -25.6820 C   0  0  0  0  0  0
    2.1030    3.5410  -23.6270 C   0  0  0  0  0  0
    1.2410    4.6220  -23.3420 C   0  0  0  0  0  0
    2.9810    5.8600  -22.5900 C   0  0  0  0  0  0
    3.4870    3.7680  -23.2670 C   0  0  0  0  0  0
    1.6110    2.4170  -24.3190 C   0  0  0  0  0  0
   -0.5410    3.1680  -24.2680 C   0  0  0  0  0  0
   -0.0700    4.3950  -23.6380 C   0  0  0  0  0  0
   -1.9820    3.1370  -24.6700 C   0  0  0  0  0  0
    4.1550    1.2850  -22.9840 C   0  0  0  0  0  0
    5.0610    0.9420  -21.8120 C   0  0  2  0  0  0
    6.6250    2.5340  -22.2780 C   0  0  2  0  0  0
    4.9770    1.9270  -20.6340 C   0  0  0  0  0  0
   -2.2650    3.3040  -26.1050 C   0  0  0  0  0  0
   -1.6410    2.5120  -21.7200 C   0  0  0  0  0  0
   -0.6180    2.1870  -21.1850 C   0  0  0  0  0  0
   -0.9520    5.4110  -23.3090 F   0  0  0  0  0  0
   -3.8830    2.7190  -20.2600 F   0  0  0  0  0  0
    1.6670    5.7870  -22.7820 N   0  0  0  0  0  0
    3.9120    4.9260  -22.7930 N   0  0  0  0  0  0
    0.3190    2.2940  -24.6670 N   0  0  0  0  0  0
    4.4400    2.7490  -23.4260 N   0  0  0  0  0  0
    6.4800    1.0550  -22.2480 N   0  0  1  0  0  0
   -3.7400    3.4800  -27.9070 O   0  0  0  0  0  0
   -6.1154    3.2251  -21.3221 H   0  0  0  0  0  0
   -6.5259    3.5617  -23.7234 H   0  0  0  0  0  0
    5.4647    3.9065  -21.0560 H   0  0  0  0  0  0
    6.7208    2.9542  -20.1479 H   0  0  0  0  0  0
    6.3369    2.6802  -24.4102 H   0  0  0  0  0  0
    6.0120    4.1962  -23.5092 H   0  0  0  0  0  0
   -5.6518    3.6786  -26.0584 H   0  0  0  0  0  0
    2.2825    1.6100  -24.5890 H   0  0  0  0  0  0
    3.1037    1.1942  -22.6733 H   0  0  0  0  0  0
    4.3640    0.6025  -23.8210 H   0  0  0  0  0  0
    4.8553   -0.0807  -21.4630 H   0  0  0  0  0  0
    7.6864    2.8226  -22.2871 H   0  0  0  0  0  0
    3.9788    2.3888  -20.6169 H   0  0  0  0  0  0
    5.2617    1.4111  -19.7051 H   0  0  0  0  0  0
   -1.4715    3.3160  -26.8434 H   0  0  0  0  0  0
    0.2831    1.9020  -20.7139 H   0  0  0  0  0  0
    7.1184    0.5674  -21.5262 H   0  0  0  0  0  0
   -2.8797    3.4207  -28.3055 H   0  0  0  0  0  0
    4.3160   10.2790  -23.0290 O   0  0  0  0  0  0
    4.8600    7.5030  -22.6280 N   0  0  1  0  0  0
    4.8010   10.5740  -20.8360 N   0  0  0  0  0  0
    5.5910    8.5890  -21.8900 C   0  0  0  0  0  0
    3.4860    7.2090  -22.0890 C   0  0  0  0  0  0
    4.8390    9.8980  -21.9930 C   0  0  0  0  0  0
    4.7401    7.7889  -23.6625 H   0  0  0  0  0  0
    5.2529   10.2021  -20.0252 H   0  0  0  0  0  0
    4.3207   11.4495  -20.7830 H   0  0  0  0  0  0
    6.5972    8.7099  -22.3177 H   0  0  0  0  0  0
    5.6930    8.3081  -20.8314 H   0  0  0  0  0  0
    2.7906    8.0005  -22.4052 H   0  0  0  0  0  0
    3.5180    7.2020  -20.9895 H   0  0  0  0  0  0
  1  2  2  0  0  0
  1  3  1  0  0  0
  1 34  1  0  0  0
  2  6  1  0  0  0
  2 35  1  0  0  0
  3  5  2  0  0  0
  3 27  1  0  0  0
  4  5  1  0  0  0
  4  6  2  0  0  0
  4 18  1  0  0  0
  5 24  1  0  0  0
  6 10  1  0  0  0
  7 10  2  0  0  0
  7 23  1  0  0  0
  7 33  1  0  0  0
  8 21  1  0  0  0
  8 22  1  0  0  0
  8 36  1  0  0  0
  8 37  1  0  0  0
  9 21  1  0  0  0
  9 31  1  0  0  0
  9 38  1  0  0  0
  9 39  1  0  0  0
 10 40  1  0  0  0
 11 12  1  0  0  0
 11 14  2  0  0  0
 11 15  1  0  0  0
 12 17  1  0  0  0
 12 28  2  0  0  0
 13 28  1  0  0  0
 13 29  2  0  0  0
 13 56  1  0  0  0
 14 29  1  0  0  0
 14 31  1  0  0  0
 15 30  2  0  0  0
 15 41  1  0  0  0
 16 17  2  0  0  0
 16 18  1  0  0  0
 16 30  1  0  0  0
 17 26  1  0  0  0
 18 23  2  0  0  0
 19 20  1  0  0  0
 19 31  1  0  0  0
 19 42  1  0  0  0
 19 43  1  0  0  0
 20 22  1  0  0  0
 20 32  1  0  0  0
 20 44  1  0  0  0
 21 32  1  0  0  0
 21 45  1  0  0  0
 22 46  1  0  0  0
 22 47  1  0  0  0
 23 48  1  0  0  0
 24 25  3  0  0  0
 25 49  1  0  0  0
 32 50  1  0  0  0
 33 51  1  0  0  0
 52 57  2  0  0  0
 53 55  1  0  0  0
 53 56  1  0  0  0
 53 58  1  0  0  0
 54 57  1  0  0  0
 54 59  1  0  0  0
 54 60  1  0  0  0
 55 57  1  0  0  0
 55 61  1  0  0  0
 55 62  1  0  0  0
 56 63  1  0  0  0
 56 64  1  0  0  0
M  END
> <s_m_entry_id>
531

> <s_m_entry_name>
000000531.1

> <s_m_Source_Path>
/Users/zaksoul/Documents/2

> <s_m_Source_File>
000000531.mol2

> <i_m_Source_File_Index>
1

$$$$
No_0_555
                    3D
 Schrodinger Suite 2022-4.
 63 68  0  0  1  0            999 V2000
   -5.2260    3.4100  -22.3640 C   0  0  0  0  0  0
   -5.4630    3.6010  -23.7050 C   0  0  0  0  0  0
   -3.9890    3.1940  -21.9920 C   0  0  0  0  0  0
   -3.0460    3.3680  -24.1330 C   0  0  0  0  0  0
   -2.9150    3.1170  -22.7100 C   0  0  0  0  0  0
   -4.3870    3.5910  -24.6870 C   0  0  0  0  0  0
   -3.5760    3.6550  -26.8640 C   0  0  0  0  0  0
    6.0310    3.1920  -21.3490 C   0  0  0  0  0  0
    5.9540    3.3510  -23.9000 C   0  0  0  0  0  0
   -4.6070    3.7210  -26.0280 C   0  0  0  0  0  0
    2.1560    3.7770  -24.0130 C   0  0  0  0  0  0
    1.2910    4.8550  -23.7280 C   0  0  0  0  0  0
    3.0310    6.1030  -22.9910 C   0  0  0  0  0  0
    3.5400    4.0100  -23.6620 C   0  0  0  0  0  0
    1.6630    2.6480  -24.6970 C   0  0  0  0  0  0
   -0.4910    3.3910  -24.6370 C   0  0  0  0  0  0
   -0.0210    4.6230  -24.0150 C   0  0  0  0  0  0
   -1.9340    3.3530  -25.0290 C   0  0  0  0  0  0
    4.2190    1.5310  -23.3730 C   0  0  0  0  0  0
    5.1330    1.1950  -22.2040 C   0  0  2  0  0  0
    6.6890    2.7910  -22.6870 C   0  0  2  0  0  0
    5.0520    2.1860  -21.0310 C   0  0  0  0  0  0
   -2.2270    3.5140  -26.4640 C   0  0  0  0  0  0
   -1.5740    2.7420  -22.0790 C   0  0  0  0  0  0
   -0.5460    2.4230  -21.5490 C   0  0  0  0  0  0
   -0.9050    5.6370  -23.6850 F   0  0  0  0  0  0
   -3.8070    2.9470  -20.6070 F   0  0  0  0  0  0
    1.7160    6.0250  -23.1750 N   0  0  0  0  0  0
    3.9640    5.1720  -23.1950 N   0  0  0  0  0  0
    0.3690    2.5190  -25.0370 N   0  0  0  0  0  0
    4.4960    2.9940  -23.8220 N   0  0  0  0  0  0
    6.5490    1.3120  -22.6490 N   0  0  1  0  0  0
   -3.7130    3.6760  -28.2580 O   0  0  0  0  0  0
   -6.0482    3.4411  -21.6583 H   0  0  0  0  0  0
   -6.4743    3.7667  -24.0585 H   0  0  0  0  0  0
    5.5304    4.1649  -21.4630 H   0  0  0  0  0  0
    6.7958    3.2213  -20.5589 H   0  0  0  0  0  0
    6.3869    2.9272  -24.8182 H   0  0  0  0  0  0
    6.0629    4.4454  -23.9212 H   0  0  0  0  0  0
   -5.6135    3.8765  -26.3993 H   0  0  0  0  0  0
    2.3360    1.8426  -24.9678 H   0  0  0  0  0  0
    3.1701    1.4372  -23.0553 H   0  0  0  0  0  0
    4.4259    0.8448  -24.2075 H   0  0  0  0  0  0
    4.9321    0.1732  -21.8496 H   0  0  0  0  0  0
    7.7493    3.0836  -22.7031 H   0  0  0  0  0  0
    4.0523    2.6444  -21.0098 H   0  0  0  0  0  0
    5.3445    1.6746  -20.1021 H   0  0  0  0  0  0
   -1.4373    3.5260  -27.2065 H   0  0  0  0  0  0
    0.3588    2.1430  -21.0821 H   0  0  0  0  0  0
    7.1938    0.8297  -21.9293 H   0  0  0  0  0  0
   -2.8548    3.6187  -28.6614 H   0  0  0  0  0  0
    6.1190    7.7860  -21.0320 O   0  5  0  0  0  0
    6.1690    9.8010  -19.9620 O   0  0  0  0  0  0
    3.4850    7.5410  -20.9950 N   0  3  0  0  0  0
    3.5340    7.4550  -22.4980 C   0  0  0  0  0  0
    4.0550    8.8000  -20.4020 C   0  0  0  0  0  0
    5.5630    8.7960  -20.4740 C   0  0  0  0  0  0
    3.9588    6.7433  -20.6011 H   0  0  0  0  0  0
    2.5323    7.4279  -20.6858 H   0  0  0  0  0  0
    4.5683    7.6079  -22.8398 H   0  0  0  0  0  0
    2.9163    8.2557  -22.9308 H   0  0  0  0  0  0
    3.7378    8.8861  -19.3523 H   0  0  0  0  0  0
    3.6650    9.6710  -20.9490 H   0  0  0  0  0  0
  1  2  2  0  0  0
  1  3  1  0  0  0
  1 34  1  0  0  0
  2  6  1  0  0  0
  2 35  1  0  0  0
  3  5  2  0  0  0
  3 27  1  0  0  0
  4  5  1  0  0  0
  4  6  2  0  0  0
  4 18  1  0  0  0
  5 24  1  0  0  0
  6 10  1  0  0  0
  7 10  2  0  0  0
  7 23  1  0  0  0
  7 33  1  0  0  0
  8 21  1  0  0  0
  8 22  1  0  0  0
  8 36  1  0  0  0
  8 37  1  0  0  0
  9 21  1  0  0  0
  9 31  1  0  0  0
  9 38  1  0  0  0
  9 39  1  0  0  0
 10 40  1  0  0  0
 11 12  1  0  0  0
 11 14  2  0  0  0
 11 15  1  0  0  0
 12 17  1  0  0  0
 12 28  2  0  0  0
 13 28  1  0  0  0
 13 29  2  0  0  0
 13 55  1  0  0  0
 14 29  1  0  0  0
 14 31  1  0  0  0
 15 30  2  0  0  0
 15 41  1  0  0  0
 16 17  2  0  0  0
 16 18  1  0  0  0
 16 30  1  0  0  0
 17 26  1  0  0  0
 18 23  2  0  0  0
 19 20  1  0  0  0
 19 31  1  0  0  0
 19 42  1  0  0  0
 19 43  1  0  0  0
 20 22  1  0  0  0
 20 32  1  0  0  0
 20 44  1  0  0  0
 21 32  1  0  0  0
 21 45  1  0  0  0
 22 46  1  0  0  0
 22 47  1  0  0  0
 23 48  1  0  0  0
 24 25  3  0  0  0
 25 49  1  0  0  0
 32 50  1  0  0  0
 33 51  1  0  0  0
 52 57  1  0  0  0
 53 57  2  0  0  0
 54 55  1  0  0  0
 54 56  1  0  0  0
 54 58  1  0  0  0
 54 59  1  0  0  0
 55 60  1  0  0  0
 55 61  1  0  0  0
 56 57  1  0  0  0
 56 62  1  0  0  0
 56 63  1  0  0  0
M  CHG  2  52  -1  54   1
M  END
> <s_m_entry_id>
532

> <s_m_entry_name>
000000532.1

> <s_m_Source_Path>
/Users/zaksoul/Documents/2

> <s_m_Source_File>
000000532.mol2

> <i_m_Source_File_Index>
1

$$$$
No_0_556
                    3D
 Schrodinger Suite 2022-4.
 63 68  0  0  1  0            999 V2000
   -5.1760    3.4260  -22.1440 C   0  0  0  0  0  0
   -5.4160    3.6170  -23.4840 C   0  0  0  0  0  0
   -3.9380    3.2120  -21.7760 C   0  0  0  0  0  0
   -3.0010    3.3850  -23.9180 C   0  0  0  0  0  0
   -2.8650    3.1350  -22.4960 C   0  0  0  0  0  0
   -4.3440    3.6070  -24.4690 C   0  0  0  0  0  0
   -3.5380    3.6710  -26.6490 C   0  0  0  0  0  0
    6.0840    3.2200  -21.1590 C   0  0  0  0  0  0
    6.0000    3.3780  -23.7100 C   0  0  0  0  0  0
   -4.5680    3.7360  -25.8100 C   0  0  0  0  0  0
    2.2010    3.8000  -23.8130 C   0  0  0  0  0  0
    1.3360    4.8780  -23.5260 C   0  0  0  0  0  0
    3.0770    6.1270  -22.7950 C   0  0  0  0  0  0
    3.5860    4.0350  -23.4650 C   0  0  0  0  0  0
    1.7080    2.6700  -24.4950 C   0  0  0  0  0  0
   -0.4470    3.4110  -24.4290 C   0  0  0  0  0  0
    0.0240    4.6440  -23.8090 C   0  0  0  0  0  0
   -1.8910    3.3710  -24.8180 C   0  0  0  0  0  0
    4.2680    1.5560  -23.1770 C   0  0  0  0  0  0
    5.1860    1.2230  -22.0110 C   0  0  2  0  0  0
    6.7390    2.8200  -22.4990 C   0  0  2  0  0  0
    5.1070    2.2130  -20.8380 C   0  0  0  0  0  0
   -2.1880    3.5310  -26.2520 C   0  0  0  0  0  0
   -1.5220    2.7620  -21.8690 C   0  0  0  0  0  0
   -0.4930    2.4450  -21.3410 C   0  0  0  0  0  0
   -0.8610    5.6570  -23.4770 F   0  0  0  0  0  0
   -3.7520    2.9660  -20.3910 F   0  0  0  0  0  0
    1.7610    6.0480  -22.9750 N   0  0  0  0  0  0
    4.0100    5.1970  -23.0000 N   0  0  0  0  0  0
    0.4130    2.5400  -24.8320 N   0  0  0  0  0  0
    4.5430    3.0190  -23.6280 N   0  0  0  0  0  0
    6.6010    1.3400  -22.4600 N   0  0  1  0  0  0
   -3.6790    3.6910  -28.0420 O   0  0  0  0  0  0
   -5.9964    3.4571  -21.4361 H   0  0  0  0  0  0
   -6.4284    3.7806  -23.8352 H   0  0  0  0  0  0
    5.5826    4.1924  -21.2730 H   0  0  0  0  0  0
    6.8508    3.2513  -20.3710 H   0  0  0  0  0  0
    6.4308    2.9542  -24.6291 H   0  0  0  0  0  0
    6.1069    4.4726  -23.7312 H   0  0  0  0  0  0
   -5.5756    3.8907  -26.1787 H   0  0  0  0  0  0
    2.3812    1.8654  -24.7679 H   0  0  0  0  0  0
    3.2198    1.4621  -22.8569 H   0  0  0  0  0  0
    4.4739    0.8708  -24.0125 H   0  0  0  0  0  0
    4.9873    0.2010  -21.6559 H   0  0  0  0  0  0
    7.7991    3.1128  -22.5182 H   0  0  0  0  0  0
    4.1072    2.6710  -20.8138 H   0  0  0  0  0  0
    5.4027    1.7024  -19.9096 H   0  0  0  0  0  0
   -1.4003    3.5430  -26.9966 H   0  0  0  0  0  0
    0.4137    2.1661  -20.8771 H   0  0  0  0  0  0
    7.2479    0.8588  -21.7414 H   0  0  0  0  0  0
   -2.8217    3.6346  -28.4474 H   0  0  0  0  0  0
    6.4050    7.9430  -21.4420 O   0  5  0  0  0  0
    6.5560    9.8680  -20.2260 O   0  0  0  0  0  0
    3.8810    7.4480  -20.8280 N   0  3  0  0  0  0
    3.5800    7.4810  -22.3040 C   0  0  0  0  0  0
    4.4780    8.7070  -20.2640 C   0  0  0  0  0  0
    5.9230    8.8510  -20.6790 C   0  0  0  0  0  0
    4.4924    6.6715  -20.6299 H   0  0  0  0  0  0
    3.0392    7.2231  -20.3211 H   0  0  0  0  0  0
    4.4902    7.7561  -22.8571 H   0  0  0  0  0  0
    2.8188    8.2492  -22.5051 H   0  0  0  0  0  0
    4.4130    8.6840  -19.1662 H   0  0  0  0  0  0
    3.9061    9.5758  -20.6219 H   0  0  0  0  0  0
  1  2  2  0  0  0
  1  3  1  0  0  0
  1 34  1  0  0  0
  2  6  1  0  0  0
  2 35  1  0  0  0
  3  5  2  0  0  0
  3 27  1  0  0  0
  4  5  1  0  0  0
  4  6  2  0  0  0
  4 18  1  0  0  0
  5 24  1  0  0  0
  6 10  1  0  0  0
  7 10  2  0  0  0
  7 23  1  0  0  0
  7 33  1  0  0  0
  8 21  1  0  0  0
  8 22  1  0  0  0
  8 36  1  0  0  0
  8 37  1  0  0  0
  9 21  1  0  0  0
  9 31  1  0  0  0
  9 38  1  0  0  0
  9 39  1  0  0  0
 10 40  1  0  0  0
 11 12  1  0  0  0
 11 14  2  0  0  0
 11 15  1  0  0  0
 12 17  1  0  0  0
 12 28  2  0  0  0
 13 28  1  0  0  0
 13 29  2  0  0  0
 13 55  1  0  0  0
 14 29  1  0  0  0
 14 31  1  0  0  0
 15 30  2  0  0  0
 15 41  1  0  0  0
 16 17  2  0  0  0
 16 18  1  0  0  0
 16 30  1  0  0  0
 17 26  1  0  0  0
 18 23  2  0  0  0
 19 20  1  0  0  0
 19 31  1  0  0  0
 19 42  1  0  0  0
 19 43  1  0  0  0
 20 22  1  0  0  0
 20 32  1  0  0  0
 20 44  1  0  0  0
 21 32  1  0  0  0
 21 45  1  0  0  0
 22 46  1  0  0  0
 22 47  1  0  0  0
 23 48  1  0  0  0
 24 25  3  0  0  0
 25 49  1  0  0  0
 32 50  1  0  0  0
 33 51  1  0  0  0
 52 57  1  0  0  0
 53 57  2  0  0  0
 54 55  1  0  0  0
 54 56  1  0  0  0
 54 58  1  0  0  0
 54 59  1  0  0  0
 55 60  1  0  0  0
 55 61  1  0  0  0
 56 57  1  0  0  0
 56 62  1  0  0  0
 56 63  1  0  0  0
M  CHG  2  52  -1  54   1
M  END
> <s_m_entry_id>
533

> <s_m_entry_name>
000000533.1

> <s_m_Source_Path>
/Users/zaksoul/Documents/2

> <s_m_Source_File>
000000533.mol2

> <i_m_Source_File_Index>
1

$$$$
No_0_557
                    3D
 Schrodinger Suite 2022-4.
 63 68  0  0  1  0            999 V2000
   -5.4390    3.3970  -22.1000 C   0  0  0  0  0  0
   -5.6780    3.5780  -23.4420 C   0  0  0  0  0  0
   -4.2020    3.1820  -21.7290 C   0  0  0  0  0  0
   -3.2620    3.3370  -23.8720 C   0  0  0  0  0  0
   -3.1290    3.0970  -22.4480 C   0  0  0  0  0  0
   -4.6040    3.5580  -24.4260 C   0  0  0  0  0  0
   -3.7960    3.6040  -26.6050 C   0  0  0  0  0  0
    5.8190    3.1680  -21.1030 C   0  0  0  0  0  0
    5.7390    3.3070  -23.6550 C   0  0  0  0  0  0
   -4.8260    3.6780  -25.7670 C   0  0  0  0  0  0
    1.9400    3.7380  -23.7650 C   0  0  0  0  0  0
    1.0790    4.8200  -23.4860 C   0  0  0  0  0  0
    2.8220    6.0710  -22.7630 C   0  0  0  0  0  0
    3.3260    3.9720  -23.4180 C   0  0  0  0  0  0
    1.4450    2.6050  -24.4390 C   0  0  0  0  0  0
   -0.7080    3.3520  -24.3810 C   0  0  0  0  0  0
   -0.2340    4.5880  -23.7690 C   0  0  0  0  0  0
   -2.1520    3.3130  -24.7710 C   0  0  0  0  0  0
    4.0010    1.4930  -23.1100 C   0  0  0  0  0  0
    4.9170    1.1660  -21.9410 C   0  0  2  0  0  0
    6.4740    2.7550  -22.4390 C   0  0  2  0  0  0
    4.8400    2.1660  -20.7750 C   0  0  0  0  0  0
   -2.4470    3.4640  -26.2060 C   0  0  0  0  0  0
   -1.7870    2.7250  -21.8160 C   0  0  0  0  0  0
   -0.7590    2.4090  -21.2850 C   0  0  0  0  0  0
   -1.1160    5.6060  -23.4460 F   0  0  0  0  0  0
   -4.0180    2.9450  -20.3420 F   0  0  0  0  0  0
    1.5060    5.9930  -22.9430 N   0  0  0  0  0  0
    3.7530    5.1360  -22.9610 N   0  0  0  0  0  0
    0.1500    2.4750  -24.7760 N   0  0  0  0  0  0
    4.2800    2.9530  -23.5720 N   0  0  0  0  0  0
    6.3320    1.2770  -22.3890 N   0  0  1  0  0  0
   -3.9350    3.6140  -27.9980 O   0  0  0  0  0  0
   -6.2597    3.4352  -21.3928 H   0  0  0  0  0  0
   -6.6900    3.7416  -23.7944 H   0  0  0  0  0  0
    5.3204    4.1410  -21.2241 H   0  0  0  0  0  0
    6.5858    3.2013  -20.3150 H   0  0  0  0  0  0
    6.1691    2.8749  -24.5706 H   0  0  0  0  0  0
    5.8490    4.4011  -23.6843 H   0  0  0  0  0  0
   -5.8326    3.8326  -26.1383 H   0  0  0  0  0  0
    2.1162    1.7964  -24.7049 H   0  0  0  0  0  0
    2.9522    1.4052  -22.7900 H   0  0  0  0  0  0
    4.2049    0.8015  -23.9408 H   0  0  0  0  0  0
    4.7151    0.1473  -21.5785 H   0  0  0  0  0  0
    7.5348    3.0454  -22.4592 H   0  0  0  0  0  0
    3.8410    2.6261  -20.7558 H   0  0  0  0  0  0
    5.1326    1.6606  -19.8428 H   0  0  0  0  0  0
   -1.6583    3.4680  -26.9496 H   0  0  0  0  0  0
    0.1461    2.1300  -20.8180 H   0  0  0  0  0  0
    6.9778    0.7991  -21.6673 H   0  0  0  0  0  0
   -3.0778    3.5526  -28.4029 H   0  0  0  0  0  0
    6.2330    8.0350  -21.9190 O   0  5  0  0  0  0
    6.4950    9.8950  -20.6230 O   0  0  0  0  0  0
    3.8990    7.3330  -20.8900 N   0  3  0  0  0  0
    3.3280    7.4260  -22.2810 C   0  0  0  0  0  0
    4.5170    8.5970  -20.3610 C   0  0  0  0  0  0
    5.8490    8.8630  -21.0210 C   0  0  0  0  0  0
    4.5798    6.5903  -20.8590 H   0  0  0  0  0  0
    3.1808    7.0219  -20.2548 H   0  0  0  0  0  0
    4.1018    7.7939  -22.9708 H   0  0  0  0  0  0
    2.4999    8.1501  -22.2890 H   0  0  0  0  0  0
    4.6580    8.5080  -19.2737 H   0  0  0  0  0  0
    3.8388    9.4422  -20.5500 H   0  0  0  0  0  0
  1  2  2  0  0  0
  1  3  1  0  0  0
  1 34  1  0  0  0
  2  6  1  0  0  0
  2 35  1  0  0  0
  3  5  2  0  0  0
  3 27  1  0  0  0
  4  5  1  0  0  0
  4  6  2  0  0  0
  4 18  1  0  0  0
  5 24  1  0  0  0
  6 10  1  0  0  0
  7 10  2  0  0  0
  7 23  1  0  0  0
  7 33  1  0  0  0
  8 21  1  0  0  0
  8 22  1  0  0  0
  8 36  1  0  0  0
  8 37  1  0  0  0
  9 21  1  0  0  0
  9 31  1  0  0  0
  9 38  1  0  0  0
  9 39  1  0  0  0
 10 40  1  0  0  0
 11 12  1  0  0  0
 11 14  2  0  0  0
 11 15  1  0  0  0
 12 17  1  0  0  0
 12 28  2  0  0  0
 13 28  1  0  0  0
 13 29  2  0  0  0
 13 55  1  0  0  0
 14 29  1  0  0  0
 14 31  1  0  0  0
 15 30  2  0  0  0
 15 41  1  0  0  0
 16 17  2  0  0  0
 16 18  1  0  0  0
 16 30  1  0  0  0
 17 26  1  0  0  0
 18 23  2  0  0  0
 19 20  1  0  0  0
 19 31  1  0  0  0
 19 42  1  0  0  0
 19 43  1  0  0  0
 20 22  1  0  0  0
 20 32  1  0  0  0
 20 44  1  0  0  0
 21 32  1  0  0  0
 21 45  1  0  0  0
 22 46  1  0  0  0
 22 47  1  0  0  0
 23 48  1  0  0  0
 24 25  3  0  0  0
 25 49  1  0  0  0
 32 50  1  0  0  0
 33 51  1  0  0  0
 52 57  1  0  0  0
 53 57  2  0  0  0
 54 55  1  0  0  0
 54 56  1  0  0  0
 54 58  1  0  0  0
 54 59  1  0  0  0
 55 60  1  0  0  0
 55 61  1  0  0  0
 56 57  1  0  0  0
 56 62  1  0  0  0
 56 63  1  0  0  0
M  CHG  2  52  -1  54   1
M  END
> <s_m_entry_id>
534

> <s_m_entry_name>
000000534.1

> <s_m_Source_Path>
/Users/zaksoul/Documents/2

> <s_m_Source_File>
000000534.mol2

> <i_m_Source_File_Index>
1

$$$$
No_0_558
                    3D
 Schrodinger Suite 2022-4.
 63 68  0  0  1  0            999 V2000
   -5.2900    3.5270  -22.2080 C   0  0  0  0  0  0
   -5.5310    3.7320  -23.5460 C   0  0  0  0  0  0
   -4.0600    3.2570  -21.8490 C   0  0  0  0  0  0
   -3.1310    3.3950  -23.9980 C   0  0  0  0  0  0
   -2.9970    3.1350  -22.5770 C   0  0  0  0  0  0
   -4.4660    3.6770  -24.5390 C   0  0  0  0  0  0
   -3.6740    3.7120  -26.7240 C   0  0  0  0  0  0
    5.9560    2.8200  -21.3020 C   0  0  0  0  0  0
    5.8620    2.9890  -23.8520 C   0  0  0  0  0  0
   -4.6930    3.8200  -25.8770 C   0  0  0  0  0  0
    2.0840    3.5780  -23.9280 C   0  0  0  0  0  0
    1.2700    4.6930  -23.6310 C   0  0  0  0  0  0
    3.0700    5.8620  -22.9090 C   0  0  0  0  0  0
    3.4810    3.7500  -23.5890 C   0  0  0  0  0  0
    1.5370    2.4730  -24.6090 C   0  0  0  0  0  0
   -0.5830    3.3090  -24.5270 C   0  0  0  0  0  0
   -0.0530    4.5180  -23.9070 C   0  0  0  0  0  0
   -2.0290    3.3340  -24.9050 C   0  0  0  0  0  0
    4.0550    1.2430  -23.3120 C   0  0  0  0  0  0
    4.9650    0.8660  -22.1530 C   0  0  2  0  0  0
    6.5830    2.3940  -22.6470 C   0  0  2  0  0  0
    4.9380    1.8560  -20.9760 C   0  0  0  0  0  0
   -2.3280    3.5110  -26.3370 C   0  0  0  0  0  0
   -1.6680    2.7010  -21.9600 C   0  0  0  0  0  0
   -0.6500    2.3370  -21.4410 C   0  0  0  0  0  0
   -0.8890    5.5680  -23.5660 F   0  0  0  0  0  0
   -3.8760    2.9990  -20.4660 F   0  0  0  0  0  0
    1.7510    5.8410  -23.0800 N   0  0  0  0  0  0
    3.9590    4.8920  -23.1240 N   0  0  0  0  0  0
    0.2360    2.4010  -24.9370 N   0  0  0  0  0  0
    4.3910    2.6940  -23.7610 N   0  0  0  0  0  0
    6.3800    0.9220  -22.6110 N   0  0  1  0  0  0
   -3.8230    3.7420  -28.1160 O   0  0  0  0  0  0
   -6.1032    3.5923  -21.4942 H   0  0  0  0  0  0
   -6.5378    3.9408  -23.8893 H   0  0  0  0  0  0
    5.4978    3.8142  -21.4100 H   0  0  0  0  0  0
    6.7287    2.8139  -20.5192 H   0  0  0  0  0  0
    6.2679    2.5488  -24.7748 H   0  0  0  0  0  0
    6.0175    4.0778  -23.8712 H   0  0  0  0  0  0
   -5.6954    4.0197  -26.2382 H   0  0  0  0  0  0
    2.1721    1.6403  -24.8889 H   0  0  0  0  0  0
    3.0061    1.1946  -22.9842 H   0  0  0  0  0  0
    4.2236    0.5516  -24.1508 H   0  0  0  0  0  0
    4.7238   -0.1471  -21.7988 H   0  0  0  0  0  0
    7.6548    2.6402  -22.6732 H   0  0  0  0  0  0
    3.9594    2.3574  -20.9447 H   0  0  0  0  0  0
    5.2167    1.3299  -20.0510 H   0  0  0  0  0  0
   -1.5457    3.4909  -27.0871 H   0  0  0  0  0  0
    0.2461    2.0163  -20.9835 H   0  0  0  0  0  0
    7.0102    0.4106  -21.8984 H   0  0  0  0  0  0
   -2.9719    3.6490  -28.5277 H   0  0  0  0  0  0
    6.4630    8.0270  -22.9110 O   0  5  0  0  0  0
    7.0400    9.7300  -21.5050 O   0  0  0  0  0  0
    4.6350    6.9810  -21.3110 N   0  3  0  0  0  0
    3.6350    7.1900  -22.4180 C   0  0  0  0  0  0
    5.3270    8.2240  -20.8240 C   0  0  0  0  0  0
    6.3530    8.6980  -21.8260 C   0  0  0  0  0  0
    5.3260    6.3100  -21.6080 H   0  0  0  0  0  0
    4.1818    6.5268  -20.5336 H   0  0  0  0  0  0
    4.1198    7.7128  -23.2557 H   0  0  0  0  0  0
    2.8145    7.8264  -22.0548 H   0  0  0  0  0  0
    5.8212    8.0159  -19.8636 H   0  0  0  0  0  0
    4.5822    9.0167  -20.6601 H   0  0  0  0  0  0
  1  2  2  0  0  0
  1  3  1  0  0  0
  1 34  1  0  0  0
  2  6  1  0  0  0
  2 35  1  0  0  0
  3  5  2  0  0  0
  3 27  1  0  0  0
  4  5  1  0  0  0
  4  6  2  0  0  0
  4 18  1  0  0  0
  5 24  1  0  0  0
  6 10  1  0  0  0
  7 10  2  0  0  0
  7 23  1  0  0  0
  7 33  1  0  0  0
  8 21  1  0  0  0
  8 22  1  0  0  0
  8 36  1  0  0  0
  8 37  1  0  0  0
  9 21  1  0  0  0
  9 31  1  0  0  0
  9 38  1  0  0  0
  9 39  1  0  0  0
 10 40  1  0  0  0
 11 12  1  0  0  0
 11 14  2  0  0  0
 11 15  1  0  0  0
 12 17  1  0  0  0
 12 28  2  0  0  0
 13 28  1  0  0  0
 13 29  2  0  0  0
 13 55  1  0  0  0
 14 29  1  0  0  0
 14 31  1  0  0  0
 15 30  2  0  0  0
 15 41  1  0  0  0
 16 17  2  0  0  0
 16 18  1  0  0  0
 16 30  1  0  0  0
 17 26  1  0  0  0
 18 23  2  0  0  0
 19 20  1  0  0  0
 19 31  1  0  0  0
 19 42  1  0  0  0
 19 43  1  0  0  0
 20 22  1  0  0  0
 20 32  1  0  0  0
 20 44  1  0  0  0
 21 32  1  0  0  0
 21 45  1  0  0  0
 22 46  1  0  0  0
 22 47  1  0  0  0
 23 48  1  0  0  0
 24 25  3  0  0  0
 25 49  1  0  0  0
 32 50  1  0  0  0
 33 51  1  0  0  0
 52 57  1  0  0  0
 53 57  2  0  0  0
 54 55  1  0  0  0
 54 56  1  0  0  0
 54 58  1  0  0  0
 54 59  1  0  0  0
 55 60  1  0  0  0
 55 61  1  0  0  0
 56 57  1  0  0  0
 56 62  1  0  0  0
 56 63  1  0  0  0
M  CHG  2  52  -1  54   1
M  END
> <s_m_entry_id>
535

> <s_m_entry_name>
000000535.1

> <s_m_Source_Path>
/Users/zaksoul/Documents/2

> <s_m_Source_File>
000000535.mol2

> <i_m_Source_File_Index>
1

$$$$
No_0_559
                    3D
 Schrodinger Suite 2022-4.
 63 68  0  0  1  0            999 V2000
   -5.2440    3.5140  -22.1690 C   0  0  0  0  0  0
   -5.4630    3.7400  -23.5070 C   0  0  0  0  0  0
   -4.0120    3.2900  -21.7870 C   0  0  0  0  0  0
   -3.0400    3.5220  -23.9090 C   0  0  0  0  0  0
   -2.9280    3.2330  -22.4920 C   0  0  0  0  0  0
   -4.3740    3.7580  -24.4750 C   0  0  0  0  0  0
   -3.5340    3.8820  -26.6390 C   0  0  0  0  0  0
    5.9980    3.2860  -21.0080 C   0  0  0  0  0  0
    5.9560    3.5140  -23.5550 C   0  0  0  0  0  0
   -4.5770    3.9230  -25.8150 C   0  0  0  0  0  0
    2.1580    3.9360  -23.7080 C   0  0  0  0  0  0
    1.2880    5.0050  -23.4050 C   0  0  0  0  0  0
    3.0160    6.2350  -22.6130 C   0  0  0  0  0  0
    3.5380    4.1620  -23.3320 C   0  0  0  0  0  0
    1.6780    2.8250  -24.4280 C   0  0  0  0  0  0
   -0.4790    3.5630  -24.3770 C   0  0  0  0  0  0
   -0.0190    4.7780  -23.7160 C   0  0  0  0  0  0
   -1.9160    3.5330  -24.7900 C   0  0  0  0  0  0
    4.2170    1.6770  -23.1000 C   0  0  0  0  0  0
    5.1170    1.3120  -21.9290 C   0  0  2  0  0  0
    6.6750    2.9230  -22.3470 C   0  0  2  0  0  0
    5.0180    2.2710  -20.7300 C   0  0  0  0  0  0
   -2.1900    3.7320  -26.2240 C   0  0  0  0  0  0
   -1.5950    2.8440  -21.8530 C   0  0  0  0  0  0
   -0.5730    2.5130  -21.3180 C   0  0  0  0  0  0
   -0.9100    5.7820  -23.3720 F   0  0  0  0  0  0
   -3.8480    3.0060  -20.4060 F   0  0  0  0  0  0
    1.7040    6.1600  -22.8160 N   0  0  0  0  0  0
    3.9530    5.3110  -22.8280 N   0  0  0  0  0  0
    0.3880    2.7030  -24.7900 N   0  0  0  0  0  0
    4.4980    3.1520  -23.5060 N   0  0  0  0  0  0
    6.5380    1.4430  -22.3510 N   0  0  1  0  0  0
   -3.6520    3.9390  -28.0330 O   0  0  0  0  0  0
   -6.0757    3.5250  -21.4739 H   0  0  0  0  0  0
   -6.4699    3.9127  -23.8694 H   0  0  0  0  0  0
    5.4987    4.2614  -21.1038 H   0  0  0  0  0  0
    6.7528    3.2961  -20.2078 H   0  0  0  0  0  0
    6.4020    3.1155  -24.4782 H   0  0  0  0  0  0
    6.0630    4.6087  -23.5449 H   0  0  0  0  0  0
   -5.5788    4.0866  -26.1954 H   0  0  0  0  0  0
    2.3556    2.0280  -24.7121 H   0  0  0  0  0  0
    3.1640    1.5740  -22.7991 H   0  0  0  0  0  0
    4.4370    1.0140  -23.9497 H   0  0  0  0  0  0
    4.9132    0.2810  -21.6042 H   0  0  0  0  0  0
    7.7351    3.2165  -22.3420 H   0  0  0  0  0  0
    4.0168    2.7262  -20.7098 H   0  0  0  0  0  0
    5.2986    1.7350  -19.8114 H   0  0  0  0  0  0
   -1.3905    3.7641  -26.9553 H   0  0  0  0  0  0
    0.3258    2.2221  -20.8461 H   0  0  0  0  0  0
    7.1741    0.9427  -21.6358 H   0  0  0  0  0  0
   -2.7885    3.8945  -28.4266 H   0  0  0  0  0  0
    6.0490    8.8530  -23.0030 O   0  5  0  0  0  0
    6.7020   10.4720  -21.5320 O   0  0  0  0  0  0
    4.7380    7.4020  -21.2220 N   0  3  0  0  0  0
    3.5100    7.5750  -22.0770 C   0  0  0  0  0  0
    5.3630    8.6760  -20.7270 C   0  0  0  0  0  0
    6.0910    9.3890  -21.8400 C   0  0  0  0  0  0
    5.4255    6.8694  -21.7316 H   0  0  0  0  0  0
    4.5159    6.8117  -20.4357 H   0  0  0  0  0  0
    3.7410    8.2429  -22.9199 H   0  0  0  0  0  0
    2.7141    8.0480  -21.4830 H   0  0  0  0  0  0
    6.0699    8.4460  -19.9162 H   0  0  0  0  0  0
    4.5806    9.3335  -20.3203 H   0  0  0  0  0  0
  1  2  2  0  0  0
  1  3  1  0  0  0
  1 34  1  0  0  0
  2  6  1  0  0  0
  2 35  1  0  0  0
  3  5  2  0  0  0
  3 27  1  0  0  0
  4  5  1  0  0  0
  4  6  2  0  0  0
  4 18  1  0  0  0
  5 24  1  0  0  0
  6 10  1  0  0  0
  7 10  2  0  0  0
  7 23  1  0  0  0
  7 33  1  0  0  0
  8 21  1  0  0  0
  8 22  1  0  0  0
  8 36  1  0  0  0
  8 37  1  0  0  0
  9 21  1  0  0  0
  9 31  1  0  0  0
  9 38  1  0  0  0
  9 39  1  0  0  0
 10 40  1  0  0  0
 11 12  1  0  0  0
 11 14  2  0  0  0
 11 15  1  0  0  0
 12 17  1  0  0  0
 12 28  2  0  0  0
 13 28  1  0  0  0
 13 29  2  0  0  0
 13 55  1  0  0  0
 14 29  1  0  0  0
 14 31  1  0  0  0
 15 30  2  0  0  0
 15 41  1  0  0  0
 16 17  2  0  0  0
 16 18  1  0  0  0
 16 30  1  0  0  0
 17 26  1  0  0  0
 18 23  2  0  0  0
 19 20  1  0  0  0
 19 31  1  0  0  0
 19 42  1  0  0  0
 19 43  1  0  0  0
 20 22  1  0  0  0
 20 32  1  0  0  0
 20 44  1  0  0  0
 21 32  1  0  0  0
 21 45  1  0  0  0
 22 46  1  0  0  0
 22 47  1  0  0  0
 23 48  1  0  0  0
 24 25  3  0  0  0
 25 49  1  0  0  0
 32 50  1  0  0  0
 33 51  1  0  0  0
 52 57  1  0  0  0
 53 57  2  0  0  0
 54 55  1  0  0  0
 54 56  1  0  0  0
 54 58  1  0  0  0
 54 59  1  0  0  0
 55 60  1  0  0  0
 55 61  1  0  0  0
 56 57  1  0  0  0
 56 62  1  0  0  0
 56 63  1  0  0  0
M  CHG  2  52  -1  54   1
M  END
> <s_m_entry_id>
536

> <s_m_entry_name>
000000536.1

> <s_m_Source_Path>
/Users/zaksoul/Documents/2

> <s_m_Source_File>
000000536.mol2

> <i_m_Source_File_Index>
1

$$$$
No_0_560
                    3D
 Schrodinger Suite 2022-4.
 63 68  0  0  1  0            999 V2000
   -5.0820    3.1620  -21.9950 C   0  0  0  0  0  0
   -5.3280    3.3930  -23.3280 C   0  0  0  0  0  0
   -3.8390    2.9740  -21.6320 C   0  0  0  0  0  0
   -2.9060    3.2540  -23.7660 C   0  0  0  0  0  0
   -2.7640    2.9570  -22.3530 C   0  0  0  0  0  0
   -4.2550    3.4520  -24.3110 C   0  0  0  0  0  0
   -3.4500    3.6200  -26.4850 C   0  0  0  0  0  0
    6.1770    3.2780  -20.9970 C   0  0  0  0  0  0
    6.0910    3.5240  -23.5410 C   0  0  0  0  0  0
   -4.4820    3.6220  -25.6460 C   0  0  0  0  0  0
    2.2800    3.8280  -23.6360 C   0  0  0  0  0  0
    1.3810    4.8680  -23.3120 C   0  0  0  0  0  0
    3.0810    6.1450  -22.5340 C   0  0  0  0  0  0
    3.6570    4.0940  -23.2780 C   0  0  0  0  0  0
    1.8240    2.7090  -24.3590 C   0  0  0  0  0  0
   -0.3540    3.3790  -24.2710 C   0  0  0  0  0  0
    0.0770    4.6020  -23.6060 C   0  0  0  0  0  0
   -1.7960    3.3070  -24.6640 C   0  0  0  0  0  0
    4.4170    1.6300  -23.0770 C   0  0  0  0  0  0
    5.3440    1.2840  -21.9220 C   0  0  2  0  0  0
    6.8460    2.9460  -22.3490 C   0  0  2  0  0  0
    5.2330    2.2290  -20.7140 C   0  0  0  0  0  0
   -2.0970    3.5090  -26.0920 C   0  0  0  0  0  0
   -1.4100    2.6050  -21.7370 C   0  0  0  0  0  0
   -0.3710    2.3020  -21.2190 C   0  0  0  0  0  0
   -0.8390    5.5750  -23.2400 F   0  0  0  0  0  0
   -3.6460    2.6850  -20.2570 F   0  0  0  0  0  0
    1.7690    6.0300  -22.7190 N   0  0  0  0  0  0
    4.0430    5.2520  -22.7710 N   0  0  0  0  0  0
    0.5330    2.5500  -24.7030 N   0  0  0  0  0  0
    4.6450    3.1160  -23.4750 N   0  0  0  0  0  0
    6.7550    1.4630  -22.3630 N   0  0  1  0  0  0
   -3.5900    3.6850  -27.8770 O   0  0  0  0  0  0
   -5.9039    3.1419  -21.2885 H   0  0  0  0  0  0
   -6.3451    3.5366  -23.6744 H   0  0  0  0  0  0
    5.6460    4.2380  -21.0768 H   0  0  0  0  0  0
    6.9424    3.3043  -20.2074 H   0  0  0  0  0  0
    6.5350    3.1476  -24.4744 H   0  0  0  0  0  0
    6.1627    4.6215  -23.5238 H   0  0  0  0  0  0
   -5.4936    3.7575  -26.0113 H   0  0  0  0  0  0
    2.5219    1.9358  -24.6592 H   0  0  0  0  0  0
    3.3722    1.4917  -22.7620 H   0  0  0  0  0  0
    4.6442    0.9818  -23.9362 H   0  0  0  0  0  0
    5.1774    0.2442  -21.6040 H   0  0  0  0  0  0
    7.8962    3.2732  -22.3561 H   0  0  0  0  0  0
    4.2190    2.6538  -20.6757 H   0  0  0  0  0  0
    5.5438    1.6952  -19.8038 H   0  0  0  0  0  0
   -1.3091    3.5722  -26.8338 H   0  0  0  0  0  0
    0.5432    2.0349  -20.7629 H   0  0  0  0  0  0
    7.4161    0.9763  -21.6613 H   0  0  0  0  0  0
   -2.7317    3.6702  -28.2839 H   0  0  0  0  0  0
    5.0950    9.4510  -23.6350 O   0  5  0  0  0  0
    6.0870   11.0030  -22.2860 O   0  0  0  0  0  0
    5.0360    7.5310  -21.8170 N   0  3  0  0  0  0
    3.5400    7.4950  -21.9940 C   0  0  0  0  0  0
    5.6010    8.8550  -21.3830 C   0  0  0  0  0  0
    5.5910    9.8460  -22.5220 C   0  0  0  0  0  0
    5.4802    7.2449  -22.6754 H   0  0  0  0  0  0
    5.3111    6.8198  -21.1578 H   0  0  0  0  0  0
    3.2340    8.2909  -22.6889 H   0  0  0  0  0  0
    3.0529    7.6880  -21.0268 H   0  0  0  0  0  0
    6.6333    8.7141  -21.0302 H   0  0  0  0  0  0
    5.0059    9.2510  -20.5469 H   0  0  0  0  0  0
  1  2  2  0  0  0
  1  3  1  0  0  0
  1 34  1  0  0  0
  2  6  1  0  0  0
  2 35  1  0  0  0
  3  5  2  0  0  0
  3 27  1  0  0  0
  4  5  1  0  0  0
  4  6  2  0  0  0
  4 18  1  0  0  0
  5 24  1  0  0  0
  6 10  1  0  0  0
  7 10  2  0  0  0
  7 23  1  0  0  0
  7 33  1  0  0  0
  8 21  1  0  0  0
  8 22  1  0  0  0
  8 36  1  0  0  0
  8 37  1  0  0  0
  9 21  1  0  0  0
  9 31  1  0  0  0
  9 38  1  0  0  0
  9 39  1  0  0  0
 10 40  1  0  0  0
 11 12  1  0  0  0
 11 14  2  0  0  0
 11 15  1  0  0  0
 12 17  1  0  0  0
 12 28  2  0  0  0
 13 28  1  0  0  0
 13 29  2  0  0  0
 13 55  1  0  0  0
 14 29  1  0  0  0
 14 31  1  0  0  0
 15 30  2  0  0  0
 15 41  1  0  0  0
 16 17  2  0  0  0
 16 18  1  0  0  0
 16 30  1  0  0  0
 17 26  1  0  0  0
 18 23  2  0  0  0
 19 20  1  0  0  0
 19 31  1  0  0  0
 19 42  1  0  0  0
 19 43  1  0  0  0
 20 22  1  0  0  0
 20 32  1  0  0  0
 20 44  1  0  0  0
 21 32  1  0  0  0
 21 45  1  0  0  0
 22 46  1  0  0  0
 22 47  1  0  0  0
 23 48  1  0  0  0
 24 25  3  0  0  0
 25 49  1  0  0  0
 32 50  1  0  0  0
 33 51  1  0  0  0
 52 57  1  0  0  0
 53 57  2  0  0  0
 54 55  1  0  0  0
 54 56  1  0  0  0
 54 58  1  0  0  0
 54 59  1  0  0  0
 55 60  1  0  0  0
 55 61  1  0  0  0
 56 57  1  0  0  0
 56 62  1  0  0  0
 56 63  1  0  0  0
M  CHG  2  52  -1  54   1
M  END
> <s_m_entry_id>
537

> <s_m_entry_name>
000000537.1

> <s_m_Source_Path>
/Users/zaksoul/Documents/2

> <s_m_Source_File>
000000537.mol2

> <i_m_Source_File_Index>
1

$$$$
No_0_561
                    3D
 Schrodinger Suite 2022-4.
 63 68  0  0  1  0            999 V2000
   -5.1820    3.4830  -21.8020 C   0  0  0  0  0  0
   -5.4310    3.6820  -23.1390 C   0  0  0  0  0  0
   -3.9420    3.2670  -21.4420 C   0  0  0  0  0  0
   -3.0170    3.4550  -23.5890 C   0  0  0  0  0  0
   -2.8730    3.1960  -22.1690 C   0  0  0  0  0  0
   -4.3640    3.6790  -24.1310 C   0  0  0  0  0  0
   -3.5710    3.7580  -26.3150 C   0  0  0  0  0  0
    6.0830    3.2800  -20.8840 C   0  0  0  0  0  0
    5.9850    3.4540  -23.4330 C   0  0  0  0  0  0
   -4.5960    3.8170  -25.4690 C   0  0  0  0  0  0
    2.1840    3.8730  -23.5120 C   0  0  0  0  0  0
    1.3210    4.9490  -23.2120 C   0  0  0  0  0  0
    3.0640    6.1950  -22.4840 C   0  0  0  0  0  0
    3.5720    4.1070  -23.1710 C   0  0  0  0  0  0
    1.6880    2.7480  -24.1980 C   0  0  0  0  0  0
   -0.4670    3.4860  -24.1150 C   0  0  0  0  0  0
    0.0070    4.7150  -23.4900 C   0  0  0  0  0  0
   -1.9130    3.4480  -24.4960 C   0  0  0  0  0  0
    4.2570    1.6270  -22.9020 C   0  0  0  0  0  0
    5.1820    1.2870  -21.7440 C   0  0  2  0  0  0
    6.7310    2.8890  -22.2300 C   0  0  2  0  0  0
    5.1090    2.2700  -20.5640 C   0  0  0  0  0  0
   -2.2190    3.6170  -25.9270 C   0  0  0  0  0  0
   -1.5260    2.8200  -21.5520 C   0  0  0  0  0  0
   -0.4940    2.5000  -21.0330 C   0  0  0  0  0  0
   -0.8760    5.7260  -23.1460 F   0  0  0  0  0  0
   -3.7480    3.0120  -20.0600 F   0  0  0  0  0  0
    1.7480    6.1150  -22.6560 N   0  0  0  0  0  0
    3.9970    5.2670  -22.7010 N   0  0  0  0  0  0
    0.3910    2.6180  -24.5280 N   0  0  0  0  0  0
    4.5280    3.0940  -23.3460 N   0  0  0  0  0  0
    6.5940    1.4090  -22.2000 N   0  0  1  0  0  0
   -3.7200    3.7870  -27.7070 O   0  0  0  0  0  0
   -5.9983    3.5081  -21.0892 H   0  0  0  0  0  0
   -6.4456    3.8466  -23.4832 H   0  0  0  0  0  0
    5.5804    4.2528  -20.9890 H   0  0  0  0  0  0
    6.8550    3.3062  -20.1009 H   0  0  0  0  0  0
    6.4109    3.0371  -24.3576 H   0  0  0  0  0  0
    6.0909    4.5488  -23.4491 H   0  0  0  0  0  0
   -5.6060    3.9726  -25.8304 H   0  0  0  0  0  0
    2.3601    1.9455  -24.4799 H   0  0  0  0  0  0
    3.2109    1.5301  -22.5759 H   0  0  0  0  0  0
    4.4578    0.9478  -23.7437 H   0  0  0  0  0  0
    4.9862    0.2628  -21.3938 H   0  0  0  0  0  0
    7.7908    3.1827  -22.2542 H   0  0  0  0  0  0
    4.1090    2.7271  -20.5307 H   0  0  0  0  0  0
    5.4108    1.7542  -19.6405 H   0  0  0  0  0  0
   -1.4352    3.6341  -26.6756 H   0  0  0  0  0  0
    0.4153    2.2192  -20.5753 H   0  0  0  0  0  0
    7.2462    0.9236  -21.4890 H   0  0  0  0  0  0
   -2.8654    3.7336  -28.1185 H   0  0  0  0  0  0
    4.5860    9.6710  -23.8270 O   0  5  0  0  0  0
    5.7890   11.2200  -22.6590 O   0  0  0  0  0  0
    5.0600    7.6700  -22.1650 N   0  3  0  0  0  0
    3.5690    7.5460  -21.9870 C   0  0  0  0  0  0
    5.6440    9.0060  -21.7970 C   0  0  0  0  0  0
    5.3110   10.0450  -22.8400 C   0  0  0  0  0  0
    5.3010    7.4520  -23.1192 H   0  0  0  0  0  0
    5.5200    6.9479  -21.6330 H   0  0  0  0  0  0
    3.0658    8.3513  -22.5422 H   0  0  0  0  0  0
    3.3169    7.6620  -20.9226 H   0  0  0  0  0  0
    6.7364    8.9150  -21.7060 H   0  0  0  0  0  0
    5.2448    9.3241  -20.8226 H   0  0  0  0  0  0
  1  2  2  0  0  0
  1  3  1  0  0  0
  1 34  1  0  0  0
  2  6  1  0  0  0
  2 35  1  0  0  0
  3  5  2  0  0  0
  3 27  1  0  0  0
  4  5  1  0  0  0
  4  6  2  0  0  0
  4 18  1  0  0  0
  5 24  1  0  0  0
  6 10  1  0  0  0
  7 10  2  0  0  0
  7 23  1  0  0  0
  7 33  1  0  0  0
  8 21  1  0  0  0
  8 22  1  0  0  0
  8 36  1  0  0  0
  8 37  1  0  0  0
  9 21  1  0  0  0
  9 31  1  0  0  0
  9 38  1  0  0  0
  9 39  1  0  0  0
 10 40  1  0  0  0
 11 12  1  0  0  0
 11 14  2  0  0  0
 11 15  1  0  0  0
 12 17  1  0  0  0
 12 28  2  0  0  0
 13 28  1  0  0  0
 13 29  2  0  0  0
 13 55  1  0  0  0
 14 29  1  0  0  0
 14 31  1  0  0  0
 15 30  2  0  0  0
 15 41  1  0  0  0
 16 17  2  0  0  0
 16 18  1  0  0  0
 16 30  1  0  0  0
 17 26  1  0  0  0
 18 23  2  0  0  0
 19 20  1  0  0  0
 19 31  1  0  0  0
 19 42  1  0  0  0
 19 43  1  0  0  0
 20 22  1  0  0  0
 20 32  1  0  0  0
 20 44  1  0  0  0
 21 32  1  0  0  0
 21 45  1  0  0  0
 22 46  1  0  0  0
 22 47  1  0  0  0
 23 48  1  0  0  0
 24 25  3  0  0  0
 25 49  1  0  0  0
 32 50  1  0  0  0
 33 51  1  0  0  0
 52 57  1  0  0  0
 53 57  2  0  0  0
 54 55  1  0  0  0
 54 56  1  0  0  0
 54 58  1  0  0  0
 54 59  1  0  0  0
 55 60  1  0  0  0
 55 61  1  0  0  0
 56 57  1  0  0  0
 56 62  1  0  0  0
 56 63  1  0  0  0
M  CHG  2  52  -1  54   1
M  END
> <s_m_entry_id>
538

> <s_m_entry_name>
000000538.1

> <s_m_Source_Path>
/Users/zaksoul/Documents/2

> <s_m_Source_File>
000000538.mol2

> <i_m_Source_File_Index>
1

$$$$
No_0_562
                    3D
 Schrodinger Suite 2022-4.
 63 68  0  0  1  0            999 V2000
   -5.3980    3.0760  -21.8060 C   0  0  0  0  0  0
   -5.6600    3.3140  -23.1340 C   0  0  0  0  0  0
   -4.1540    2.8540  -21.4650 C   0  0  0  0  0  0
   -3.2510    3.1110  -23.6140 C   0  0  0  0  0  0
   -3.0920    2.8090  -22.2040 C   0  0  0  0  0  0
   -4.6030    3.3460  -24.1360 C   0  0  0  0  0  0
   -3.8310    3.4940  -26.3230 C   0  0  0  0  0  0
    5.8760    2.8890  -21.0010 C   0  0  0  0  0  0
    5.7520    3.1400  -23.5430 C   0  0  0  0  0  0
   -4.8480    3.5230  -25.4660 C   0  0  0  0  0  0
    1.9500    3.5470  -23.5730 C   0  0  0  0  0  0
    1.0850    4.6090  -23.2330 C   0  0  0  0  0  0
    2.8310    5.8400  -22.4830 C   0  0  0  0  0  0
    3.3400    3.7750  -23.2380 C   0  0  0  0  0  0
    1.4520    2.4410  -24.2880 C   0  0  0  0  0  0
   -0.7060    3.1680  -24.1620 C   0  0  0  0  0  0
   -0.2300    4.3790  -23.5050 C   0  0  0  0  0  0
   -2.1550    3.1360  -24.5300 C   0  0  0  0  0  0
    4.0370    1.2910  -23.0520 C   0  0  0  0  0  0
    4.9740    0.9200  -21.9130 C   0  0  2  0  0  0
    6.5120    2.5420  -22.3650 C   0  0  2  0  0  0
    4.9090    1.8660  -20.7030 C   0  0  0  0  0  0
   -2.4750    3.3470  -25.9530 C   0  0  0  0  0  0
   -1.7380    2.4200  -21.6110 C   0  0  0  0  0  0
   -0.6990    2.0890  -21.1120 C   0  0  0  0  0  0
   -1.1140    5.3750  -23.1220 F   0  0  0  0  0  0
   -3.9450    2.5580  -20.0930 F   0  0  0  0  0  0
    1.5140    5.7600  -22.6450 N   0  0  0  0  0  0
    3.7650    4.9220  -22.7370 N   0  0  0  0  0  0
    0.1520    2.3160  -24.6100 N   0  0  0  0  0  0
    4.2980    2.7720  -23.4530 N   0  0  0  0  0  0
    6.3810    1.0610  -22.3780 N   0  0  1  0  0  0
   -3.9940    3.5650  -27.7130 O   0  0  0  0  0  0
   -6.2079    3.0760  -21.0855 H   0  0  0  0  0  0
   -6.6785    3.4856  -23.4631 H   0  0  0  0  0  0
    5.3694    3.8628  -21.0716 H   0  0  0  0  0  0
    6.6553    2.8940  -20.2247 H   0  0  0  0  0  0
    6.1709    2.7534  -24.4838 H   0  0  0  0  0  0
    5.8539    4.2351  -23.5259 H   0  0  0  0  0  0
   -5.8616    3.6856  -25.8142 H   0  0  0  0  0  0
    2.1236    1.6499  -24.6012 H   0  0  0  0  0  0
    2.9944    1.1810  -22.7189 H   0  0  0  0  0  0
    4.2319    0.6377  -23.9153 H   0  0  0  0  0  0
    4.7853   -0.1151  -21.5922 H   0  0  0  0  0  0
    7.5704    2.8406  -22.3902 H   0  0  0  0  0  0
    3.9073    2.3169  -20.6465 H   0  0  0  0  0  0
    5.2209    1.3230  -19.7986 H   0  0  0  0  0  0
   -1.6991    3.3902  -26.7088 H   0  0  0  0  0  0
    0.2156    1.7971  -20.6722 H   0  0  0  0  0  0
    7.0416    0.5564  -21.6885 H   0  0  0  0  0  0
   -3.1430    3.5274  -28.1336 H   0  0  0  0  0  0
    2.9860    9.7480  -23.4340 O   0  5  0  0  0  0
    4.4000   11.3370  -22.6080 O   0  0  0  0  0  0
    4.4980    7.6840  -22.7630 N   0  3  0  0  0  0
    3.3360    7.1760  -21.9500 C   0  0  0  0  0  0
    5.0060    9.0460  -22.3800 C   0  0  0  0  0  0
    4.0560   10.1260  -22.8410 C   0  0  0  0  0  0
    4.2469    7.6850  -23.7392 H   0  0  0  0  0  0
    5.2549    7.0201  -22.7130 H   0  0  0  0  0  0
    2.5199    7.9131  -21.9780 H   0  0  0  0  0  0
    3.6469    7.0590  -20.9014 H   0  0  0  0  0  0
    5.9940    9.2100  -22.8350 H   0  0  0  0  0  0
    5.1200    9.1010  -21.2873 H   0  0  0  0  0  0
  1  2  2  0  0  0
  1  3  1  0  0  0
  1 34  1  0  0  0
  2  6  1  0  0  0
  2 35  1  0  0  0
  3  5  2  0  0  0
  3 27  1  0  0  0
  4  5  1  0  0  0
  4  6  2  0  0  0
  4 18  1  0  0  0
  5 24  1  0  0  0
  6 10  1  0  0  0
  7 10  2  0  0  0
  7 23  1  0  0  0
  7 33  1  0  0  0
  8 21  1  0  0  0
  8 22  1  0  0  0
  8 36  1  0  0  0
  8 37  1  0  0  0
  9 21  1  0  0  0
  9 31  1  0  0  0
  9 38  1  0  0  0
  9 39  1  0  0  0
 10 40  1  0  0  0
 11 12  1  0  0  0
 11 14  2  0  0  0
 11 15  1  0  0  0
 12 17  1  0  0  0
 12 28  2  0  0  0
 13 28  1  0  0  0
 13 29  2  0  0  0
 13 55  1  0  0  0
 14 29  1  0  0  0
 14 31  1  0  0  0
 15 30  2  0  0  0
 15 41  1  0  0  0
 16 17  2  0  0  0
 16 18  1  0  0  0
 16 30  1  0  0  0
 17 26  1  0  0  0
 18 23  2  0  0  0
 19 20  1  0  0  0
 19 31  1  0  0  0
 19 42  1  0  0  0
 19 43  1  0  0  0
 20 22  1  0  0  0
 20 32  1  0  0  0
 20 44  1  0  0  0
 21 32  1  0  0  0
 21 45  1  0  0  0
 22 46  1  0  0  0
 22 47  1  0  0  0
 23 48  1  0  0  0
 24 25  3  0  0  0
 25 49  1  0  0  0
 32 50  1  0  0  0
 33 51  1  0  0  0
 52 57  1  0  0  0
 53 57  2  0  0  0
 54 55  1  0  0  0
 54 56  1  0  0  0
 54 58  1  0  0  0
 54 59  1  0  0  0
 55 60  1  0  0  0
 55 61  1  0  0  0
 56 57  1  0  0  0
 56 62  1  0  0  0
 56 63  1  0  0  0
M  CHG  2  52  -1  54   1
M  END
> <s_m_entry_id>
539

> <s_m_entry_name>
000000539.1

> <s_m_Source_Path>
/Users/zaksoul/Documents/2

> <s_m_Source_File>
000000539.mol2

> <i_m_Source_File_Index>
1

$$$$
No_0_563
                    3D
 Schrodinger Suite 2022-4.
 63 68  0  0  1  0            999 V2000
   -5.3170    3.6600  -21.8440 C   0  0  0  0  0  0
   -5.5610    3.9100  -23.1740 C   0  0  0  0  0  0
   -4.0820    3.4010  -21.4940 C   0  0  0  0  0  0
   -3.1550    3.6360  -23.6350 C   0  0  0  0  0  0
   -3.0170    3.3260  -22.2250 C   0  0  0  0  0  0
   -4.4950    3.9130  -24.1670 C   0  0  0  0  0  0
   -3.7030    4.0440  -26.3480 C   0  0  0  0  0  0
    5.9400    3.1350  -20.9520 C   0  0  0  0  0  0
    5.8440    3.3960  -23.4940 C   0  0  0  0  0  0
   -4.7250    4.1010  -25.4990 C   0  0  0  0  0  0
    2.0560    3.9160  -23.5520 C   0  0  0  0  0  0
    1.2210    5.0030  -23.2160 C   0  0  0  0  0  0
    2.9970    6.1790  -22.4490 C   0  0  0  0  0  0
    3.4490    4.1020  -23.2060 C   0  0  0  0  0  0
    1.5300    2.8270  -24.2750 C   0  0  0  0  0  0
   -0.6050    3.6190  -24.1640 C   0  0  0  0  0  0
   -0.0990    4.8130  -23.4990 C   0  0  0  0  0  0
   -2.0520    3.6300  -24.5430 C   0  0  0  0  0  0
    4.0700    1.5980  -23.0210 C   0  0  0  0  0  0
    4.9870    1.1960  -21.8760 C   0  0  2  0  0  0
    6.5760    2.7720  -22.3120 C   0  0  2  0  0  0
    4.9410    2.1410  -20.6640 C   0  0  0  0  0  0
   -2.3540    3.8550  -25.9670 C   0  0  0  0  0  0
   -1.6790    2.8950  -21.6230 C   0  0  0  0  0  0
   -0.6550    2.5310  -21.1160 C   0  0  0  0  0  0
   -0.9550    5.8340  -23.1200 F   0  0  0  0  0  0
   -3.8940    3.0950  -20.1210 F   0  0  0  0  0  0
    1.6790    6.1390  -22.6220 N   0  0  0  0  0  0
    3.9050    5.2340  -22.6980 N   0  0  0  0  0  0
    0.2300    2.7420  -24.6070 N   0  0  0  0  0  0
    4.3790    3.0710  -23.4160 N   0  0  0  0  0  0
    6.4010    1.2960  -22.3300 N   0  0  1  0  0  0
   -3.8520    4.1230  -27.7380 O   0  0  0  0  0  0
   -6.1314    3.6831  -21.1290 H   0  0  0  0  0  0
   -6.5714    4.1127  -23.5101 H   0  0  0  0  0  0
    5.4625    4.1234  -21.0237 H   0  0  0  0  0  0
    6.7131    3.1148  -20.1698 H   0  0  0  0  0  0
    6.2579    2.9993  -24.4328 H   0  0  0  0  0  0
    5.9782    4.4876  -23.4738 H   0  0  0  0  0  0
   -5.7309    4.2948  -25.8534 H   0  0  0  0  0  0
    2.1811    2.0173  -24.5840 H   0  0  0  0  0  0
    3.0219    1.5172  -22.6969 H   0  0  0  0  0  0
    4.2527    0.9420  -23.8849 H   0  0  0  0  0  0
    4.7650    0.1659  -21.5602 H   0  0  0  0  0  0
    7.6429    3.0395  -22.3271 H   0  0  0  0  0  0
    3.9525    2.6211  -20.6146 H   0  0  0  0  0  0
    5.2295    1.5861  -19.7591 H   0  0  0  0  0  0
   -1.5713    3.8771  -26.7166 H   0  0  0  0  0  0
    0.2471    2.2110  -20.6700 H   0  0  0  0  0  0
    7.0406    0.7698  -21.6369 H   0  0  0  0  0  0
   -2.9994    4.0617  -28.1524 H   0  0  0  0  0  0
    2.8370   10.1470  -23.1060 O   0  5  0  0  0  0
    4.3140   11.7430  -22.4140 O   0  0  0  0  0  0
    4.5190    8.1200  -22.8670 N   0  3  0  0  0  0
    3.5370    7.4990  -21.9080 C   0  0  0  0  0  0
    5.0350    9.4750  -22.4720 C   0  0  0  0  0  0
    3.9800   10.5350  -22.6770 C   0  0  0  0  0  0
    4.1008    8.1760  -23.7824 H   0  0  0  0  0  0
    5.2970    7.4930  -23.0000 H   0  0  0  0  0  0
    2.7017    8.1942  -21.7379 H   0  0  0  0  0  0
    4.0311    7.3240  -20.9409 H   0  0  0  0  0  0
    5.9214    9.7198  -23.0756 H   0  0  0  0  0  0
    5.3372    9.4590  -21.4144 H   0  0  0  0  0  0
  1  2  2  0  0  0
  1  3  1  0  0  0
  1 34  1  0  0  0
  2  6  1  0  0  0
  2 35  1  0  0  0
  3  5  2  0  0  0
  3 27  1  0  0  0
  4  5  1  0  0  0
  4  6  2  0  0  0
  4 18  1  0  0  0
  5 24  1  0  0  0
  6 10  1  0  0  0
  7 10  2  0  0  0
  7 23  1  0  0  0
  7 33  1  0  0  0
  8 21  1  0  0  0
  8 22  1  0  0  0
  8 36  1  0  0  0
  8 37  1  0  0  0
  9 21  1  0  0  0
  9 31  1  0  0  0
  9 38  1  0  0  0
  9 39  1  0  0  0
 10 40  1  0  0  0
 11 12  1  0  0  0
 11 14  2  0  0  0
 11 15  1  0  0  0
 12 17  1  0  0  0
 12 28  2  0  0  0
 13 28  1  0  0  0
 13 29  2  0  0  0
 13 55  1  0  0  0
 14 29  1  0  0  0
 14 31  1  0  0  0
 15 30  2  0  0  0
 15 41  1  0  0  0
 16 17  2  0  0  0
 16 18  1  0  0  0
 16 30  1  0  0  0
 17 26  1  0  0  0
 18 23  2  0  0  0
 19 20  1  0  0  0
 19 31  1  0  0  0
 19 42  1  0  0  0
 19 43  1  0  0  0
 20 22  1  0  0  0
 20 32  1  0  0  0
 20 44  1  0  0  0
 21 32  1  0  0  0
 21 45  1  0  0  0
 22 46  1  0  0  0
 22 47  1  0  0  0
 23 48  1  0  0  0
 24 25  3  0  0  0
 25 49  1  0  0  0
 32 50  1  0  0  0
 33 51  1  0  0  0
 52 57  1  0  0  0
 53 57  2  0  0  0
 54 55  1  0  0  0
 54 56  1  0  0  0
 54 58  1  0  0  0
 54 59  1  0  0  0
 55 60  1  0  0  0
 55 61  1  0  0  0
 56 57  1  0  0  0
 56 62  1  0  0  0
 56 63  1  0  0  0
M  CHG  2  52  -1  54   1
M  END
> <s_m_entry_id>
540

> <s_m_entry_name>
000000540.1

> <s_m_Source_Path>
/Users/zaksoul/Documents/2

> <s_m_Source_File>
000000540.mol2

> <i_m_Source_File_Index>
1

$$$$
No_0_564
                    3D
 Schrodinger Suite 2022-4.
 65 70  0  0  1  0            999 V2000
   -5.0500    3.4100  -22.1080 C   0  0  0  0  0  0
   -5.3250    3.5600  -23.4460 C   0  0  0  0  0  0
   -3.8030    3.2030  -21.7650 C   0  0  0  0  0  0
   -2.9220    3.3070  -23.9360 C   0  0  0  0  0  0
   -2.7500    3.1000  -22.5110 C   0  0  0  0  0  0
   -4.2780    3.5170  -24.4580 C   0  0  0  0  0  0
   -3.5300    3.5120  -26.6590 C   0  0  0  0  0  0
    6.2310    3.1960  -21.4110 C   0  0  0  0  0  0
    6.0810    3.2760  -23.9620 C   0  0  0  0  0  0
   -4.5370    3.6060  -25.7960 C   0  0  0  0  0  0
    2.2810    3.7070  -23.9790 C   0  0  0  0  0  0
    1.4270    4.7960  -23.7030 C   0  0  0  0  0  0
    3.1900    6.0620  -23.0560 C   0  0  0  0  0  0
    3.6760    3.9480  -23.6750 C   0  0  0  0  0  0
    1.7680    2.5590  -24.6140 C   0  0  0  0  0  0
   -0.3830    3.3090  -24.5140 C   0  0  0  0  0  0
    0.1070    4.5580  -23.9450 C   0  0  0  0  0  0
   -1.8370    3.2620  -24.8640 C   0  0  0  0  0  0
    4.3590    1.4770  -23.3290 C   0  0  0  0  0  0
    5.3060    1.1760  -22.1780 C   0  0  2  0  0  0
    6.8490    2.7520  -22.7540 C   0  0  2  0  0  0
    5.2600    2.2020  -21.0340 C   0  0  0  0  0  0
   -2.1710    3.3800  -26.2940 C   0  0  0  0  0  0
   -1.3920    2.7420  -21.9080 C   0  0  0  0  0  0
   -0.3500    2.4380  -21.3980 C   0  0  0  0  0  0
   -0.7650    5.5840  -23.6210 F   0  0  0  0  0  0
   -3.5820    2.9980  -20.3790 F   0  0  0  0  0  0
    1.8700    5.9810  -23.1990 N   0  0  0  0  0  0
    4.1150    5.1220  -23.2570 N   0  0  0  0  0  0
    0.4640    2.4230  -24.9120 N   0  0  0  0  0  0
    4.6250    2.9250  -23.8320 N   0  0  0  0  0  0
    6.7090    1.2750  -22.6670 N   0  0  1  0  0  0
   -3.7070    3.4900  -28.0480 O   0  0  0  0  0  0
   -5.8513    3.4652  -21.3800 H   0  0  0  0  0  0
   -6.3458    3.7166  -23.7752 H   0  0  0  0  0  0
    5.7292    4.1662  -21.5412 H   0  0  0  0  0  0
    7.0185    3.2475  -20.6447 H   0  0  0  0  0  0
    6.4865    2.8231  -24.8788 H   0  0  0  0  0  0
    6.1900    4.3690  -24.0205 H   0  0  0  0  0  0
   -5.5537    3.7525  -26.1423 H   0  0  0  0  0  0
    2.4316    1.7438  -24.8790 H   0  0  0  0  0  0
    3.3194    1.3963  -22.9788 H   0  0  0  0  0  0
    4.5406    0.7657  -24.1482 H   0  0  0  0  0  0
    5.1143    0.1660  -21.7865 H   0  0  0  0  0  0
    7.9087    3.0414  -22.8105 H   0  0  0  0  0  0
    4.2622    2.6635  -20.9976 H   0  0  0  0  0  0
    5.5790    1.7195  -20.0983 H   0  0  0  0  0  0
   -1.4026    3.3660  -27.0584 H   0  0  0  0  0  0
    0.5673    2.1699  -20.9488 H   0  0  0  0  0  0
    7.3734    0.8139  -21.9512 H   0  0  0  0  0  0
   -2.8611    3.4178  -28.4744 H   0  0  0  0  0  0
    6.1640    8.5320  -20.5840 O   0  0  0  0  0  0
    3.3680    7.6950  -21.1780 N   0  3  0  0  0  0
    3.7550    9.0600  -20.6700 C   0  0  0  0  0  0
    3.7090    7.4280  -22.6200 C   0  0  0  0  0  0
    5.0460    9.0260  -19.8320 C   0  0  0  0  0  0
    6.9389    8.5260  -20.0344 H   0  0  0  0  0  0
    2.3795    7.5561  -21.0381 H   0  0  0  0  0  0
    3.7951    6.9899  -20.5979 H   0  0  0  0  0  0
    2.9354    9.4713  -20.0625 H   0  0  0  0  0  0
    3.8909    9.7417  -21.5226 H   0  0  0  0  0  0
    4.8007    7.4640  -22.7500 H   0  0  0  0  0  0
    3.2621    8.2089  -23.2529 H   0  0  0  0  0  0
    5.2710   10.0379  -19.4640 H   0  0  0  0  0  0
    4.8910    8.3900  -18.9480 H   0  0  0  0  0  0
  1  2  2  0  0  0
  1  3  1  0  0  0
  1 34  1  0  0  0
  2  6  1  0  0  0
  2 35  1  0  0  0
  3  5  2  0  0  0
  3 27  1  0  0  0
  4  5  1  0  0  0
  4  6  2  0  0  0
  4 18  1  0  0  0
  5 24  1  0  0  0
  6 10  1  0  0  0
  7 10  2  0  0  0
  7 23  1  0  0  0
  7 33  1  0  0  0
  8 21  1  0  0  0
  8 22  1  0  0  0
  8 36  1  0  0  0
  8 37  1  0  0  0
  9 21  1  0  0  0
  9 31  1  0  0  0
  9 38  1  0  0  0
  9 39  1  0  0  0
 10 40  1  0  0  0
 11 12  1  0  0  0
 11 14  2  0  0  0
 11 15  1  0  0  0
 12 17  1  0  0  0
 12 28  2  0  0  0
 13 28  1  0  0  0
 13 29  2  0  0  0
 13 55  1  0  0  0
 14 29  1  0  0  0
 14 31  1  0  0  0
 15 30  2  0  0  0
 15 41  1  0  0  0
 16 17  2  0  0  0
 16 18  1  0  0  0
 16 30  1  0  0  0
 17 26  1  0  0  0
 18 23  2  0  0  0
 19 20  1  0  0  0
 19 31  1  0  0  0
 19 42  1  0  0  0
 19 43  1  0  0  0
 20 22  1  0  0  0
 20 32  1  0  0  0
 20 44  1  0  0  0
 21 32  1  0  0  0
 21 45  1  0  0  0
 22 46  1  0  0  0
 22 47  1  0  0  0
 23 48  1  0  0  0
 24 25  3  0  0  0
 25 49  1  0  0  0
 32 50  1  0  0  0
 33 51  1  0  0  0
 52 56  1  0  0  0
 52 57  1  0  0  0
 53 54  1  0  0  0
 53 55  1  0  0  0
 53 58  1  0  0  0
 53 59  1  0  0  0
 54 56  1  0  0  0
 54 60  1  0  0  0
 54 61  1  0  0  0
 55 62  1  0  0  0
 55 63  1  0  0  0
 56 64  1  0  0  0
 56 65  1  0  0  0
M  CHG  1  53   1
M  END
> <s_m_entry_id>
541

> <s_m_entry_name>
000000541.1

> <s_m_Source_Path>
/Users/zaksoul/Documents/2

> <s_m_Source_File>
000000541.mol2

> <i_m_Source_File_Index>
1

$$$$
No_0_565
                    3D
 Schrodinger Suite 2022-4.
 65 70  0  0  1  0            999 V2000
   -5.2540    3.3910  -22.1280 C   0  0  0  0  0  0
   -5.5320    3.5280  -23.4680 C   0  0  0  0  0  0
   -4.0090    3.1760  -21.7870 C   0  0  0  0  0  0
   -3.1330    3.2490  -23.9620 C   0  0  0  0  0  0
   -2.9590    3.0560  -22.5350 C   0  0  0  0  0  0
   -4.4890    3.4640  -24.4820 C   0  0  0  0  0  0
   -3.7470    3.4280  -26.6850 C   0  0  0  0  0  0
    6.0260    3.0840  -21.4620 C   0  0  0  0  0  0
    5.8690    3.1370  -24.0140 C   0  0  0  0  0  0
   -4.7510    3.5410  -25.8200 C   0  0  0  0  0  0
    2.0740    3.6020  -24.0250 C   0  0  0  0  0  0
    1.2300    4.7010  -23.7580 C   0  0  0  0  0  0
    3.0060    5.9580  -23.1300 C   0  0  0  0  0  0
    3.4710    3.8330  -23.7270 C   0  0  0  0  0  0
    1.5480    2.4510  -24.6440 C   0  0  0  0  0  0
   -0.5960    3.2210  -24.5470 C   0  0  0  0  0  0
   -0.0930    4.4720  -23.9930 C   0  0  0  0  0  0
   -2.0510    3.1840  -24.8920 C   0  0  0  0  0  0
    4.1330    1.3600  -23.3550 C   0  0  0  0  0  0
    5.0810    1.0640  -22.2040 C   0  0  2  0  0  0
    6.6370    2.6200  -22.8020 C   0  0  2  0  0  0
    5.0480    2.1030  -21.0710 C   0  0  0  0  0  0
   -2.3880    3.2880  -26.3220 C   0  0  0  0  0  0
   -1.6020    2.6920  -21.9320 C   0  0  0  0  0  0
   -0.5610    2.3840  -21.4210 C   0  0  0  0  0  0
   -0.9550    5.5100  -23.6780 F   0  0  0  0  0  0
   -3.7850    2.9850  -20.3990 F   0  0  0  0  0  0
    1.6850    5.8880  -23.2680 N   0  0  0  0  0  0
    3.9220    5.0080  -23.3240 N   0  0  0  0  0  0
    0.2420    2.3230  -24.9380 N   0  0  0  0  0  0
    4.4110    2.8000  -23.8750 N   0  0  0  0  0  0
    6.4830    1.1450  -22.6970 N   0  0  1  0  0  0
   -3.9290    3.3920  -28.0730 O   0  0  0  0  0  0
   -6.0532    3.4613  -21.3991 H   0  0  0  0  0  0
   -6.5527    3.6896  -23.7952 H   0  0  0  0  0  0
    5.5324    4.0571  -21.6013 H   0  0  0  0  0  0
    6.8164    3.1375  -20.6989 H   0  0  0  0  0  0
    6.2677    2.6697  -24.9265 H   0  0  0  0  0  0
    5.9881    4.2282  -24.0847 H   0  0  0  0  0  0
   -5.7674    3.6916  -26.1655 H   0  0  0  0  0  0
    2.2034    1.6270  -24.9019 H   0  0  0  0  0  0
    3.0934    1.2934  -23.0017 H   0  0  0  0  0  0
    4.3055    0.6386  -24.1673 H   0  0  0  0  0  0
    4.8813    0.0603  -21.8005 H   0  0  0  0  0  0
    7.6993    2.8987  -22.8646 H   0  0  0  0  0  0
    4.0545    2.5740  -21.0377 H   0  0  0  0  0  0
    5.3648    1.6279  -20.1308 H   0  0  0  0  0  0
   -1.6228    3.2589  -27.0892 H   0  0  0  0  0  0
    0.3554    2.1129  -20.9718 H   0  0  0  0  0  0
    7.1460    0.6863  -21.9784 H   0  0  0  0  0  0
   -3.0852    3.3079  -28.5013 H   0  0  0  0  0  0
    6.3420    8.4590  -21.2140 O   0  0  0  0  0  0
    3.5350    7.4640  -21.2120 N   0  3  0  0  0  0
    3.9570    8.8140  -20.6930 C   0  0  0  0  0  0
    3.5380    7.3240  -22.7110 C   0  0  0  0  0  0
    5.4100    8.8150  -20.1830 C   0  0  0  0  0  0
    7.2243    8.4710  -20.8619 H   0  0  0  0  0  0
    2.6170    7.2430  -20.8590 H   0  0  0  0  0  0
    4.1248    6.7522  -20.8101 H   0  0  0  0  0  0
    3.2838    9.1201  -19.8787 H   0  0  0  0  0  0
    3.8489    9.5626  -21.4917 H   0  0  0  0  0  0
    4.5638    7.4490  -23.0879 H   0  0  0  0  0  0
    2.9119    8.1131  -23.1530 H   0  0  0  0  0  0
    5.6601    9.8123  -19.7919 H   0  0  0  0  0  0
    5.5040    8.1089  -19.3448 H   0  0  0  0  0  0
  1  2  2  0  0  0
  1  3  1  0  0  0
  1 34  1  0  0  0
  2  6  1  0  0  0
  2 35  1  0  0  0
  3  5  2  0  0  0
  3 27  1  0  0  0
  4  5  1  0  0  0
  4  6  2  0  0  0
  4 18  1  0  0  0
  5 24  1  0  0  0
  6 10  1  0  0  0
  7 10  2  0  0  0
  7 23  1  0  0  0
  7 33  1  0  0  0
  8 21  1  0  0  0
  8 22  1  0  0  0
  8 36  1  0  0  0
  8 37  1  0  0  0
  9 21  1  0  0  0
  9 31  1  0  0  0
  9 38  1  0  0  0
  9 39  1  0  0  0
 10 40  1  0  0  0
 11 12  1  0  0  0
 11 14  2  0  0  0
 11 15  1  0  0  0
 12 17  1  0  0  0
 12 28  2  0  0  0
 13 28  1  0  0  0
 13 29  2  0  0  0
 13 55  1  0  0  0
 14 29  1  0  0  0
 14 31  1  0  0  0
 15 30  2  0  0  0
 15 41  1  0  0  0
 16 17  2  0  0  0
 16 18  1  0  0  0
 16 30  1  0  0  0
 17 26  1  0  0  0
 18 23  2  0  0  0
 19 20  1  0  0  0
 19 31  1  0  0  0
 19 42  1  0  0  0
 19 43  1  0  0  0
 20 22  1  0  0  0
 20 32  1  0  0  0
 20 44  1  0  0  0
 21 32  1  0  0  0
 21 45  1  0  0  0
 22 46  1  0  0  0
 22 47  1  0  0  0
 23 48  1  0  0  0
 24 25  3  0  0  0
 25 49  1  0  0  0
 32 50  1  0  0  0
 33 51  1  0  0  0
 52 56  1  0  0  0
 52 57  1  0  0  0
 53 54  1  0  0  0
 53 55  1  0  0  0
 53 58  1  0  0  0
 53 59  1  0  0  0
 54 56  1  0  0  0
 54 60  1  0  0  0
 54 61  1  0  0  0
 55 62  1  0  0  0
 55 63  1  0  0  0
 56 64  1  0  0  0
 56 65  1  0  0  0
M  CHG  1  53   1
M  END
> <s_m_entry_id>
542

> <s_m_entry_name>
000000542.1

> <s_m_Source_Path>
/Users/zaksoul/Documents/2

> <s_m_Source_File>
000000542.mol2

> <i_m_Source_File_Index>
1

$$$$
No_0_566
                    3D
 Schrodinger Suite 2022-4.
 65 70  0  0  1  0            999 V2000
   -5.1630    3.4200  -22.2690 C   0  0  0  0  0  0
   -5.4110    3.5930  -23.6100 C   0  0  0  0  0  0
   -3.9230    3.2140  -21.9040 C   0  0  0  0  0  0
   -2.9960    3.3630  -24.0540 C   0  0  0  0  0  0
   -2.8530    3.1310  -22.6290 C   0  0  0  0  0  0
   -4.3420    3.5740  -24.6010 C   0  0  0  0  0  0
   -3.5480    3.6130  -26.7850 C   0  0  0  0  0  0
    6.1020    3.2590  -21.3370 C   0  0  0  0  0  0
    6.0060    3.3850  -23.8890 C   0  0  0  0  0  0
   -4.5730    3.6860  -25.9410 C   0  0  0  0  0  0
    2.2040    3.7940  -23.9790 C   0  0  0  0  0  0
    1.3380    4.8730  -23.7010 C   0  0  0  0  0  0
    3.0790    6.1360  -22.9940 C   0  0  0  0  0  0
    3.5910    4.0370  -23.6410 C   0  0  0  0  0  0
    1.7120    2.6540  -24.6450 C   0  0  0  0  0  0
   -0.4460    3.3900  -24.5780 C   0  0  0  0  0  0
    0.0250    4.6310  -23.9750 C   0  0  0  0  0  0
   -1.8910    3.3410  -24.9590 C   0  0  0  0  0  0
    4.2820    1.5640  -23.3250 C   0  0  0  0  0  0
    5.2060    1.2480  -22.1600 C   0  0  2  0  0  0
    6.7520    2.8430  -22.6750 C   0  0  2  0  0  0
    5.1300    2.2530  -20.9990 C   0  0  0  0  0  0
   -2.1950    3.4820  -26.3930 C   0  0  0  0  0  0
   -1.5060    2.7700  -22.0040 C   0  0  0  0  0  0
   -0.4730    2.4620  -21.4770 C   0  0  0  0  0  0
   -0.8610    5.6460  -23.6520 F   0  0  0  0  0  0
   -3.7290    2.9850  -20.5170 F   0  0  0  0  0  0
    1.7630    6.0510  -23.1660 N   0  0  0  0  0  0
    4.0130    5.2060  -23.1930 N   0  0  0  0  0  0
    0.4150    2.5160  -24.9740 N   0  0  0  0  0  0
    4.5500    3.0230  -23.7960 N   0  0  0  0  0  0
    6.6180    1.3640  -22.6170 N   0  0  1  0  0  0
   -3.6950    3.6160  -28.1770 O   0  0  0  0  0  0
   -5.9799    3.4571  -21.5574 H   0  0  0  0  0  0
   -6.4256    3.7487  -23.9586 H   0  0  0  0  0  0
    5.5975    4.2287  -21.4601 H   0  0  0  0  0  0
    6.8732    3.3014  -20.5537 H   0  0  0  0  0  0
    6.4328    2.9511  -24.8053 H   0  0  0  0  0  0
    6.1090    4.4796  -23.9254 H   0  0  0  0  0  0
   -5.5826    3.8325  -26.3073 H   0  0  0  0  0  0
    2.3858    1.8476  -24.9111 H   0  0  0  0  0  0
    3.2355    1.4712  -22.9990 H   0  0  0  0  0  0
    4.4848    0.8690  -24.1532 H   0  0  0  0  0  0
    5.0123    0.2301  -21.7908 H   0  0  0  0  0  0
    7.8108    3.1398  -22.7033 H   0  0  0  0  0  0
    4.1289    2.7082  -20.9758 H   0  0  0  0  0  0
    5.4316    1.7547  -20.0659 H   0  0  0  0  0  0
   -1.4111    3.4870  -27.1417 H   0  0  0  0  0  0
    0.4364    2.1909  -21.0138 H   0  0  0  0  0  0
    7.2703    0.8935  -21.8962 H   0  0  0  0  0  0
   -2.8399    3.5566  -28.5867 H   0  0  0  0  0  0
    6.5410    8.7470  -21.4930 O   0  0  0  0  0  0
    3.8850    7.4740  -21.0480 N   0  3  0  0  0  0
    4.3010    8.7970  -20.4600 C   0  0  0  0  0  0
    3.5800    7.4970  -22.5220 C   0  0  0  0  0  0
    5.8250    8.8930  -20.2580 C   0  0  0  0  0  0
    7.4743    8.8120  -21.3279 H   0  0  0  0  0  0
    3.0833    7.1241  -20.5472 H   0  0  0  0  0  0
    4.6010    6.7880  -20.8670 H   0  0  0  0  0  0
    3.7951    8.9430  -19.4942 H   0  0  0  0  0  0
    3.9670    9.6120  -21.1190 H   0  0  0  0  0  0
    4.4890    7.7660  -23.0800 H   0  0  0  0  0  0
    2.8142    8.2598  -22.7260 H   0  0  0  0  0  0
    6.0732    9.8636  -19.8037 H   0  0  0  0  0  0
    6.1501    8.1138  -19.5529 H   0  0  0  0  0  0
  1  2  2  0  0  0
  1  3  1  0  0  0
  1 34  1  0  0  0
  2  6  1  0  0  0
  2 35  1  0  0  0
  3  5  2  0  0  0
  3 27  1  0  0  0
  4  5  1  0  0  0
  4  6  2  0  0  0
  4 18  1  0  0  0
  5 24  1  0  0  0
  6 10  1  0  0  0
  7 10  2  0  0  0
  7 23  1  0  0  0
  7 33  1  0  0  0
  8 21  1  0  0  0
  8 22  1  0  0  0
  8 36  1  0  0  0
  8 37  1  0  0  0
  9 21  1  0  0  0
  9 31  1  0  0  0
  9 38  1  0  0  0
  9 39  1  0  0  0
 10 40  1  0  0  0
 11 12  1  0  0  0
 11 14  2  0  0  0
 11 15  1  0  0  0
 12 17  1  0  0  0
 12 28  2  0  0  0
 13 28  1  0  0  0
 13 29  2  0  0  0
 13 55  1  0  0  0
 14 29  1  0  0  0
 14 31  1  0  0  0
 15 30  2  0  0  0
 15 41  1  0  0  0
 16 17  2  0  0  0
 16 18  1  0  0  0
 16 30  1  0  0  0
 17 26  1  0  0  0
 18 23  2  0  0  0
 19 20  1  0  0  0
 19 31  1  0  0  0
 19 42  1  0  0  0
 19 43  1  0  0  0
 20 22  1  0  0  0
 20 32  1  0  0  0
 20 44  1  0  0  0
 21 32  1  0  0  0
 21 45  1  0  0  0
 22 46  1  0  0  0
 22 47  1  0  0  0
 23 48  1  0  0  0
 24 25  3  0  0  0
 25 49  1  0  0  0
 32 50  1  0  0  0
 33 51  1  0  0  0
 52 56  1  0  0  0
 52 57  1  0  0  0
 53 54  1  0  0  0
 53 55  1  0  0  0
 53 58  1  0  0  0
 53 59  1  0  0  0
 54 56  1  0  0  0
 54 60  1  0  0  0
 54 61  1  0  0  0
 55 62  1  0  0  0
 55 63  1  0  0  0
 56 64  1  0  0  0
 56 65  1  0  0  0
M  CHG  1  53   1
M  END
> <s_m_entry_id>
543

> <s_m_entry_name>
000000543.1

> <s_m_Source_Path>
/Users/zaksoul/Documents/2

> <s_m_Source_File>
000000543.mol2

> <i_m_Source_File_Index>
1

$$$$
No_0_567
                    3D
 Schrodinger Suite 2022-4.
 65 70  0  0  1  0            999 V2000
   -5.4060    3.5600  -22.3140 C   0  0  0  0  0  0
   -5.6530    3.7110  -23.6580 C   0  0  0  0  0  0
   -4.1710    3.3290  -21.9480 C   0  0  0  0  0  0
   -3.2470    3.4100  -24.1020 C   0  0  0  0  0  0
   -3.1060    3.2040  -22.6730 C   0  0  0  0  0  0
   -4.5890    3.6440  -24.6500 C   0  0  0  0  0  0
   -3.7990    3.6170  -26.8370 C   0  0  0  0  0  0
    5.8530    3.1260  -21.4050 C   0  0  0  0  0  0
    5.7530    3.2010  -23.9590 C   0  0  0  0  0  0
   -4.8200    3.7340  -25.9920 C   0  0  0  0  0  0
    1.9630    3.7070  -24.0480 C   0  0  0  0  0  0
    1.1260    4.8140  -23.7910 C   0  0  0  0  0  0
    2.9010    6.0460  -23.1140 C   0  0  0  0  0  0
    3.3570    3.9210  -23.7190 C   0  0  0  0  0  0
    1.4390    2.5670  -24.6890 C   0  0  0  0  0  0
   -0.6980    3.3600  -24.6320 C   0  0  0  0  0  0
   -0.1940    4.6010  -24.0570 C   0  0  0  0  0  0
   -2.1450    3.3400  -25.0090 C   0  0  0  0  0  0
    3.9840    1.4380  -23.3530 C   0  0  0  0  0  0
    4.9030    1.1220  -22.1830 C   0  0  2  0  0  0
    6.4880    2.6660  -22.7350 C   0  0  2  0  0  0
    4.8560    2.1530  -21.0430 C   0  0  0  0  0  0
   -2.4500    3.4600  -26.4450 C   0  0  0  0  0  0
   -1.7670    2.8210  -22.0440 C   0  0  0  0  0  0
   -0.7400    2.4970  -21.5130 C   0  0  0  0  0  0
   -1.0520    5.6450  -23.7530 F   0  0  0  0  0  0
   -3.9790    3.1250  -20.5570 F   0  0  0  0  0  0
    1.5820    5.9910  -23.2820 N   0  0  0  0  0  0
    3.8110    5.0880  -23.2960 N   0  0  0  0  0  0
    0.1390    2.4550  -25.0120 N   0  0  0  0  0  0
    4.2890    2.8790  -23.8550 N   0  0  0  0  0  0
    6.3170    1.1930  -22.6460 N   0  0  1  0  0  0
   -3.9510    3.5950  -28.2290 O   0  0  0  0  0  0
   -6.2202    3.6333  -21.6022 H   0  0  0  0  0  0
   -6.6641    3.8865  -24.0071 H   0  0  0  0  0  0
    5.3737    4.1058  -21.5473 H   0  0  0  0  0  0
    6.6268    3.1653  -20.6242 H   0  0  0  0  0  0
    6.1670    2.7376  -24.8667 H   0  0  0  0  0  0
    5.8851    4.2915  -24.0175 H   0  0  0  0  0  0
   -5.8268    3.8986  -26.3584 H   0  0  0  0  0  0
    2.0912    1.7383  -24.9398 H   0  0  0  0  0  0
    2.9366    1.3795  -23.0220 H   0  0  0  0  0  0
    4.1668    0.7210  -24.1669 H   0  0  0  0  0  0
    4.6839    0.1174  -21.7922 H   0  0  0  0  0  0
    7.5541    2.9343  -22.7723 H   0  0  0  0  0  0
    3.8670    2.6344  -21.0269 H   0  0  0  0  0  0
    5.1476    1.6666  -20.1005 H   0  0  0  0  0  0
   -1.6684    3.4289  -27.1955 H   0  0  0  0  0  0
    0.1634    2.2129  -21.0458 H   0  0  0  0  0  0
    6.9585    0.7205  -21.9169 H   0  0  0  0  0  0
   -3.0985    3.5050  -28.6384 H   0  0  0  0  0  0
    6.3820    9.0310  -22.9470 O   0  0  0  0  0  0
    4.4420    7.2450  -21.5610 N   0  3  0  0  0  0
    4.9690    8.5340  -20.9860 C   0  0  0  0  0  0
    3.4380    7.4030  -22.6730 C   0  0  0  0  0  0
    6.3710    8.8820  -21.5200 C   0  0  0  0  0  0
    7.2615    9.2441  -23.2362 H   0  0  0  0  0  0
    4.0370    6.6920  -20.8220 H   0  0  0  0  0  0
    5.2143    6.6848  -21.8861 H   0  0  0  0  0  0
    5.0030    8.4589  -19.8891 H   0  0  0  0  0  0
    4.2743    9.3527  -21.2249 H   0  0  0  0  0  0
    3.9151    7.9041  -23.5282 H   0  0  0  0  0  0
    2.6047    8.0322  -22.3269 H   0  0  0  0  0  0
    6.7201    9.8142  -21.0519 H   0  0  0  0  0  0
    7.0785    8.0915  -21.2292 H   0  0  0  0  0  0
  1  2  2  0  0  0
  1  3  1  0  0  0
  1 34  1  0  0  0
  2  6  1  0  0  0
  2 35  1  0  0  0
  3  5  2  0  0  0
  3 27  1  0  0  0
  4  5  1  0  0  0
  4  6  2  0  0  0
  4 18  1  0  0  0
  5 24  1  0  0  0
  6 10  1  0  0  0
  7 10  2  0  0  0
  7 23  1  0  0  0
  7 33  1  0  0  0
  8 21  1  0  0  0
  8 22  1  0  0  0
  8 36  1  0  0  0
  8 37  1  0  0  0
  9 21  1  0  0  0
  9 31  1  0  0  0
  9 38  1  0  0  0
  9 39  1  0  0  0
 10 40  1  0  0  0
 11 12  1  0  0  0
 11 14  2  0  0  0
 11 15  1  0  0  0
 12 17  1  0  0  0
 12 28  2  0  0  0
 13 28  1  0  0  0
 13 29  2  0  0  0
 13 55  1  0  0  0
 14 29  1  0  0  0
 14 31  1  0  0  0
 15 30  2  0  0  0
 15 41  1  0  0  0
 16 17  2  0  0  0
 16 18  1  0  0  0
 16 30  1  0  0  0
 17 26  1  0  0  0
 18 23  2  0  0  0
 19 20  1  0  0  0
 19 31  1  0  0  0
 19 42  1  0  0  0
 19 43  1  0  0  0
 20 22  1  0  0  0
 20 32  1  0  0  0
 20 44  1  0  0  0
 21 32  1  0  0  0
 21 45  1  0  0  0
 22 46  1  0  0  0
 22 47  1  0  0  0
 23 48  1  0  0  0
 24 25  3  0  0  0
 25 49  1  0  0  0
 32 50  1  0  0  0
 33 51  1  0  0  0
 52 56  1  0  0  0
 52 57  1  0  0  0
 53 54  1  0  0  0
 53 55  1  0  0  0
 53 58  1  0  0  0
 53 59  1  0  0  0
 54 56  1  0  0  0
 54 60  1  0  0  0
 54 61  1  0  0  0
 55 62  1  0  0  0
 55 63  1  0  0  0
 56 64  1  0  0  0
 56 65  1  0  0  0
M  CHG  1  53   1
M  END
> <s_m_entry_id>
544

> <s_m_entry_name>
000000544.1

> <s_m_Source_Path>
/Users/zaksoul/Documents/2

> <s_m_Source_File>
000000544.mol2

> <i_m_Source_File_Index>
1

$$$$
No_0_568
                    3D
 Schrodinger Suite 2022-4.
 65 70  0  0  1  0            999 V2000
   -5.3260    3.3460  -22.0410 C   0  0  0  0  0  0
   -5.5740    3.5230  -23.3810 C   0  0  0  0  0  0
   -4.0870    3.1240  -21.6780 C   0  0  0  0  0  0
   -3.1640    3.2620  -23.8300 C   0  0  0  0  0  0
   -3.0210    3.0270  -22.4060 C   0  0  0  0  0  0
   -4.5090    3.4910  -24.3740 C   0  0  0  0  0  0
   -3.7180    3.5210  -26.5600 C   0  0  0  0  0  0
    5.9380    3.0410  -21.1330 C   0  0  0  0  0  0
    5.8380    3.1690  -23.6850 C   0  0  0  0  0  0
   -4.7410    3.6070  -25.7140 C   0  0  0  0  0  0
    2.0420    3.6270  -23.7660 C   0  0  0  0  0  0
    1.1900    4.7170  -23.4860 C   0  0  0  0  0  0
    2.9480    5.9580  -22.7820 C   0  0  0  0  0  0
    3.4320    3.8520  -23.4310 C   0  0  0  0  0  0
    1.5330    2.4940  -24.4310 C   0  0  0  0  0  0
   -0.6140    3.2570  -24.3590 C   0  0  0  0  0  0
   -0.1270    4.4920  -23.7570 C   0  0  0  0  0  0
   -2.0610    3.2270  -24.7370 C   0  0  0  0  0  0
    4.0920    1.3710  -23.1180 C   0  0  0  0  0  0
    5.0150    1.0420  -21.9550 C   0  0  2  0  0  0
    6.5790    2.6180  -22.4730 C   0  0  2  0  0  0
    4.9540    2.0470  -20.7930 C   0  0  0  0  0  0
   -2.3670    3.3730  -26.1710 C   0  0  0  0  0  0
   -1.6770    2.6490  -21.7840 C   0  0  0  0  0  0
   -0.6470    2.3280  -21.2590 C   0  0  0  0  0  0
   -0.9990    5.5180  -23.4310 F   0  0  0  0  0  0
   -3.8940    2.8920  -20.2920 F   0  0  0  0  0  0
    1.6310    5.8890  -22.9510 N   0  0  0  0  0  0
    3.8700    5.0160  -22.9830 N   0  0  0  0  0  0
    0.2350    2.3720  -24.7580 N   0  0  0  0  0  0
    4.3780    2.8260  -23.5890 N   0  0  0  0  0  0
    6.4270    1.1410  -22.4150 N   0  0  1  0  0  0
   -3.8690    3.5260  -27.9520 O   0  0  0  0  0  0
   -6.1408    3.3922  -21.3275 H   0  0  0  0  0  0
   -6.5876    3.6916  -23.7262 H   0  0  0  0  0  0
    5.4455    4.0170  -21.2551 H   0  0  0  0  0  0
    6.7109    3.0733  -20.3510 H   0  0  0  0  0  0
    6.2579    2.7309  -24.6025 H   0  0  0  0  0  0
    5.9550    4.2622  -23.7203 H   0  0  0  0  0  0
   -5.7499    3.7656  -26.0774 H   0  0  0  0  0  0
    2.1966    1.6798  -24.6990 H   0  0  0  0  0  0
    3.0451    1.2912  -22.7899 H   0  0  0  0  0  0
    4.2846    0.6741  -23.9470 H   0  0  0  0  0  0
    4.8090    0.0262  -21.5865 H   0  0  0  0  0  0
    7.6417    2.9006  -22.5033 H   0  0  0  0  0  0
    3.9586    2.5144  -20.7678 H   0  0  0  0  0  0
    5.2516    1.5446  -19.8608 H   0  0  0  0  0  0
   -1.5846    3.3690  -26.9213 H   0  0  0  0  0  0
    0.2599    2.0450  -20.7980 H   0  0  0  0  0  0
    7.0745    0.6613  -21.6959 H   0  0  0  0  0  0
   -3.0155    3.4568  -28.3634 H   0  0  0  0  0  0
    6.1290    9.2540  -23.0380 O   0  0  0  0  0  0
    4.7130    7.1480  -21.4800 N   0  3  0  0  0  0
    5.2580    8.4210  -20.8860 C   0  0  0  0  0  0
    3.4680    7.3120  -22.3100 C   0  0  0  0  0  0
    6.4650    8.9620  -21.6740 C   0  0  0  0  0  0
    6.8965    9.5848  -23.4897 H   0  0  0  0  0  0
    4.5360    6.4848  -20.7418 H   0  0  0  0  0  0
    5.4281    6.7059  -22.0361 H   0  0  0  0  0  0
    5.5548    8.2391  -19.8425 H   0  0  0  0  0  0
    4.4645    9.1825  -20.8620 H   0  0  0  0  0  0
    3.6900    7.9431  -23.1832 H   0  0  0  0  0  0
    2.6922    7.8139  -21.7131 H   0  0  0  0  0  0
    6.8410    9.8739  -21.1871 H   0  0  0  0  0  0
    7.2802    8.2239  -21.6480 H   0  0  0  0  0  0
  1  2  2  0  0  0
  1  3  1  0  0  0
  1 34  1  0  0  0
  2  6  1  0  0  0
  2 35  1  0  0  0
  3  5  2  0  0  0
  3 27  1  0  0  0
  4  5  1  0  0  0
  4  6  2  0  0  0
  4 18  1  0  0  0
  5 24  1  0  0  0
  6 10  1  0  0  0
  7 10  2  0  0  0
  7 23  1  0  0  0
  7 33  1  0  0  0
  8 21  1  0  0  0
  8 22  1  0  0  0
  8 36  1  0  0  0
  8 37  1  0  0  0
  9 21  1  0  0  0
  9 31  1  0  0  0
  9 38  1  0  0  0
  9 39  1  0  0  0
 10 40  1  0  0  0
 11 12  1  0  0  0
 11 14  2  0  0  0
 11 15  1  0  0  0
 12 17  1  0  0  0
 12 28  2  0  0  0
 13 28  1  0  0  0
 13 29  2  0  0  0
 13 55  1  0  0  0
 14 29  1  0  0  0
 14 31  1  0  0  0
 15 30  2  0  0  0
 15 41  1  0  0  0
 16 17  2  0  0  0
 16 18  1  0  0  0
 16 30  1  0  0  0
 17 26  1  0  0  0
 18 23  2  0  0  0
 19 20  1  0  0  0
 19 31  1  0  0  0
 19 42  1  0  0  0
 19 43  1  0  0  0
 20 22  1  0  0  0
 20 32  1  0  0  0
 20 44  1  0  0  0
 21 32  1  0  0  0
 21 45  1  0  0  0
 22 46  1  0  0  0
 22 47  1  0  0  0
 23 48  1  0  0  0
 24 25  3  0  0  0
 25 49  1  0  0  0
 32 50  1  0  0  0
 33 51  1  0  0  0
 52 56  1  0  0  0
 52 57  1  0  0  0
 53 54  1  0  0  0
 53 55  1  0  0  0
 53 58  1  0  0  0
 53 59  1  0  0  0
 54 56  1  0  0  0
 54 60  1  0  0  0
 54 61  1  0  0  0
 55 62  1  0  0  0
 55 63  1  0  0  0
 56 64  1  0  0  0
 56 65  1  0  0  0
M  CHG  1  53   1
M  END
> <s_m_entry_id>
545

> <s_m_entry_name>
000000545.1

> <s_m_Source_Path>
/Users/zaksoul/Documents/2

> <s_m_Source_File>
000000545.mol2

> <i_m_Source_File_Index>
1

$$$$
No_0_569
                    3D
 Schrodinger Suite 2022-4.
 65 70  0  0  1  0            999 V2000
   -5.4130    3.1610  -22.0380 C   0  0  0  0  0  0
   -5.6780    3.3560  -23.3730 C   0  0  0  0  0  0
   -4.1670    2.9590  -21.6920 C   0  0  0  0  0  0
   -3.2680    3.1540  -23.8490 C   0  0  0  0  0  0
   -3.1060    2.8980  -22.4310 C   0  0  0  0  0  0
   -4.6220    3.3640  -24.3760 C   0  0  0  0  0  0
   -3.8540    3.4490  -26.5690 C   0  0  0  0  0  0
    5.8630    3.0750  -21.2420 C   0  0  0  0  0  0
    5.7350    3.2460  -23.7910 C   0  0  0  0  0  0
   -4.8700    3.4980  -25.7120 C   0  0  0  0  0  0
    1.9300    3.6260  -23.8280 C   0  0  0  0  0  0
    1.0580    4.6930  -23.5200 C   0  0  0  0  0  0
    2.7970    5.9580  -22.8110 C   0  0  0  0  0  0
    3.3180    3.8740  -23.5020 C   0  0  0  0  0  0
    1.4380    2.4950  -24.5080 C   0  0  0  0  0  0
   -0.7240    3.2110  -24.4020 C   0  0  0  0  0  0
   -0.2560    4.4460  -23.7830 C   0  0  0  0  0  0
   -2.1730    3.1580  -24.7670 C   0  0  0  0  0  0
    4.0320    1.4020  -23.2390 C   0  0  0  0  0  0
    4.9730    1.0720  -22.0910 C   0  0  2  0  0  0
    6.5000    2.6890  -22.5950 C   0  0  2  0  0  0
    4.9030    2.0560  -20.9110 C   0  0  0  0  0  0
   -2.4960    3.3220  -26.1950 C   0  0  0  0  0  0
   -1.7480    2.5360  -21.8280 C   0  0  0  0  0  0
   -0.7070    2.2280  -21.3190 C   0  0  0  0  0  0
   -1.1460    5.4470  -23.4310 F   0  0  0  0  0  0
   -3.9550    2.7070  -20.3120 F   0  0  0  0  0  0
    1.4800    5.8640  -22.9700 N   0  0  0  0  0  0
    3.7370    5.0390  -23.0380 N   0  0  0  0  0  0
    0.1390    2.3520  -24.8240 N   0  0  0  0  0  0
    4.2830    2.8710  -23.6870 N   0  0  0  0  0  0
    6.3790    1.2080  -22.5620 N   0  0  1  0  0  0
   -4.0180    3.4750  -27.9590 O   0  0  0  0  0  0
   -6.2223    3.1791  -21.3171 H   0  0  0  0  0  0
   -6.6979    3.5106  -23.7063 H   0  0  0  0  0  0
    5.3494    4.0426  -21.3419 H   0  0  0  0  0  0
    6.6424    3.1103  -20.4666 H   0  0  0  0  0  0
    6.1549    2.8321  -24.7197 H   0  0  0  0  0  0
    5.8298    4.3418  -23.8082 H   0  0  0  0  0  0
   -5.8852    3.6426  -26.0635 H   0  0  0  0  0  0
    2.1152    1.6994  -24.7969 H   0  0  0  0  0  0
    2.9904    1.2950  -22.9019 H   0  0  0  0  0  0
    4.2308    0.7237  -24.0818 H   0  0  0  0  0  0
    4.7913    0.0463  -21.7376 H   0  0  0  0  0  0
    7.5560    2.9949  -22.6303 H   0  0  0  0  0  0
    3.8983    2.5018  -20.8676 H   0  0  0  0  0  0
    5.2198    1.5434  -19.9908 H   0  0  0  0  0  0
   -1.7212    3.3471  -26.9527 H   0  0  0  0  0  0
    0.2102    1.9559  -20.8719 H   0  0  0  0  0  0
    7.0432    0.7299  -21.8572 H   0  0  0  0  0  0
   -3.1673    3.4305  -28.3794 H   0  0  0  0  0  0
    5.5120    9.6060  -23.4210 O   0  0  0  0  0  0
    4.7130    7.2190  -21.8290 N   0  3  0  0  0  0
    5.2720    8.4860  -21.2360 C   0  0  0  0  0  0
    3.2930    7.3140  -22.3210 C   0  0  0  0  0  0
    6.1960    9.2320  -22.2160 C   0  0  0  0  0  0
    6.1131   10.0621  -23.9981 H   0  0  0  0  0  0
    4.7820    6.4752  -21.1522 H   0  0  0  0  0  0
    5.3077    6.9142  -22.5836 H   0  0  0  0  0  0
    5.8293    8.2459  -20.3185 H   0  0  0  0  0  0
    4.4440    9.1470  -20.9400 H   0  0  0  0  0  0
    3.2380    8.0430  -23.1429 H   0  0  0  0  0  0
    2.6459    7.6680  -21.5049 H   0  0  0  0  0  0
    6.5963   10.1327  -21.7276 H   0  0  0  0  0  0
    7.0553    8.5928  -22.4671 H   0  0  0  0  0  0
  1  2  2  0  0  0
  1  3  1  0  0  0
  1 34  1  0  0  0
  2  6  1  0  0  0
  2 35  1  0  0  0
  3  5  2  0  0  0
  3 27  1  0  0  0
  4  5  1  0  0  0
  4  6  2  0  0  0
  4 18  1  0  0  0
  5 24  1  0  0  0
  6 10  1  0  0  0
  7 10  2  0  0  0
  7 23  1  0  0  0
  7 33  1  0  0  0
  8 21  1  0  0  0
  8 22  1  0  0  0
  8 36  1  0  0  0
  8 37  1  0  0  0
  9 21  1  0  0  0
  9 31  1  0  0  0
  9 38  1  0  0  0
  9 39  1  0  0  0
 10 40  1  0  0  0
 11 12  1  0  0  0
 11 14  2  0  0  0
 11 15  1  0  0  0
 12 17  1  0  0  0
 12 28  2  0  0  0
 13 28  1  0  0  0
 13 29  2  0  0  0
 13 55  1  0  0  0
 14 29  1  0  0  0
 14 31  1  0  0  0
 15 30  2  0  0  0
 15 41  1  0  0  0
 16 17  2  0  0  0
 16 18  1  0  0  0
 16 30  1  0  0  0
 17 26  1  0  0  0
 18 23  2  0  0  0
 19 20  1  0  0  0
 19 31  1  0  0  0
 19 42  1  0  0  0
 19 43  1  0  0  0
 20 22  1  0  0  0
 20 32  1  0  0  0
 20 44  1  0  0  0
 21 32  1  0  0  0
 21 45  1  0  0  0
 22 46  1  0  0  0
 22 47  1  0  0  0
 23 48  1  0  0  0
 24 25  3  0  0  0
 25 49  1  0  0  0
 32 50  1  0  0  0
 33 51  1  0  0  0
 52 56  1  0  0  0
 52 57  1  0  0  0
 53 54  1  0  0  0
 53 55  1  0  0  0
 53 58  1  0  0  0
 53 59  1  0  0  0
 54 56  1  0  0  0
 54 60  1  0  0  0
 54 61  1  0  0  0
 55 62  1  0  0  0
 55 63  1  0  0  0
 56 64  1  0  0  0
 56 65  1  0  0  0
M  CHG  1  53   1
M  END
> <s_m_entry_id>
546

> <s_m_entry_name>
000000546.1

> <s_m_Source_Path>
/Users/zaksoul/Documents/2

> <s_m_Source_File>
000000546.mol2

> <i_m_Source_File_Index>
1

$$$$
No_0_570
                    3D
 Schrodinger Suite 2022-4.
 65 70  0  0  1  0            999 V2000
   -5.4820    3.1610  -22.2200 C   0  0  0  0  0  0
   -5.6850    3.3590  -23.5660 C   0  0  0  0  0  0
   -4.2590    2.9180  -21.8210 C   0  0  0  0  0  0
   -3.2650    3.0740  -23.9390 C   0  0  0  0  0  0
   -3.1710    2.8190  -22.5150 C   0  0  0  0  0  0
   -4.5880    3.3270  -24.5240 C   0  0  0  0  0  0
   -3.7260    3.3770  -26.6820 C   0  0  0  0  0  0
    5.7410    2.7020  -20.9520 C   0  0  0  0  0  0
    5.7260    2.8660  -23.5040 C   0  0  0  0  0  0
   -4.7750    3.4640  -25.8690 C   0  0  0  0  0  0
    1.9400    3.3720  -23.7020 C   0  0  0  0  0  0
    1.0930    4.4690  -23.4340 C   0  0  0  0  0  0
    2.8420    5.6780  -22.6560 C   0  0  0  0  0  0
    3.3210    3.5760  -23.3190 C   0  0  0  0  0  0
    1.4400    2.2550  -24.3990 C   0  0  0  0  0  0
   -0.6990    3.0440  -24.3860 C   0  0  0  0  0  0
   -0.2170    4.2650  -23.7510 C   0  0  0  0  0  0
   -2.1330    3.0370  -24.8110 C   0  0  0  0  0  0
    3.9410    1.0820  -23.0190 C   0  0  0  0  0  0
    4.8210    0.7260  -21.8310 C   0  0  2  0  0  0
    6.4210    2.2890  -22.2760 C   0  0  2  0  0  0
    4.7340    1.7160  -20.6580 C   0  0  0  0  0  0
   -2.3900    3.2060  -26.2520 C   0  0  0  0  0  0
   -1.8530    2.4150  -21.8550 C   0  0  0  0  0  0
   -0.8440    2.0740  -21.3020 C   0  0  0  0  0  0
   -1.0860    5.2970  -23.4390 F   0  0  0  0  0  0
   -4.1140    2.6660  -20.4330 F   0  0  0  0  0  0
    1.5300    5.6280  -22.8700 N   0  0  0  0  0  0
    3.7590    4.7270  -22.8410 N   0  0  0  0  0  0
    0.1510    2.1540  -24.7690 N   0  0  0  0  0  0
    4.2590    2.5400  -23.4600 N   0  0  0  0  0  0
    6.2490    0.8130  -22.2430 N   0  0  1  0  0  0
   -3.8310    3.4020  -28.0780 O   0  0  0  0  0  0
   -6.3194    3.2082  -21.5332 H   0  0  0  0  0  0
   -6.6847    3.5457  -23.9414 H   0  0  0  0  0  0
    5.2648    3.6858  -21.0761 H   0  0  0  0  0  0
    6.4884    2.7141  -20.1450 H   0  0  0  0  0  0
    6.1703    2.4338  -24.4128 H   0  0  0  0  0  0
    5.8572    3.9580  -23.5201 H   0  0  0  0  0  0
   -5.7695    3.6406  -26.2624 H   0  0  0  0  0  0
    2.1016    1.4357  -24.6560 H   0  0  0  0  0  0
    2.8832    1.0114  -22.7256 H   0  0  0  0  0  0
    4.1519    0.3937  -23.8507 H   0  0  0  0  0  0
    4.5908   -0.2917  -21.4827 H   0  0  0  0  0  0
    7.4874    2.5586  -22.2679 H   0  0  0  0  0  0
    3.7440    2.1954  -20.6580 H   0  0  0  0  0  0
    4.9953    1.1974  -19.7238 H   0  0  0  0  0  0
   -1.5839    3.2020  -26.9768 H   0  0  0  0  0  0
    0.0438    1.7741  -20.8151 H   0  0  0  0  0  0
    6.8672    0.3156  -21.5103 H   0  0  0  0  0  0
   -2.9657    3.3277  -28.4631 H   0  0  0  0  0  0
    5.2290    9.5190  -23.4370 O   0  0  0  0  0  0
    4.8530    6.9710  -21.9410 N   0  3  0  0  0  0
    5.4580    8.2190  -21.3530 C   0  0  0  0  0  0
    3.3620    7.0190  -22.1500 C   0  0  0  0  0  0
    6.1450    9.0930  -22.4190 C   0  0  0  0  0  0
    5.6882   10.0533  -24.0743 H   0  0  0  0  0  0
    5.0820    6.1820  -21.3570 H   0  0  0  0  0  0
    5.3052    6.7619  -22.8173 H   0  0  0  0  0  0
    6.1900    7.9420  -20.5800 H   0  0  0  0  0  0
    4.6731    8.8039  -20.8511 H   0  0  0  0  0  0
    3.1201    7.8057  -22.8797 H   0  0  0  0  0  0
    2.8670    7.2690  -21.2000 H   0  0  0  0  0  0
    6.5910    9.9750  -21.9360 H   0  0  0  0  0  0
    6.9683    8.5278  -22.8802 H   0  0  0  0  0  0
  1  2  2  0  0  0
  1  3  1  0  0  0
  1 34  1  0  0  0
  2  6  1  0  0  0
  2 35  1  0  0  0
  3  5  2  0  0  0
  3 27  1  0  0  0
  4  5  1  0  0  0
  4  6  2  0  0  0
  4 18  1  0  0  0
  5 24  1  0  0  0
  6 10  1  0  0  0
  7 10  2  0  0  0
  7 23  1  0  0  0
  7 33  1  0  0  0
  8 21  1  0  0  0
  8 22  1  0  0  0
  8 36  1  0  0  0
  8 37  1  0  0  0
  9 21  1  0  0  0
  9 31  1  0  0  0
  9 38  1  0  0  0
  9 39  1  0  0  0
 10 40  1  0  0  0
 11 12  1  0  0  0
 11 14  2  0  0  0
 11 15  1  0  0  0
 12 17  1  0  0  0
 12 28  2  0  0  0
 13 28  1  0  0  0
 13 29  2  0  0  0
 13 55  1  0  0  0
 14 29  1  0  0  0
 14 31  1  0  0  0
 15 30  2  0  0  0
 15 41  1  0  0  0
 16 17  2  0  0  0
 16 18  1  0  0  0
 16 30  1  0  0  0
 17 26  1  0  0  0
 18 23  2  0  0  0
 19 20  1  0  0  0
 19 31  1  0  0  0
 19 42  1  0  0  0
 19 43  1  0  0  0
 20 22  1  0  0  0
 20 32  1  0  0  0
 20 44  1  0  0  0
 21 32  1  0  0  0
 21 45  1  0  0  0
 22 46  1  0  0  0
 22 47  1  0  0  0
 23 48  1  0  0  0
 24 25  3  0  0  0
 25 49  1  0  0  0
 32 50  1  0  0  0
 33 51  1  0  0  0
 52 56  1  0  0  0
 52 57  1  0  0  0
 53 54  1  0  0  0
 53 55  1  0  0  0
 53 58  1  0  0  0
 53 59  1  0  0  0
 54 56  1  0  0  0
 54 60  1  0  0  0
 54 61  1  0  0  0
 55 62  1  0  0  0
 55 63  1  0  0  0
 56 64  1  0  0  0
 56 65  1  0  0  0
M  CHG  1  53   1
M  END
> <s_m_entry_id>
547

> <s_m_entry_name>
000000547.1

> <s_m_Source_Path>
/Users/zaksoul/Documents/2

> <s_m_Source_File>
000000547.mol2

> <i_m_Source_File_Index>
1

$$$$
No_0_571
                    3D
 Schrodinger Suite 2022-4.
 65 70  0  0  1  0            999 V2000
   -5.2290    3.3410  -22.0130 C   0  0  0  0  0  0
   -5.4710    3.5270  -23.3540 C   0  0  0  0  0  0
   -3.9910    3.1270  -21.6450 C   0  0  0  0  0  0
   -3.0560    3.2910  -23.7900 C   0  0  0  0  0  0
   -2.9200    3.0460  -22.3670 C   0  0  0  0  0  0
   -4.3990    3.5120  -24.3400 C   0  0  0  0  0  0
   -3.5960    3.5670  -26.5210 C   0  0  0  0  0  0
    6.0310    3.1250  -21.0390 C   0  0  0  0  0  0
    5.9450    3.2730  -23.5900 C   0  0  0  0  0  0
   -4.6240    3.6370  -25.6810 C   0  0  0  0  0  0
    2.1460    3.6990  -23.6910 C   0  0  0  0  0  0
    1.2830    4.7790  -23.4070 C   0  0  0  0  0  0
    3.0260    6.0300  -22.6820 C   0  0  0  0  0  0
    3.5320    3.9340  -23.3460 C   0  0  0  0  0  0
    1.6510    2.5680  -24.3690 C   0  0  0  0  0  0
   -0.5030    3.3120  -24.3040 C   0  0  0  0  0  0
   -0.0300    4.5460  -23.6880 C   0  0  0  0  0  0
   -1.9470    3.2720  -24.6910 C   0  0  0  0  0  0
    4.2110    1.4550  -23.0490 C   0  0  0  0  0  0
    5.1300    1.1250  -21.8830 C   0  0  2  0  0  0
    6.6840    2.7180  -22.3780 C   0  0  2  0  0  0
    5.0530    2.1200  -20.7130 C   0  0  0  0  0  0
   -2.2460    3.4270  -26.1250 C   0  0  0  0  0  0
   -1.5760    2.6730  -21.7390 C   0  0  0  0  0  0
   -0.5470    2.3570  -21.2120 C   0  0  0  0  0  0
   -0.9130    5.5620  -23.3590 F   0  0  0  0  0  0
   -3.8040    2.8850  -20.2600 F   0  0  0  0  0  0
    1.7100    5.9510  -22.8610 N   0  0  0  0  0  0
    3.9580    5.0970  -22.8860 N   0  0  0  0  0  0
    0.3560    2.4370  -24.7040 N   0  0  0  0  0  0
    4.4870    2.9170  -23.5060 N   0  0  0  0  0  0
    6.5440    1.2390  -22.3330 N   0  0  1  0  0  0
   -3.7380    3.5820  -27.9140 O   0  0  0  0  0  0
   -6.0488    3.3751  -21.3046 H   0  0  0  0  0  0
   -6.4837    3.6906  -23.7043 H   0  0  0  0  0  0
    5.5306    4.0976  -21.1560 H   0  0  0  0  0  0
    6.7988    3.1573  -20.2520 H   0  0  0  0  0  0
    6.3740    2.8460  -24.5085 H   0  0  0  0  0  0
    6.0539    4.3673  -23.6162 H   0  0  0  0  0  0
   -5.6318    3.7906  -26.0494 H   0  0  0  0  0  0
    2.3225    1.7610  -24.6390 H   0  0  0  0  0  0
    3.1631    1.3641  -22.7270 H   0  0  0  0  0  0
    4.4148    0.7668  -23.8825 H   0  0  0  0  0  0
    4.9302    0.1047  -21.5237 H   0  0  0  0  0  0
    7.7442    3.0105  -22.3992 H   0  0  0  0  0  0
    4.0537    2.5793  -20.6898 H   0  0  0  0  0  0
    5.3495    1.6127  -19.7831 H   0  0  0  0  0  0
   -1.4592    3.4360  -26.8706 H   0  0  0  0  0  0
    0.3594    2.0782  -20.7473 H   0  0  0  0  0  0
    7.1918    0.7601  -21.6136 H   0  0  0  0  0  0
   -2.8814    3.5236  -28.3206 H   0  0  0  0  0  0
    4.7580   10.1630  -23.6660 O   0  0  0  0  0  0
    5.0220    7.4940  -22.3720 N   0  3  0  0  0  0
    5.6390    8.7610  -21.8380 C   0  0  0  0  0  0
    3.5310    7.3840  -22.1970 C   0  0  0  0  0  0
    5.9410    9.7780  -22.9540 C   0  0  0  0  0  0
    4.9849   10.7888  -24.3438 H   0  0  0  0  0  0
    5.4679    6.6992  -21.9411 H   0  0  0  0  0  0
    5.2510    7.3980  -23.3489 H   0  0  0  0  0  0
    6.5686    8.5178  -21.3026 H   0  0  0  0  0  0
    4.9589    9.2161  -21.1029 H   0  0  0  0  0  0
    3.0358    8.1852  -22.7652 H   0  0  0  0  0  0
    3.2770    7.5100  -21.1342 H   0  0  0  0  0  0
    6.4131   10.6702  -22.5169 H   0  0  0  0  0  0
    6.6667    9.3442  -23.6577 H   0  0  0  0  0  0
  1  2  2  0  0  0
  1  3  1  0  0  0
  1 34  1  0  0  0
  2  6  1  0  0  0
  2 35  1  0  0  0
  3  5  2  0  0  0
  3 27  1  0  0  0
  4  5  1  0  0  0
  4  6  2  0  0  0
  4 18  1  0  0  0
  5 24  1  0  0  0
  6 10  1  0  0  0
  7 10  2  0  0  0
  7 23  1  0  0  0
  7 33  1  0  0  0
  8 21  1  0  0  0
  8 22  1  0  0  0
  8 36  1  0  0  0
  8 37  1  0  0  0
  9 21  1  0  0  0
  9 31  1  0  0  0
  9 38  1  0  0  0
  9 39  1  0  0  0
 10 40  1  0  0  0
 11 12  1  0  0  0
 11 14  2  0  0  0
 11 15  1  0  0  0
 12 17  1  0  0  0
 12 28  2  0  0  0
 13 28  1  0  0  0
 13 29  2  0  0  0
 13 55  1  0  0  0
 14 29  1  0  0  0
 14 31  1  0  0  0
 15 30  2  0  0  0
 15 41  1  0  0  0
 16 17  2  0  0  0
 16 18  1  0  0  0
 16 30  1  0  0  0
 17 26  1  0  0  0
 18 23  2  0  0  0
 19 20  1  0  0  0
 19 31  1  0  0  0
 19 42  1  0  0  0
 19 43  1  0  0  0
 20 22  1  0  0  0
 20 32  1  0  0  0
 20 44  1  0  0  0
 21 32  1  0  0  0
 21 45  1  0  0  0
 22 46  1  0  0  0
 22 47  1  0  0  0
 23 48  1  0  0  0
 24 25  3  0  0  0
 25 49  1  0  0  0
 32 50  1  0  0  0
 33 51  1  0  0  0
 52 56  1  0  0  0
 52 57  1  0  0  0
 53 54  1  0  0  0
 53 55  1  0  0  0
 53 58  1  0  0  0
 53 59  1  0  0  0
 54 56  1  0  0  0
 54 60  1  0  0  0
 54 61  1  0  0  0
 55 62  1  0  0  0
 55 63  1  0  0  0
 56 64  1  0  0  0
 56 65  1  0  0  0
M  CHG  1  53   1
M  END
> <s_m_entry_id>
548

> <s_m_entry_name>
000000548.1

> <s_m_Source_Path>
/Users/zaksoul/Documents/2

> <s_m_Source_File>
000000548.mol2

> <i_m_Source_File_Index>
1

$$$$
No_0_572
                    3D
 Schrodinger Suite 2022-4.
 65 70  0  0  1  0            999 V2000
   -5.0980    3.3640  -22.1450 C   0  0  0  0  0  0
   -5.3280    3.5590  -23.4860 C   0  0  0  0  0  0
   -3.8620    3.1500  -21.7680 C   0  0  0  0  0  0
   -2.9090    3.3320  -23.9030 C   0  0  0  0  0  0
   -2.7840    3.0770  -22.4810 C   0  0  0  0  0  0
   -4.2480    3.5540  -24.4630 C   0  0  0  0  0  0
   -3.4260    3.6280  -26.6360 C   0  0  0  0  0  0
    6.1540    3.1680  -21.0760 C   0  0  0  0  0  0
    6.0900    3.3350  -23.6260 C   0  0  0  0  0  0
   -4.4620    3.6880  -25.8050 C   0  0  0  0  0  0
    2.2910    3.7530  -23.7570 C   0  0  0  0  0  0
    1.4230    4.8290  -23.4720 C   0  0  0  0  0  0
    3.1560    6.0780  -22.7230 C   0  0  0  0  0  0
    3.6730    3.9880  -23.3980 C   0  0  0  0  0  0
    1.8050    2.6250  -24.4470 C   0  0  0  0  0  0
   -0.3520    3.3630  -24.3950 C   0  0  0  0  0  0
    0.1130    4.5940  -23.7670 C   0  0  0  0  0  0
   -1.7930    3.3230  -24.7950 C   0  0  0  0  0  0
    4.3560    1.5090  -23.1140 C   0  0  0  0  0  0
    5.2660    1.1720  -21.9420 C   0  0  2  0  0  0
    6.8200    2.7730  -22.4120 C   0  0  2  0  0  0
    5.1770    2.1590  -20.7650 C   0  0  0  0  0  0
   -2.0790    3.4880  -26.2300 C   0  0  0  0  0  0
   -1.4460    2.7030  -21.8450 C   0  0  0  0  0  0
   -0.4200    2.3850  -21.3100 C   0  0  0  0  0  0
   -0.7750    5.6050  -23.4380 F   0  0  0  0  0  0
   -3.6870    2.8990  -20.3830 F   0  0  0  0  0  0
    1.8420    5.9970  -22.9140 N   0  0  0  0  0  0
    4.0920    5.1490  -22.9250 N   0  0  0  0  0  0
    0.5120    2.4940  -24.7940 N   0  0  0  0  0  0
    4.6320    2.9740  -23.5570 N   0  0  0  0  0  0
    6.6830    1.2940  -22.3790 N   0  0  1  0  0  0
   -3.5560    3.6530  -28.0310 O   0  0  0  0  0  0
   -5.9235    3.3911  -21.4430 H   0  0  0  0  0  0
   -6.3380    3.7225  -23.8441 H   0  0  0  0  0  0
    5.6526    4.1405  -21.1890 H   0  0  0  0  0  0
    6.9147    3.1963  -20.2820 H   0  0  0  0  0  0
    6.5281    2.9151  -24.5435 H   0  0  0  0  0  0
    6.1959    4.4298  -23.6432 H   0  0  0  0  0  0
   -5.4671    3.8426  -26.1805 H   0  0  0  0  0  0
    2.4808    1.8217  -24.7171 H   0  0  0  0  0  0
    3.3058    1.4132  -22.8013 H   0  0  0  0  0  0
    4.5690    0.8265  -23.9500 H   0  0  0  0  0  0
    5.0652    0.1487  -21.5918 H   0  0  0  0  0  0
    7.8797    3.0677  -22.4221 H   0  0  0  0  0  0
    4.1761    2.6150  -20.7478 H   0  0  0  0  0  0
    5.4657    1.6452  -19.8362 H   0  0  0  0  0  0
   -1.2860    3.5041  -26.9688 H   0  0  0  0  0  0
    0.4837    2.1061  -20.8402 H   0  0  0  0  0  0
    7.3258    0.8106  -21.6582 H   0  0  0  0  0  0
   -2.6960    3.5986  -28.4308 H   0  0  0  0  0  0
    3.9560   10.5210  -23.5430 O   0  0  0  0  0  0
    4.9590    7.7960  -22.8790 N   0  3  0  0  0  0
    5.5860    9.0740  -22.3870 C   0  0  0  0  0  0
    3.6540    7.4300  -22.2240 C   0  0  0  0  0  0
    5.3520   10.2490  -23.3540 C   0  0  0  0  0  0
    3.8530   11.2497  -24.1437 H   0  0  0  0  0  0
    5.6133    7.0377  -22.7650 H   0  0  0  0  0  0
    4.8261    7.8520  -23.8766 H   0  0  0  0  0  0
    6.6669    8.9220  -22.2510 H   0  0  0  0  0  0
    5.1748    9.3271  -21.3986 H   0  0  0  0  0  0
    2.9028    8.2022  -22.4461 H   0  0  0  0  0  0
    3.7910    7.3890  -21.1333 H   0  0  0  0  0  0
    5.8500   11.1490  -22.9640 H   0  0  0  0  0  0
    5.8149   10.0221  -24.3257 H   0  0  0  0  0  0
  1  2  2  0  0  0
  1  3  1  0  0  0
  1 34  1  0  0  0
  2  6  1  0  0  0
  2 35  1  0  0  0
  3  5  2  0  0  0
  3 27  1  0  0  0
  4  5  1  0  0  0
  4  6  2  0  0  0
  4 18  1  0  0  0
  5 24  1  0  0  0
  6 10  1  0  0  0
  7 10  2  0  0  0
  7 23  1  0  0  0
  7 33  1  0  0  0
  8 21  1  0  0  0
  8 22  1  0  0  0
  8 36  1  0  0  0
  8 37  1  0  0  0
  9 21  1  0  0  0
  9 31  1  0  0  0
  9 38  1  0  0  0
  9 39  1  0  0  0
 10 40  1  0  0  0
 11 12  1  0  0  0
 11 14  2  0  0  0
 11 15  1  0  0  0
 12 17  1  0  0  0
 12 28  2  0  0  0
 13 28  1  0  0  0
 13 29  2  0  0  0
 13 55  1  0  0  0
 14 29  1  0  0  0
 14 31  1  0  0  0
 15 30  2  0  0  0
 15 41  1  0  0  0
 16 17  2  0  0  0
 16 18  1  0  0  0
 16 30  1  0  0  0
 17 26  1  0  0  0
 18 23  2  0  0  0
 19 20  1  0  0  0
 19 31  1  0  0  0
 19 42  1  0  0  0
 19 43  1  0  0  0
 20 22  1  0  0  0
 20 32  1  0  0  0
 20 44  1  0  0  0
 21 32  1  0  0  0
 21 45  1  0  0  0
 22 46  1  0  0  0
 22 47  1  0  0  0
 23 48  1  0  0  0
 24 25  3  0  0  0
 25 49  1  0  0  0
 32 50  1  0  0  0
 33 51  1  0  0  0
 52 56  1  0  0  0
 52 57  1  0  0  0
 53 54  1  0  0  0
 53 55  1  0  0  0
 53 58  1  0  0  0
 53 59  1  0  0  0
 54 56  1  0  0  0
 54 60  1  0  0  0
 54 61  1  0  0  0
 55 62  1  0  0  0
 55 63  1  0  0  0
 56 64  1  0  0  0
 56 65  1  0  0  0
M  CHG  1  53   1
M  END
> <s_m_entry_id>
549

> <s_m_entry_name>
000000549.1

> <s_m_Source_Path>
/Users/zaksoul/Documents/2

> <s_m_Source_File>
000000549.mol2

> <i_m_Source_File_Index>
1

$$$$
No_0_573
                    3D
 Schrodinger Suite 2022-4.
 64 69  0  0  1  0            999 V2000
   -5.3360    3.4700  -22.1240 C   0  0  0  0  0  0
   -5.5580    3.6820  -23.4640 C   0  0  0  0  0  0
   -4.1080    3.2180  -21.7470 C   0  0  0  0  0  0
   -3.1450    3.3880  -23.8780 C   0  0  0  0  0  0
   -3.0310    3.1190  -22.4580 C   0  0  0  0  0  0
   -4.4760    3.6530  -24.4400 C   0  0  0  0  0  0
   -3.6480    3.7190  -26.6100 C   0  0  0  0  0  0
    5.9030    2.9410  -21.0350 C   0  0  0  0  0  0
    5.8490    3.1290  -23.5840 C   0  0  0  0  0  0
   -4.6830    3.8040  -25.7800 C   0  0  0  0  0  0
    2.0640    3.6570  -23.7190 C   0  0  0  0  0  0
    1.2270    4.7550  -23.4280 C   0  0  0  0  0  0
    2.9940    5.9480  -22.6660 C   0  0  0  0  0  0
    3.4520    3.8490  -23.3560 C   0  0  0  0  0  0
    1.5470    2.5490  -24.4180 C   0  0  0  0  0  0
   -0.5880    3.3490  -24.3650 C   0  0  0  0  0  0
   -0.0880    4.5610  -23.7260 C   0  0  0  0  0  0
   -2.0280    3.3540  -24.7680 C   0  0  0  0  0  0
    4.0630    1.3500  -23.0890 C   0  0  0  0  0  0
    4.9590    0.9780  -21.9180 C   0  0  2  0  0  0
    6.5600    2.5370  -22.3730 C   0  0  2  0  0  0
    4.8960    1.9580  -20.7340 C   0  0  0  0  0  0
   -2.3060    3.5370  -26.2030 C   0  0  0  0  0  0
   -1.7050    2.7020  -21.8220 C   0  0  0  0  0  0
   -0.6900    2.3500  -21.2880 C   0  0  0  0  0  0
   -0.9480    5.5950  -23.3920 F   0  0  0  0  0  0
   -3.9430    2.9510  -20.3630 F   0  0  0  0  0  0
    1.6790    5.9070  -22.8600 N   0  0  0  0  0  0
    3.9030    4.9940  -22.8740 N   0  0  0  0  0  0
    0.2520    2.4580  -24.7690 N   0  0  0  0  0  0
    4.3820    2.8100  -23.5210 N   0  0  0  0  0  0
    6.3810    1.0620  -22.3520 N   0  0  1  0  0  0
   -3.7740    3.7580  -28.0050 O   0  0  0  0  0  0
   -6.1625    3.5162  -21.4241 H   0  0  0  0  0  0
   -6.5618    3.8777  -23.8234 H   0  0  0  0  0  0
    5.4304    3.9285  -21.1420 H   0  0  0  0  0  0
    6.6630    2.9410  -20.2397 H   0  0  0  0  0  0
    6.2766    2.7034  -24.5038 H   0  0  0  0  0  0
    5.9873    4.2202  -23.5931 H   0  0  0  0  0  0
   -5.6825    3.9896  -26.1563 H   0  0  0  0  0  0
    2.2003    1.7292  -24.6940 H   0  0  0  0  0  0
    3.0097    1.2814  -22.7793 H   0  0  0  0  0  0
    4.2568    0.6677  -23.9298 H   0  0  0  0  0  0
    4.7288   -0.0417  -21.5757 H   0  0  0  0  0  0
    7.6280    2.8005  -22.3791 H   0  0  0  0  0  0
    3.9087    2.4426  -20.7148 H   0  0  0  0  0  0
    5.1684    1.4293  -19.8087 H   0  0  0  0  0  0
   -1.5109    3.5360  -26.9398 H   0  0  0  0  0  0
    0.2038    2.0411  -20.8181 H   0  0  0  0  0  0
    7.0070    0.5545  -21.6330 H   0  0  0  0  0  0
   -2.9147    3.6828  -28.4030 H   0  0  0  0  0  0
    6.5100   10.1790  -20.5880 F   0  0  0  0  0  0
    4.4590    7.0950  -20.9860 N   0  3  0  0  0  0
    4.9730    8.3610  -20.3500 C   0  0  0  0  0  0
    3.5300    7.2810  -22.1550 C   0  0  0  0  0  0
    5.8850    9.1610  -21.2980 C   0  0  0  0  0  0
    4.0039    6.5318  -20.2848 H   0  0  0  0  0  0
    5.2404    6.5247  -21.2692 H   0  0  0  0  0  0
    5.5269    8.1110  -19.4331 H   0  0  0  0  0  0
    4.1224    8.9887  -20.0461 H   0  0  0  0  0  0
    4.0627    7.7967  -22.9676 H   0  0  0  0  0  0
    2.6882    7.9229  -21.8561 H   0  0  0  0  0  0
    6.6464    8.4915  -21.7247 H   0  0  0  0  0  0
    5.2810    9.5960  -22.1080 H   0  0  0  0  0  0
  1  2  2  0  0  0
  1  3  1  0  0  0
  1 34  1  0  0  0
  2  6  1  0  0  0
  2 35  1  0  0  0
  3  5  2  0  0  0
  3 27  1  0  0  0
  4  5  1  0  0  0
  4  6  2  0  0  0
  4 18  1  0  0  0
  5 24  1  0  0  0
  6 10  1  0  0  0
  7 10  2  0  0  0
  7 23  1  0  0  0
  7 33  1  0  0  0
  8 21  1  0  0  0
  8 22  1  0  0  0
  8 36  1  0  0  0
  8 37  1  0  0  0
  9 21  1  0  0  0
  9 31  1  0  0  0
  9 38  1  0  0  0
  9 39  1  0  0  0
 10 40  1  0  0  0
 11 12  1  0  0  0
 11 14  2  0  0  0
 11 15  1  0  0  0
 12 17  1  0  0  0
 12 28  2  0  0  0
 13 28  1  0  0  0
 13 29  2  0  0  0
 13 55  1  0  0  0
 14 29  1  0  0  0
 14 31  1  0  0  0
 15 30  2  0  0  0
 15 41  1  0  0  0
 16 17  2  0  0  0
 16 18  1  0  0  0
 16 30  1  0  0  0
 17 26  1  0  0  0
 18 23  2  0  0  0
 19 20  1  0  0  0
 19 31  1  0  0  0
 19 42  1  0  0  0
 19 43  1  0  0  0
 20 22  1  0  0  0
 20 32  1  0  0  0
 20 44  1  0  0  0
 21 32  1  0  0  0
 21 45  1  0  0  0
 22 46  1  0  0  0
 22 47  1  0  0  0
 23 48  1  0  0  0
 24 25  3  0  0  0
 25 49  1  0  0  0
 32 50  1  0  0  0
 33 51  1  0  0  0
 52 56  1  0  0  0
 53 54  1  0  0  0
 53 55  1  0  0  0
 53 57  1  0  0  0
 53 58  1  0  0  0
 54 56  1  0  0  0
 54 59  1  0  0  0
 54 60  1  0  0  0
 55 61  1  0  0  0
 55 62  1  0  0  0
 56 63  1  0  0  0
 56 64  1  0  0  0
M  CHG  1  53   1
M  END
> <s_m_entry_id>
550

> <s_m_entry_name>
000000550.1

> <s_m_Source_Path>
/Users/zaksoul/Documents/2

> <s_m_Source_File>
000000550.mol2

> <i_m_Source_File_Index>
1

$$$$
No_0_574
                    3D
 Schrodinger Suite 2022-4.
 64 69  0  0  1  0            999 V2000
   -5.1480    3.4320  -21.9700 C   0  0  0  0  0  0
   -5.4070    3.5990  -23.3100 C   0  0  0  0  0  0
   -3.9070    3.2110  -21.6160 C   0  0  0  0  0  0
   -3.0010    3.3310  -23.7760 C   0  0  0  0  0  0
   -2.8470    3.1070  -22.3520 C   0  0  0  0  0  0
   -4.3500    3.5570  -24.3110 C   0  0  0  0  0  0
   -3.5780    3.5700  -26.5030 C   0  0  0  0  0  0
    6.1220    3.1180  -21.1530 C   0  0  0  0  0  0
    6.0010    3.2270  -23.7050 C   0  0  0  0  0  0
   -4.5930    3.6630  -25.6500 C   0  0  0  0  0  0
    2.2050    3.6890  -23.7590 C   0  0  0  0  0  0
    1.3570    4.7820  -23.4800 C   0  0  0  0  0  0
    3.1230    6.0260  -22.8000 C   0  0  0  0  0  0
    3.5990    3.9150  -23.4370 C   0  0  0  0  0  0
    1.6900    2.5520  -24.4110 C   0  0  0  0  0  0
   -0.4560    3.3180  -24.3270 C   0  0  0  0  0  0
    0.0380    4.5570  -23.7380 C   0  0  0  0  0  0
   -1.9060    3.2870  -24.6930 C   0  0  0  0  0  0
    4.2580    1.4350  -23.1100 C   0  0  0  0  0  0
    5.1900    1.1140  -21.9520 C   0  0  2  0  0  0
    6.7520    2.6840  -22.4950 C   0  0  2  0  0  0
    5.1400    2.1280  -20.7970 C   0  0  0  0  0  0
   -2.2230    3.4220  -26.1250 C   0  0  0  0  0  0
   -1.4980    2.7320  -21.7380 C   0  0  0  0  0  0
   -0.4640    2.4130  -21.2200 C   0  0  0  0  0  0
   -0.8300    5.5870  -23.4130 F   0  0  0  0  0  0
   -3.7020    2.9900  -20.2300 F   0  0  0  0  0  0
    1.8040    5.9580  -22.9580 N   0  0  0  0  0  0
    4.0420    5.0810  -23.0020 N   0  0  0  0  0  0
    0.3880    2.4290  -24.7250 N   0  0  0  0  0  0
    4.5410    2.8860  -23.5940 N   0  0  0  0  0  0
    6.5980    1.2070  -22.4240 N   0  0  1  0  0  0
   -3.7400    3.5640  -27.8940 O   0  0  0  0  0  0
   -5.9569    3.4852  -21.2504 H   0  0  0  0  0  0
   -6.4232    3.7665  -23.6481 H   0  0  0  0  0  0
    5.6305    4.0940  -21.2792 H   0  0  0  0  0  0
    6.9019    3.1553  -20.3782 H   0  0  0  0  0  0
    6.4126    2.7801  -24.6220 H   0  0  0  0  0  0
    6.1202    4.3196  -23.7504 H   0  0  0  0  0  0
   -5.6046    3.8206  -26.0063 H   0  0  0  0  0  0
    2.3494    1.7341  -24.6780 H   0  0  0  0  0  0
    3.2139    1.3593  -22.7721 H   0  0  0  0  0  0
    4.4416    0.7310  -23.9350 H   0  0  0  0  0  0
    4.9851    0.1017  -21.5735 H   0  0  0  0  0  0
    7.8148    2.9646  -22.5364 H   0  0  0  0  0  0
    4.1454    2.5970  -20.7677 H   0  0  0  0  0  0
    5.4439    1.6323  -19.8632 H   0  0  0  0  0  0
   -1.4471    3.4110  -26.8819 H   0  0  0  0  0  0
    0.4463    2.1329  -20.7639 H   0  0  0  0  0  0
    7.2512    0.7324  -21.7067 H   0  0  0  0  0  0
   -2.8903    3.4898  -28.3124 H   0  0  0  0  0  0
    6.6500   10.5330  -21.4480 F   0  0  0  0  0  0
    4.9010    7.2450  -21.5200 N   0  3  0  0  0  0
    5.4500    8.5250  -20.9450 C   0  0  0  0  0  0
    3.6480    7.3830  -22.3440 C   0  0  0  0  0  0
    5.9470    9.4880  -22.0380 C   0  0  0  0  0  0
    4.7379    6.5876  -20.7735 H   0  0  0  0  0  0
    5.6142    6.7949  -22.0721 H   0  0  0  0  0  0
    6.2774    8.2919  -20.2587 H   0  0  0  0  0  0
    4.6711    9.0209  -20.3471 H   0  0  0  0  0  0
    3.8559    8.0098  -23.2237 H   0  0  0  0  0  0
    2.8747    7.8942  -21.7518 H   0  0  0  0  0  0
    6.6091    8.9470  -22.7301 H   0  0  0  0  0  0
    5.0861    9.8919  -22.5909 H   0  0  0  0  0  0
  1  2  2  0  0  0
  1  3  1  0  0  0
  1 34  1  0  0  0
  2  6  1  0  0  0
  2 35  1  0  0  0
  3  5  2  0  0  0
  3 27  1  0  0  0
  4  5  1  0  0  0
  4  6  2  0  0  0
  4 18  1  0  0  0
  5 24  1  0  0  0
  6 10  1  0  0  0
  7 10  2  0  0  0
  7 23  1  0  0  0
  7 33  1  0  0  0
  8 21  1  0  0  0
  8 22  1  0  0  0
  8 36  1  0  0  0
  8 37  1  0  0  0
  9 21  1  0  0  0
  9 31  1  0  0  0
  9 38  1  0  0  0
  9 39  1  0  0  0
 10 40  1  0  0  0
 11 12  1  0  0  0
 11 14  2  0  0  0
 11 15  1  0  0  0
 12 17  1  0  0  0
 12 28  2  0  0  0
 13 28  1  0  0  0
 13 29  2  0  0  0
 13 55  1  0  0  0
 14 29  1  0  0  0
 14 31  1  0  0  0
 15 30  2  0  0  0
 15 41  1  0  0  0
 16 17  2  0  0  0
 16 18  1  0  0  0
 16 30  1  0  0  0
 17 26  1  0  0  0
 18 23  2  0  0  0
 19 20  1  0  0  0
 19 31  1  0  0  0
 19 42  1  0  0  0
 19 43  1  0  0  0
 20 22  1  0  0  0
 20 32  1  0  0  0
 20 44  1  0  0  0
 21 32  1  0  0  0
 21 45  1  0  0  0
 22 46  1  0  0  0
 22 47  1  0  0  0
 23 48  1  0  0  0
 24 25  3  0  0  0
 25 49  1  0  0  0
 32 50  1  0  0  0
 33 51  1  0  0  0
 52 56  1  0  0  0
 53 54  1  0  0  0
 53 55  1  0  0  0
 53 57  1  0  0  0
 53 58  1  0  0  0
 54 56  1  0  0  0
 54 59  1  0  0  0
 54 60  1  0  0  0
 55 61  1  0  0  0
 55 62  1  0  0  0
 56 63  1  0  0  0
 56 64  1  0  0  0
M  CHG  1  53   1
M  END
> <s_m_entry_id>
551

> <s_m_entry_name>
000000551.1

> <s_m_Source_Path>
/Users/zaksoul/Documents/2

> <s_m_Source_File>
000000551.mol2

> <i_m_Source_File_Index>
1

$$$$
No_0_575
                    3D
 Schrodinger Suite 2022-4.
 64 69  0  0  1  0            999 V2000
   -5.0990    3.4340  -21.8190 C   0  0  0  0  0  0
   -5.3730    3.6300  -23.1520 C   0  0  0  0  0  0
   -3.8540    3.2110  -21.4830 C   0  0  0  0  0  0
   -2.9710    3.3850  -23.6490 C   0  0  0  0  0  0
   -2.8000    3.1300  -22.2310 C   0  0  0  0  0  0
   -4.3260    3.6170  -24.1650 C   0  0  0  0  0  0
   -3.5760    3.6830  -26.3640 C   0  0  0  0  0  0
    6.1800    3.1570  -21.1220 C   0  0  0  0  0  0
    6.0330    3.3230  -23.6700 C   0  0  0  0  0  0
   -4.5830    3.7510  -25.4980 C   0  0  0  0  0  0
    2.2340    3.7680  -23.6750 C   0  0  0  0  0  0
    1.3840    4.8500  -23.3630 C   0  0  0  0  0  0
    3.1500    6.0870  -22.6730 C   0  0  0  0  0  0
    3.6300    3.9930  -23.3620 C   0  0  0  0  0  0
    1.7170    2.6430  -24.3480 C   0  0  0  0  0  0
   -0.4310    3.3970  -24.2250 C   0  0  0  0  0  0
    0.0630    4.6250  -23.6130 C   0  0  0  0  0  0
   -1.8840    3.3670  -24.5770 C   0  0  0  0  0  0
    4.3040    1.5100  -23.0980 C   0  0  0  0  0  0
    5.2490    1.1670  -21.9570 C   0  0  2  0  0  0
    6.7980    2.7560  -22.4800 C   0  0  2  0  0  0
    5.2060    2.1550  -20.7790 C   0  0  0  0  0  0
   -2.2170    3.5330  -26.0020 C   0  0  0  0  0  0
   -1.4440    2.7470  -21.6390 C   0  0  0  0  0  0
   -0.4030    2.4220  -21.1390 C   0  0  0  0  0  0
   -0.8060    5.6430  -23.2560 F   0  0  0  0  0  0
   -3.6340    2.9600  -20.1040 F   0  0  0  0  0  0
    1.8300    6.0160  -22.8190 N   0  0  0  0  0  0
    4.0720    5.1520  -22.9050 N   0  0  0  0  0  0
    0.4130    2.5210  -24.6520 N   0  0  0  0  0  0
    4.5760    2.9730  -23.5520 N   0  0  0  0  0  0
    6.6520    1.2780  -22.4410 N   0  0  1  0  0  0
   -3.7510    3.7070  -27.7530 O   0  0  0  0  0  0
   -5.9009    3.4681  -21.0904 H   0  0  0  0  0  0
   -6.3929    3.8006  -23.4772 H   0  0  0  0  0  0
    5.6824    4.1330  -21.2209 H   0  0  0  0  0  0
    6.9672    3.1802  -20.3540 H   0  0  0  0  0  0
    6.4369    2.8989  -24.6011 H   0  0  0  0  0  0
    6.1460    4.4170  -23.6912 H   0  0  0  0  0  0
   -5.5985    3.9126  -25.8412 H   0  0  0  0  0  0
    2.3784    1.8350  -24.6391 H   0  0  0  0  0  0
    3.2637    1.4212  -22.7519 H   0  0  0  0  0  0
    4.4826    0.8258  -23.9406 H   0  0  0  0  0  0
    5.0531    0.1453  -21.5996 H   0  0  0  0  0  0
    7.8588    3.0436  -22.5254 H   0  0  0  0  0  0
    4.2094    2.6180  -20.7286 H   0  0  0  0  0  0
    5.5220    1.6391  -19.8603 H   0  0  0  0  0  0
   -1.4485    3.5430  -26.7665 H   0  0  0  0  0  0
    0.5133    2.1359  -20.6989 H   0  0  0  0  0  0
    7.3146    0.7907  -21.7410 H   0  0  0  0  0  0
   -2.9050    3.6466  -28.1810 H   0  0  0  0  0  0
    6.3750   10.9570  -21.9910 F   0  0  0  0  0  0
    5.1730    7.4320  -22.0520 N   0  3  0  0  0  0
    5.7820    8.6930  -21.4950 C   0  0  0  0  0  0
    3.6740    7.4360  -22.1910 C   0  0  0  0  0  0
    5.5990    9.8950  -22.4400 C   0  0  0  0  0  0
    5.4520    6.6481  -21.4831 H   0  0  0  0  0  0
    5.5900    7.2290  -22.9470 H   0  0  0  0  0  0
    6.8543    8.5310  -21.3109 H   0  0  0  0  0  0
    5.3241    8.9210  -20.5212 H   0  0  0  0  0  0
    3.3740    8.2199  -22.9019 H   0  0  0  0  0  0
    3.2170    7.6810  -21.2209 H   0  0  0  0  0  0
    5.9151    9.6139  -23.4554 H   0  0  0  0  0  0
    4.5405   10.1941  -22.4520 H   0  0  0  0  0  0
  1  2  2  0  0  0
  1  3  1  0  0  0
  1 34  1  0  0  0
  2  6  1  0  0  0
  2 35  1  0  0  0
  3  5  2  0  0  0
  3 27  1  0  0  0
  4  5  1  0  0  0
  4  6  2  0  0  0
  4 18  1  0  0  0
  5 24  1  0  0  0
  6 10  1  0  0  0
  7 10  2  0  0  0
  7 23  1  0  0  0
  7 33  1  0  0  0
  8 21  1  0  0  0
  8 22  1  0  0  0
  8 36  1  0  0  0
  8 37  1  0  0  0
  9 21  1  0  0  0
  9 31  1  0  0  0
  9 38  1  0  0  0
  9 39  1  0  0  0
 10 40  1  0  0  0
 11 12  1  0  0  0
 11 14  2  0  0  0
 11 15  1  0  0  0
 12 17  1  0  0  0
 12 28  2  0  0  0
 13 28  1  0  0  0
 13 29  2  0  0  0
 13 55  1  0  0  0
 14 29  1  0  0  0
 14 31  1  0  0  0
 15 30  2  0  0  0
 15 41  1  0  0  0
 16 17  2  0  0  0
 16 18  1  0  0  0
 16 30  1  0  0  0
 17 26  1  0  0  0
 18 23  2  0  0  0
 19 20  1  0  0  0
 19 31  1  0  0  0
 19 42  1  0  0  0
 19 43  1  0  0  0
 20 22  1  0  0  0
 20 32  1  0  0  0
 20 44  1  0  0  0
 21 32  1  0  0  0
 21 45  1  0  0  0
 22 46  1  0  0  0
 22 47  1  0  0  0
 23 48  1  0  0  0
 24 25  3  0  0  0
 25 49  1  0  0  0
 32 50  1  0  0  0
 33 51  1  0  0  0
 52 56  1  0  0  0
 53 54  1  0  0  0
 53 55  1  0  0  0
 53 57  1  0  0  0
 53 58  1  0  0  0
 54 56  1  0  0  0
 54 59  1  0  0  0
 54 60  1  0  0  0
 55 61  1  0  0  0
 55 62  1  0  0  0
 56 63  1  0  0  0
 56 64  1  0  0  0
M  CHG  1  53   1
M  END
> <s_m_entry_id>
552

> <s_m_entry_name>
000000552.1

> <s_m_Source_Path>
/Users/zaksoul/Documents/2

> <s_m_Source_File>
000000552.mol2

> <i_m_Source_File_Index>
1

$$$$
No_0_576
                    3D
 Schrodinger Suite 2022-4.
 64 69  0  0  1  0            999 V2000
   -5.2680    3.4330  -22.2090 C   0  0  0  0  0  0
   -5.4930    3.6250  -23.5510 C   0  0  0  0  0  0
   -4.0360    3.2090  -21.8270 C   0  0  0  0  0  0
   -3.0740    3.3740  -23.9590 C   0  0  0  0  0  0
   -2.9570    3.1230  -22.5350 C   0  0  0  0  0  0
   -4.4090    3.6060  -24.5250 C   0  0  0  0  0  0
   -3.5800    3.6630  -26.6950 C   0  0  0  0  0  0
    5.9770    3.1350  -21.1010 C   0  0  0  0  0  0
    5.9230    3.2930  -23.6520 C   0  0  0  0  0  0
   -4.6180    3.7370  -25.8670 C   0  0  0  0  0  0
    2.1290    3.7460  -23.7970 C   0  0  0  0  0  0
    1.2700    4.8310  -23.5200 C   0  0  0  0  0  0
    3.0130    6.0660  -22.7700 C   0  0  0  0  0  0
    3.5120    3.9690  -23.4340 C   0  0  0  0  0  0
    1.6340    2.6200  -24.4840 C   0  0  0  0  0  0
   -0.5160    3.3790  -24.4420 C   0  0  0  0  0  0
   -0.0410    4.6070  -23.8170 C   0  0  0  0  0  0
   -1.9550    3.3510  -24.8470 C   0  0  0  0  0  0
    4.1710    1.4850  -23.1380 C   0  0  0  0  0  0
    5.0730    1.1450  -21.9620 C   0  0  2  0  0  0
    6.6440    2.7290  -22.4330 C   0  0  2  0  0  0
    4.9890    2.1370  -20.7900 C   0  0  0  0  0  0
   -2.2350    3.5120  -26.2840 C   0  0  0  0  0  0
   -1.6240    2.7390  -21.8930 C   0  0  0  0  0  0
   -0.6030    2.4140  -21.3540 C   0  0  0  0  0  0
   -0.9210    5.6280  -23.4960 F   0  0  0  0  0  0
   -3.8680    2.9620  -20.4400 F   0  0  0  0  0  0
    1.6990    5.9980  -22.9640 N   0  0  0  0  0  0
    3.9400    5.1280  -22.9650 N   0  0  0  0  0  0
    0.3420    2.5000  -24.8350 N   0  0  0  0  0  0
    4.4620    2.9460  -23.5860 N   0  0  0  0  0  0
    6.4930    1.2510  -22.3950 N   0  0  1  0  0  0
   -3.7050    3.6840  -28.0900 O   0  0  0  0  0  0
   -6.0955    3.4711  -21.5099 H   0  0  0  0  0  0
   -6.5001    3.7967  -23.9135 H   0  0  0  0  0  0
    5.4855    4.1119  -21.2201 H   0  0  0  0  0  0
    6.7357    3.1602  -20.3049 H   0  0  0  0  0  0
    6.3608    2.8653  -24.5660 H   0  0  0  0  0  0
    6.0400    4.3866  -23.6732 H   0  0  0  0  0  0
   -5.6201    3.8987  -26.2475 H   0  0  0  0  0  0
    2.3032    1.8094  -24.7489 H   0  0  0  0  0  0
    3.1186    1.4002  -22.8293 H   0  0  0  0  0  0
    4.3790    0.7974  -23.9710 H   0  0  0  0  0  0
    4.8621    0.1248  -21.6088 H   0  0  0  0  0  0
    7.7065    3.0136  -22.4411 H   0  0  0  0  0  0
    3.9924    2.6025  -20.7769 H   0  0  0  0  0  0
    5.2706    1.6243  -19.8584 H   0  0  0  0  0  0
   -1.4390    3.5180  -27.0198 H   0  0  0  0  0  0
    0.2960    2.1270  -20.8800 H   0  0  0  0  0  0
    7.1290    0.7646  -21.6702 H   0  0  0  0  0  0
   -2.8442    3.6197  -28.4868 H   0  0  0  0  0  0
    5.4440   11.4140  -22.5010 F   0  0  0  0  0  0
    4.8670    7.7520  -22.8600 N   0  3  0  0  0  0
    5.4980    9.0260  -22.3620 C   0  0  0  0  0  0
    3.5210    7.4160  -22.2740 C   0  0  0  0  0  0
    4.6990   10.2740  -22.7800 C   0  0  0  0  0  0
    5.5003    6.9837  -22.7029 H   0  0  0  0  0  0
    4.7920    7.7880  -23.8646 H   0  0  0  0  0  0
    6.5244    9.1020  -22.7502 H   0  0  0  0  0  0
    5.5740    8.9920  -21.2652 H   0  0  0  0  0  0
    2.7988    8.2012  -22.5421 H   0  0  0  0  0  0
    3.5940    7.3990  -21.1766 H   0  0  0  0  0  0
    4.4881   10.2290  -23.8587 H   0  0  0  0  0  0
    3.7529   10.3090  -22.2199 H   0  0  0  0  0  0
  1  2  2  0  0  0
  1  3  1  0  0  0
  1 34  1  0  0  0
  2  6  1  0  0  0
  2 35  1  0  0  0
  3  5  2  0  0  0
  3 27  1  0  0  0
  4  5  1  0  0  0
  4  6  2  0  0  0
  4 18  1  0  0  0
  5 24  1  0  0  0
  6 10  1  0  0  0
  7 10  2  0  0  0
  7 23  1  0  0  0
  7 33  1  0  0  0
  8 21  1  0  0  0
  8 22  1  0  0  0
  8 36  1  0  0  0
  8 37  1  0  0  0
  9 21  1  0  0  0
  9 31  1  0  0  0
  9 38  1  0  0  0
  9 39  1  0  0  0
 10 40  1  0  0  0
 11 12  1  0  0  0
 11 14  2  0  0  0
 11 15  1  0  0  0
 12 17  1  0  0  0
 12 28  2  0  0  0
 13 28  1  0  0  0
 13 29  2  0  0  0
 13 55  1  0  0  0
 14 29  1  0  0  0
 14 31  1  0  0  0
 15 30  2  0  0  0
 15 41  1  0  0  0
 16 17  2  0  0  0
 16 18  1  0  0  0
 16 30  1  0  0  0
 17 26  1  0  0  0
 18 23  2  0  0  0
 19 20  1  0  0  0
 19 31  1  0  0  0
 19 42  1  0  0  0
 19 43  1  0  0  0
 20 22  1  0  0  0
 20 32  1  0  0  0
 20 44  1  0  0  0
 21 32  1  0  0  0
 21 45  1  0  0  0
 22 46  1  0  0  0
 22 47  1  0  0  0
 23 48  1  0  0  0
 24 25  3  0  0  0
 25 49  1  0  0  0
 32 50  1  0  0  0
 33 51  1  0  0  0
 52 56  1  0  0  0
 53 54  1  0  0  0
 53 55  1  0  0  0
 53 57  1  0  0  0
 53 58  1  0  0  0
 54 56  1  0  0  0
 54 59  1  0  0  0
 54 60  1  0  0  0
 55 61  1  0  0  0
 55 62  1  0  0  0
 56 63  1  0  0  0
 56 64  1  0  0  0
M  CHG  1  53   1
M  END
> <s_m_entry_id>
553

> <s_m_entry_name>
000000553.1

> <s_m_Source_Path>
/Users/zaksoul/Documents/2

> <s_m_Source_File>
000000553.mol2

> <i_m_Source_File_Index>
1

$$$$
No_0_577
                    3D
 Schrodinger Suite 2022-4.
 64 69  0  0  1  0            999 V2000
   -5.3830    3.0600  -21.8810 C   0  0  0  0  0  0
   -5.6350    3.3100  -23.2090 C   0  0  0  0  0  0
   -4.1420    2.8380  -21.5310 C   0  0  0  0  0  0
   -3.2210    3.1170  -23.6700 C   0  0  0  0  0  0
   -3.0730    2.8030  -22.2610 C   0  0  0  0  0  0
   -4.5690    3.3530  -24.2010 C   0  0  0  0  0  0
   -3.7790    3.5240  -26.3800 C   0  0  0  0  0  0
    5.8830    2.8970  -20.9800 C   0  0  0  0  0  0
    5.7810    3.1710  -23.5200 C   0  0  0  0  0  0
   -4.8030    3.5430  -25.5320 C   0  0  0  0  0  0
    1.9780    3.5670  -23.5800 C   0  0  0  0  0  0
    1.1080    4.6240  -23.2370 C   0  0  0  0  0  0
    2.8440    5.8520  -22.4610 C   0  0  0  0  0  0
    3.3640    3.7970  -23.2300 C   0  0  0  0  0  0
    1.4890    2.4660  -24.3100 C   0  0  0  0  0  0
   -0.6710    3.1870  -24.1960 C   0  0  0  0  0  0
   -0.2050    4.3930  -23.5230 C   0  0  0  0  0  0
   -2.1170    3.1540  -24.5760 C   0  0  0  0  0  0
    4.0670    1.3130  -23.0610 C   0  0  0  0  0  0
    4.9950    0.9330  -21.9180 C   0  0  2  0  0  0
    6.5320    2.5630  -22.3410 C   0  0  2  0  0  0
    4.9170    1.8680  -20.6990 C   0  0  0  0  0  0
   -2.4250    3.3770  -26.0000 C   0  0  0  0  0  0
   -1.7230    2.4120  -21.6610 C   0  0  0  0  0  0
   -0.6880    2.0790  -21.1550 C   0  0  0  0  0  0
   -1.0950    5.3830  -23.1390 F   0  0  0  0  0  0
   -3.9440    2.5300  -20.1600 F   0  0  0  0  0  0
    1.5280    5.7710  -22.6350 N   0  0  0  0  0  0
    3.7820    4.9400  -22.7150 N   0  0  0  0  0  0
    0.1930    2.3410  -24.6440 N   0  0  0  0  0  0
    4.3270    2.7970  -23.4460 N   0  0  0  0  0  0
    6.4060    1.0830  -22.3690 N   0  0  1  0  0  0
   -3.9290    3.6070  -27.7700 O   0  0  0  0  0  0
   -6.1990    3.0510  -21.1674 H   0  0  0  0  0  0
   -6.6511    3.4817  -23.5454 H   0  0  0  0  0  0
    5.3743    3.8701  -21.0456 H   0  0  0  0  0  0
    6.6558    2.8970  -20.1972 H   0  0  0  0  0  0
    6.2089    2.7936  -24.4605 H   0  0  0  0  0  0
    5.8799    4.2662  -23.4927 H   0  0  0  0  0  0
   -5.8142    3.7055  -25.8871 H   0  0  0  0  0  0
    2.1666    1.6800  -24.6232 H   0  0  0  0  0  0
    3.0220    1.1960  -22.7382 H   0  0  0  0  0  0
    4.2708    0.6683  -23.9287 H   0  0  0  0  0  0
    4.8063   -0.1055  -21.6082 H   0  0  0  0  0  0
    7.5894    2.8657  -22.3541 H   0  0  0  0  0  0
    3.9137    2.3161  -20.6475 H   0  0  0  0  0  0
    5.2230    1.3176  -19.7971 H   0  0  0  0  0  0
   -1.6425    3.4292  -26.7483 H   0  0  0  0  0  0
    0.2238    1.7861  -20.7101 H   0  0  0  0  0  0
    7.0616    0.5739  -21.6781 H   0  0  0  0  0  0
   -3.0745    3.5763  -28.1839 H   0  0  0  0  0  0
    4.5330   11.4650  -21.9770 F   0  0  0  0  0  0
    4.3020    7.8530  -22.8570 N   0  3  0  0  0  0
    4.9200    9.1360  -22.3650 C   0  0  0  0  0  0
    3.3400    7.1860  -21.9110 C   0  0  0  0  0  0
    3.8790   10.2580  -22.2000 C   0  0  0  0  0  0
    5.0334    7.2036  -23.1008 H   0  0  0  0  0  0
    3.8409    8.0220  -23.7373 H   0  0  0  0  0  0
    5.6989    9.4600  -23.0709 H   0  0  0  0  0  0
    5.4200    8.9550  -21.4021 H   0  0  0  0  0  0
    2.4816    7.8503  -21.7329 H   0  0  0  0  0  0
    3.8340    7.0210  -20.9421 H   0  0  0  0  0  0
    3.2742   10.3330  -23.1157 H   0  0  0  0  0  0
    3.2270   10.0300  -21.3439 H   0  0  0  0  0  0
  1  2  2  0  0  0
  1  3  1  0  0  0
  1 34  1  0  0  0
  2  6  1  0  0  0
  2 35  1  0  0  0
  3  5  2  0  0  0
  3 27  1  0  0  0
  4  5  1  0  0  0
  4  6  2  0  0  0
  4 18  1  0  0  0
  5 24  1  0  0  0
  6 10  1  0  0  0
  7 10  2  0  0  0
  7 23  1  0  0  0
  7 33  1  0  0  0
  8 21  1  0  0  0
  8 22  1  0  0  0
  8 36  1  0  0  0
  8 37  1  0  0  0
  9 21  1  0  0  0
  9 31  1  0  0  0
  9 38  1  0  0  0
  9 39  1  0  0  0
 10 40  1  0  0  0
 11 12  1  0  0  0
 11 14  2  0  0  0
 11 15  1  0  0  0
 12 17  1  0  0  0
 12 28  2  0  0  0
 13 28  1  0  0  0
 13 29  2  0  0  0
 13 55  1  0  0  0
 14 29  1  0  0  0
 14 31  1  0  0  0
 15 30  2  0  0  0
 15 41  1  0  0  0
 16 17  2  0  0  0
 16 18  1  0  0  0
 16 30  1  0  0  0
 17 26  1  0  0  0
 18 23  2  0  0  0
 19 20  1  0  0  0
 19 31  1  0  0  0
 19 42  1  0  0  0
 19 43  1  0  0  0
 20 22  1  0  0  0
 20 32  1  0  0  0
 20 44  1  0  0  0
 21 32  1  0  0  0
 21 45  1  0  0  0
 22 46  1  0  0  0
 22 47  1  0  0  0
 23 48  1  0  0  0
 24 25  3  0  0  0
 25 49  1  0  0  0
 32 50  1  0  0  0
 33 51  1  0  0  0
 52 56  1  0  0  0
 53 54  1  0  0  0
 53 55  1  0  0  0
 53 57  1  0  0  0
 53 58  1  0  0  0
 54 56  1  0  0  0
 54 59  1  0  0  0
 54 60  1  0  0  0
 55 61  1  0  0  0
 55 62  1  0  0  0
 56 63  1  0  0  0
 56 64  1  0  0  0
M  CHG  1  53   1
M  END
> <s_m_entry_id>
554

> <s_m_entry_name>
000000554.1

> <s_m_Source_Path>
/Users/zaksoul/Documents/2

> <s_m_Source_File>
000000554.mol2

> <i_m_Source_File_Index>
1

$$$$
No_0_578
                    3D
 Schrodinger Suite 2022-4.
 64 69  0  0  1  0            999 V2000
   -5.1760    3.7070  -22.0970 C   0  0  0  0  0  0
   -5.4120    3.8750  -23.4410 C   0  0  0  0  0  0
   -3.9420    3.4800  -21.7230 C   0  0  0  0  0  0
   -3.0000    3.5950  -23.8670 C   0  0  0  0  0  0
   -2.8700    3.3710  -22.4400 C   0  0  0  0  0  0
   -4.3390    3.8280  -24.4240 C   0  0  0  0  0  0
   -3.5300    3.8360  -26.6040 C   0  0  0  0  0  0
    6.0770    3.3370  -21.0930 C   0  0  0  0  0  0
    5.9990    3.4460  -23.6460 C   0  0  0  0  0  0
   -4.5590    3.9350  -25.7670 C   0  0  0  0  0  0
    2.2070    3.9270  -23.7630 C   0  0  0  0  0  0
    1.3600    5.0240  -23.4980 C   0  0  0  0  0  0
    3.1200    6.2600  -22.7890 C   0  0  0  0  0  0
    3.5960    4.1460  -23.4180 C   0  0  0  0  0  0
    1.6970    2.7930  -24.4240 C   0  0  0  0  0  0
   -0.4460    3.5700  -24.3750 C   0  0  0  0  0  0
    0.0440    4.8060  -23.7790 C   0  0  0  0  0  0
   -1.8900    3.5460  -24.7650 C   0  0  0  0  0  0
    4.2370    1.6630  -23.0800 C   0  0  0  0  0  0
    5.1480    1.3380  -21.9070 C   0  0  2  0  0  0
    6.7270    2.8990  -22.4230 C   0  0  2  0  0  0
    5.0840    2.3520  -20.7530 C   0  0  0  0  0  0
   -2.1830    3.6820  -26.2030 C   0  0  0  0  0  0
   -1.5340    2.9890  -21.8040 C   0  0  0  0  0  0
   -0.5100    2.6650  -21.2690 C   0  0  0  0  0  0
   -0.8240    5.8400  -23.4680 F   0  0  0  0  0  0
   -3.7620    3.2570  -20.3330 F   0  0  0  0  0  0
    1.8040    6.1980  -22.9690 N   0  0  0  0  0  0
    4.0380    5.3100  -22.9750 N   0  0  0  0  0  0
    0.4000    2.6760  -24.7600 N   0  0  0  0  0  0
    4.5360    3.1120  -23.5600 N   0  0  0  0  0  0
    6.5650    1.4240  -22.3560 N   0  0  1  0  0  0
   -3.6690    3.8310  -27.9970 O   0  0  0  0  0  0
   -5.9965    3.7642  -21.3910 H   0  0  0  0  0  0
   -6.4215    4.0476  -23.7962 H   0  0  0  0  0  0
    5.5923    4.3154  -21.2263 H   0  0  0  0  0  0
    6.8438    3.3703  -20.3050 H   0  0  0  0  0  0
    6.4237    2.9971  -24.5560 H   0  0  0  0  0  0
    6.1241    4.5380  -23.6894 H   0  0  0  0  0  0
   -5.5636    4.0976  -26.1403 H   0  0  0  0  0  0
    2.3574    1.9720  -24.6789 H   0  0  0  0  0  0
    3.1870    1.5923  -22.7599 H   0  0  0  0  0  0
    4.4317    0.9577  -23.9013 H   0  0  0  0  0  0
    4.9332    0.3265  -21.5318 H   0  0  0  0  0  0
    7.7917    3.1745  -22.4472 H   0  0  0  0  0  0
    4.0917    2.8265  -20.7399 H   0  0  0  0  0  0
    5.3707    1.8554  -19.8143 H   0  0  0  0  0  0
   -1.3943    3.6669  -26.9465 H   0  0  0  0  0  0
    0.3911    2.3800  -20.7979 H   0  0  0  0  0  0
    7.2030    0.9463  -21.6272 H   0  0  0  0  0  0
   -2.8125    3.7529  -28.4005 H   0  0  0  0  0  0
    3.6220   11.9970  -21.6010 F   0  0  0  0  0  0
    3.3260    8.7030  -23.3140 N   0  3  0  0  0  0
    3.8810   10.0660  -22.9890 C   0  0  0  0  0  0
    3.6450    7.6140  -22.3240 C   0  0  0  0  0  0
    3.2520   10.6620  -21.7160 C   0  0  0  0  0  0
    3.6431    8.4239  -24.2292 H   0  0  0  0  0  0
    2.3264    8.7690  -23.4260 H   0  0  0  0  0  0
    3.7040   10.7440  -23.8370 H   0  0  0  0  0  0
    4.9711    9.9950  -22.8600 H   0  0  0  0  0  0
    3.1999    7.8641  -21.3497 H   0  0  0  0  0  0
    4.7344    7.5560  -22.1830 H   0  0  0  0  0  0
    2.1563   10.5890  -21.7800 H   0  0  0  0  0  0
    3.6082   10.1057  -20.8365 H   0  0  0  0  0  0
  1  2  2  0  0  0
  1  3  1  0  0  0
  1 34  1  0  0  0
  2  6  1  0  0  0
  2 35  1  0  0  0
  3  5  2  0  0  0
  3 27  1  0  0  0
  4  5  1  0  0  0
  4  6  2  0  0  0
  4 18  1  0  0  0
  5 24  1  0  0  0
  6 10  1  0  0  0
  7 10  2  0  0  0
  7 23  1  0  0  0
  7 33  1  0  0  0
  8 21  1  0  0  0
  8 22  1  0  0  0
  8 36  1  0  0  0
  8 37  1  0  0  0
  9 21  1  0  0  0
  9 31  1  0  0  0
  9 38  1  0  0  0
  9 39  1  0  0  0
 10 40  1  0  0  0
 11 12  1  0  0  0
 11 14  2  0  0  0
 11 15  1  0  0  0
 12 17  1  0  0  0
 12 28  2  0  0  0
 13 28  1  0  0  0
 13 29  2  0  0  0
 13 55  1  0  0  0
 14 29  1  0  0  0
 14 31  1  0  0  0
 15 30  2  0  0  0
 15 41  1  0  0  0
 16 17  2  0  0  0
 16 18  1  0  0  0
 16 30  1  0  0  0
 17 26  1  0  0  0
 18 23  2  0  0  0
 19 20  1  0  0  0
 19 31  1  0  0  0
 19 42  1  0  0  0
 19 43  1  0  0  0
 20 22  1  0  0  0
 20 32  1  0  0  0
 20 44  1  0  0  0
 21 32  1  0  0  0
 21 45  1  0  0  0
 22 46  1  0  0  0
 22 47  1  0  0  0
 23 48  1  0  0  0
 24 25  3  0  0  0
 25 49  1  0  0  0
 32 50  1  0  0  0
 33 51  1  0  0  0
 52 56  1  0  0  0
 53 54  1  0  0  0
 53 55  1  0  0  0
 53 57  1  0  0  0
 53 58  1  0  0  0
 54 56  1  0  0  0
 54 59  1  0  0  0
 54 60  1  0  0  0
 55 61  1  0  0  0
 55 62  1  0  0  0
 56 63  1  0  0  0
 56 64  1  0  0  0
M  CHG  1  53   1
M  END
> <s_m_entry_id>
555

> <s_m_entry_name>
000000555.1

> <s_m_Source_Path>
/Users/zaksoul/Documents/2

> <s_m_Source_File>
000000555.mol2

> <i_m_Source_File_Index>
1

$$$$
No_0_579
                    3D
 Schrodinger Suite 2022-4.
 64 69  0  0  1  0            999 V2000
   -5.0170    3.6300  -21.9160 C   0  0  0  0  0  0
   -5.2940    3.8170  -23.2500 C   0  0  0  0  0  0
   -3.7760    3.3740  -21.5860 C   0  0  0  0  0  0
   -2.9030    3.4910  -23.7590 C   0  0  0  0  0  0
   -2.7310    3.2500  -22.3390 C   0  0  0  0  0  0
   -4.2540    3.7580  -24.2690 C   0  0  0  0  0  0
   -3.5180    3.7710  -26.4740 C   0  0  0  0  0  0
    6.2530    3.0130  -21.2910 C   0  0  0  0  0  0
    6.0930    3.1500  -23.8390 C   0  0  0  0  0  0
   -4.5170    3.8830  -25.6030 C   0  0  0  0  0  0
    2.3100    3.7120  -23.8250 C   0  0  0  0  0  0
    1.4960    4.8240  -23.5220 C   0  0  0  0  0  0
    3.3050    6.0150  -22.8600 C   0  0  0  0  0  0
    3.7140    3.8990  -23.5250 C   0  0  0  0  0  0
    1.7540    2.5950  -24.4790 C   0  0  0  0  0  0
   -0.3690    3.4170  -24.3520 C   0  0  0  0  0  0
    0.1670    4.6370  -23.7610 C   0  0  0  0  0  0
   -1.8250    3.4280  -24.6940 C   0  0  0  0  0  0
    4.3130    1.3990  -23.2320 C   0  0  0  0  0  0
    5.2550    1.0430  -22.0930 C   0  0  2  0  0  0
    6.8490    2.5760  -22.6470 C   0  0  2  0  0  0
    5.2510    2.0470  -20.9280 C   0  0  0  0  0  0
   -2.1620    3.5850  -26.1190 C   0  0  0  0  0  0
   -1.3830    2.8330  -21.7520 C   0  0  0  0  0  0
   -0.3500    2.4820  -21.2540 C   0  0  0  0  0  0
   -0.6670    5.6860  -23.4110 F   0  0  0  0  0  0
   -3.5550    3.1340  -20.2050 F   0  0  0  0  0  0
    1.9820    5.9830  -22.9970 N   0  0  0  0  0  0
    4.1950    5.0490  -23.0860 N   0  0  0  0  0  0
    0.4450    2.5100  -24.7730 N   0  0  0  0  0  0
    4.6270    2.8470  -23.7070 N   0  0  0  0  0  0
    6.6580    1.1030  -22.5870 N   0  0  1  0  0  0
   -3.7030    3.7830  -27.8620 O   0  0  0  0  0  0
   -5.8125    3.6983  -21.1828 H   0  0  0  0  0  0
   -6.3105    4.0149  -23.5704 H   0  0  0  0  0  0
    5.7849    4.0026  -21.3989 H   0  0  0  0  0  0
    7.0458    3.0231  -20.5285 H   0  0  0  0  0  0
    6.4774    2.7020  -24.7672 H   0  0  0  0  0  0
    6.2393    4.2396  -23.8763 H   0  0  0  0  0  0
   -5.5299    4.0707  -25.9403 H   0  0  0  0  0  0
    2.3879    1.7632  -24.7643 H   0  0  0  0  0  0
    3.2731    1.3476  -22.8770 H   0  0  0  0  0  0
    4.4654    0.6987  -24.0665 H   0  0  0  0  0  0
    5.0312    0.0327  -21.7199 H   0  0  0  0  0  0
    7.9179    2.8294  -22.7035 H   0  0  0  0  0  0
    4.2698    2.5416  -20.8765 H   0  0  0  0  0  0
    5.5576    1.5346  -20.0042 H   0  0  0  0  0  0
   -1.3992    3.5609  -26.8888 H   0  0  0  0  0  0
    0.5601    2.1740  -20.8159 H   0  0  0  0  0  0
    7.3104    0.6046  -21.8854 H   0  0  0  0  0  0
   -2.8623    3.6909  -28.2947 H   0  0  0  0  0  0
    3.8380   11.6120  -21.1340 F   0  0  0  0  0  0
    3.2060    8.5090  -23.0970 N   0  3  0  0  0  0
    3.7590    9.8740  -22.7770 C   0  0  0  0  0  0
    3.8730    7.3530  -22.4000 C   0  0  0  0  0  0
    3.5230   10.2680  -21.3070 C   0  0  0  0  0  0
    3.2390    8.3619  -24.0937 H   0  0  0  0  0  0
    2.2187    8.4950  -22.8941 H   0  0  0  0  0  0
    3.2929   10.6212  -23.4362 H   0  0  0  0  0  0
    4.8377    9.8900  -22.9919 H   0  0  0  0  0  0
    3.7390    7.4540  -21.3129 H   0  0  0  0  0  0
    4.9541    7.3800  -22.6010 H   0  0  0  0  0  0
    2.4665   10.1029  -21.0489 H   0  0  0  0  0  0
    4.1639    9.6551  -20.6561 H   0  0  0  0  0  0
  1  2  2  0  0  0
  1  3  1  0  0  0
  1 34  1  0  0  0
  2  6  1  0  0  0
  2 35  1  0  0  0
  3  5  2  0  0  0
  3 27  1  0  0  0
  4  5  1  0  0  0
  4  6  2  0  0  0
  4 18  1  0  0  0
  5 24  1  0  0  0
  6 10  1  0  0  0
  7 10  2  0  0  0
  7 23  1  0  0  0
  7 33  1  0  0  0
  8 21  1  0  0  0
  8 22  1  0  0  0
  8 36  1  0  0  0
  8 37  1  0  0  0
  9 21  1  0  0  0
  9 31  1  0  0  0
  9 38  1  0  0  0
  9 39  1  0  0  0
 10 40  1  0  0  0
 11 12  1  0  0  0
 11 14  2  0  0  0
 11 15  1  0  0  0
 12 17  1  0  0  0
 12 28  2  0  0  0
 13 28  1  0  0  0
 13 29  2  0  0  0
 13 55  1  0  0  0
 14 29  1  0  0  0
 14 31  1  0  0  0
 15 30  2  0  0  0
 15 41  1  0  0  0
 16 17  2  0  0  0
 16 18  1  0  0  0
 16 30  1  0  0  0
 17 26  1  0  0  0
 18 23  2  0  0  0
 19 20  1  0  0  0
 19 31  1  0  0  0
 19 42  1  0  0  0
 19 43  1  0  0  0
 20 22  1  0  0  0
 20 32  1  0  0  0
 20 44  1  0  0  0
 21 32  1  0  0  0
 21 45  1  0  0  0
 22 46  1  0  0  0
 22 47  1  0  0  0
 23 48  1  0  0  0
 24 25  3  0  0  0
 25 49  1  0  0  0
 32 50  1  0  0  0
 33 51  1  0  0  0
 52 56  1  0  0  0
 53 54  1  0  0  0
 53 55  1  0  0  0
 53 57  1  0  0  0
 53 58  1  0  0  0
 54 56  1  0  0  0
 54 59  1  0  0  0
 54 60  1  0  0  0
 55 61  1  0  0  0
 55 62  1  0  0  0
 56 63  1  0  0  0
 56 64  1  0  0  0
M  CHG  1  53   1
M  END
> <s_m_entry_id>
556

> <s_m_entry_name>
000000556.1

> <s_m_Source_Path>
/Users/zaksoul/Documents/2

> <s_m_Source_File>
000000556.mol2

> <i_m_Source_File_Index>
1

$$$$
No_0_580
                    3D
 Schrodinger Suite 2022-4.
 67 72  0  0  1  0            999 V2000
   -5.3690    3.0800  -22.1580 C   0  0  0  0  0  0
   -5.6240    3.2750  -23.4950 C   0  0  0  0  0  0
   -4.1290    2.8600  -21.8040 C   0  0  0  0  0  0
   -3.2140    3.0330  -23.9560 C   0  0  0  0  0  0
   -3.0640    2.7790  -22.5360 C   0  0  0  0  0  0
   -4.5620    3.2620  -24.4920 C   0  0  0  0  0  0
   -3.7800    3.3270  -26.6800 C   0  0  0  0  0  0
    5.8990    2.8220  -21.2970 C   0  0  0  0  0  0
    5.7890    2.9850  -23.8460 C   0  0  0  0  0  0
   -4.8000    3.3950  -25.8290 C   0  0  0  0  0  0
    1.9900    3.4240  -23.9070 C   0  0  0  0  0  0
    1.1340    4.5050  -23.6080 C   0  0  0  0  0  0
    2.8880    5.7460  -22.8930 C   0  0  0  0  0  0
    3.3800    3.6520  -23.5740 C   0  0  0  0  0  0
    1.4850    2.2980  -24.5860 C   0  0  0  0  0  0
   -0.6660    3.0490  -24.4950 C   0  0  0  0  0  0
   -0.1830    4.2780  -23.8780 C   0  0  0  0  0  0
   -2.1140    3.0160  -24.8680 C   0  0  0  0  0  0
    4.0540    1.1700  -23.2980 C   0  0  0  0  0  0
    4.9830    0.8300  -22.1430 C   0  0  2  0  0  0
    6.5380    2.4210  -22.6440 C   0  0  2  0  0  0
    4.9220    1.8180  -20.9670 C   0  0  0  0  0  0
   -2.4260    3.1810  -26.2990 C   0  0  0  0  0  0
   -1.7160    2.3990  -21.9240 C   0  0  0  0  0  0
   -0.6820    2.0760  -21.4090 C   0  0  0  0  0  0
   -1.0590    5.2950  -23.5340 F   0  0  0  0  0  0
   -3.9290    2.6090  -20.4210 F   0  0  0  0  0  0
    1.5700    5.6720  -23.0590 N   0  0  0  0  0  0
    3.8140    4.8110  -23.1110 N   0  0  0  0  0  0
    0.1860    2.1740  -24.9090 N   0  0  0  0  0  0
    4.3310    2.6330  -23.7490 N   0  0  0  0  0  0
    6.3930    0.9420  -22.6070 N   0  0  1  0  0  0
   -3.9360    3.3510  -28.0720 O   0  0  0  0  0  0
   -6.1818    3.1131  -21.4415 H   0  0  0  0  0  0
   -6.6397    3.4436  -23.8342 H   0  0  0  0  0  0
    5.4013    3.7972  -21.4030 H   0  0  0  0  0  0
    6.6746    2.8472  -20.5174 H   0  0  0  0  0  0
    6.2079    2.5611  -24.7706 H   0  0  0  0  0  0
    5.9000    4.0792  -23.8672 H   0  0  0  0  0  0
   -5.8109    3.5546  -26.1864 H   0  0  0  0  0  0
    2.1515    1.4910  -24.8681 H   0  0  0  0  0  0
    3.0089    1.0801  -22.9668 H   0  0  0  0  0  0
    4.2466    0.4852  -24.1371 H   0  0  0  0  0  0
    4.7843   -0.1920  -21.7879 H   0  0  0  0  0  0
    7.5990    2.7097  -22.6753 H   0  0  0  0  0  0
    3.9244    2.2800  -20.9317 H   0  0  0  0  0  0
    5.2247    1.3043  -20.0426 H   0  0  0  0  0  0
   -1.6466    3.1910  -27.0523 H   0  0  0  0  0  0
    0.2281    1.7920  -20.9549 H   0  0  0  0  0  0
    7.0463    0.4566  -21.8971 H   0  0  0  0  0  0
   -3.0836    3.2917  -28.4873 H   0  0  0  0  0  0
    7.3760    9.6310  -19.8590 F   0  0  0  0  0  0
    4.4120    6.9140  -21.3030 N   0  3  0  0  0  0
    6.0280    8.8340  -21.6710 C   0  0  0  0  0  0
    3.4020    7.0960  -22.4050 C   0  0  0  0  0  0
    4.9850    8.1840  -20.7340 C   0  0  0  0  0  0
    7.4190    8.8560  -21.0130 C   0  0  0  0  0  0
    5.1629    6.3281  -21.6330 H   0  0  0  0  0  0
    4.0002    6.3723  -20.5594 H   0  0  0  0  0  0
    5.7181    9.8627  -21.9069 H   0  0  0  0  0  0
    6.0780    8.2681  -22.6129 H   0  0  0  0  0  0
    3.8680    7.6350  -23.2430 H   0  0  0  0  0  0
    2.5584    7.6964  -22.0337 H   0  0  0  0  0  0
    5.4509    7.9721  -19.7603 H   0  0  0  0  0  0
    4.1712    8.8988  -20.5421 H   0  0  0  0  0  0
    7.7182    7.8292  -20.7558 H   0  0  0  0  0  0
    8.1491    9.2850  -21.7151 H   0  0  0  0  0  0
  1  2  2  0  0  0
  1  3  1  0  0  0
  1 34  1  0  0  0
  2  6  1  0  0  0
  2 35  1  0  0  0
  3  5  2  0  0  0
  3 27  1  0  0  0
  4  5  1  0  0  0
  4  6  2  0  0  0
  4 18  1  0  0  0
  5 24  1  0  0  0
  6 10  1  0  0  0
  7 10  2  0  0  0
  7 23  1  0  0  0
  7 33  1  0  0  0
  8 21  1  0  0  0
  8 22  1  0  0  0
  8 36  1  0  0  0
  8 37  1  0  0  0
  9 21  1  0  0  0
  9 31  1  0  0  0
  9 38  1  0  0  0
  9 39  1  0  0  0
 10 40  1  0  0  0
 11 12  1  0  0  0
 11 14  2  0  0  0
 11 15  1  0  0  0
 12 17  1  0  0  0
 12 28  2  0  0  0
 13 28  1  0  0  0
 13 29  2  0  0  0
 13 55  1  0  0  0
 14 29  1  0  0  0
 14 31  1  0  0  0
 15 30  2  0  0  0
 15 41  1  0  0  0
 16 17  2  0  0  0
 16 18  1  0  0  0
 16 30  1  0  0  0
 17 26  1  0  0  0
 18 23  2  0  0  0
 19 20  1  0  0  0
 19 31  1  0  0  0
 19 42  1  0  0  0
 19 43  1  0  0  0
 20 22  1  0  0  0
 20 32  1  0  0  0
 20 44  1  0  0  0
 21 32  1  0  0  0
 21 45  1  0  0  0
 22 46  1  0  0  0
 22 47  1  0  0  0
 23 48  1  0  0  0
 24 25  3  0  0  0
 25 49  1  0  0  0
 32 50  1  0  0  0
 33 51  1  0  0  0
 52 57  1  0  0  0
 53 55  1  0  0  0
 53 56  1  0  0  0
 53 58  1  0  0  0
 53 59  1  0  0  0
 54 56  1  0  0  0
 54 57  1  0  0  0
 54 60  1  0  0  0
 54 61  1  0  0  0
 55 62  1  0  0  0
 55 63  1  0  0  0
 56 64  1  0  0  0
 56 65  1  0  0  0
 57 66  1  0  0  0
 57 67  1  0  0  0
M  CHG  1  53   1
M  END
> <s_m_entry_id>
557

> <s_m_entry_name>
000000557.1

> <s_m_Source_Path>
/Users/zaksoul/Documents/2

> <s_m_Source_File>
000000557.mol2

> <i_m_Source_File_Index>
1

$$$$
No_0_581
                    3D
 Schrodinger Suite 2022-4.
 67 72  0  0  1  0            999 V2000
   -5.5300    3.4230  -21.9760 C   0  0  0  0  0  0
   -5.7710    3.6070  -23.3170 C   0  0  0  0  0  0
   -4.2980    3.1740  -21.6110 C   0  0  0  0  0  0
   -3.3650    3.2960  -23.7590 C   0  0  0  0  0  0
   -3.2320    3.0560  -22.3350 C   0  0  0  0  0  0
   -4.7030    3.5530  -24.3070 C   0  0  0  0  0  0
   -3.9060    3.5700  -26.4900 C   0  0  0  0  0  0
    5.7220    2.8750  -21.0360 C   0  0  0  0  0  0
    5.6320    3.0090  -23.5880 C   0  0  0  0  0  0
   -4.9290    3.6760  -25.6470 C   0  0  0  0  0  0
    1.8470    3.5480  -23.6800 C   0  0  0  0  0  0
    1.0180    4.6560  -23.4000 C   0  0  0  0  0  0
    2.8000    5.8580  -22.6900 C   0  0  0  0  0  0
    3.2410    3.7430  -23.3410 C   0  0  0  0  0  0
    1.3160    2.4280  -24.3480 C   0  0  0  0  0  0
   -0.8150    3.2360  -24.2810 C   0  0  0  0  0  0
   -0.3030    4.4600  -23.6760 C   0  0  0  0  0  0
   -2.2610    3.2380  -24.6640 C   0  0  0  0  0  0
    3.8460    1.2480  -23.0290 C   0  0  0  0  0  0
    4.7580    0.8980  -21.8640 C   0  0  2  0  0  0
    6.3580    2.4410  -22.3740 C   0  0  2  0  0  0
    4.7160    1.9030  -20.7000 C   0  0  0  0  0  0
   -2.5590    3.3920  -26.0980 C   0  0  0  0  0  0
   -1.8980    2.6480  -21.7100 C   0  0  0  0  0  0
   -0.8760    2.3040  -21.1830 C   0  0  0  0  0  0
   -1.1530    5.5040  -23.3510 F   0  0  0  0  0  0
   -4.1140    2.9360  -20.2240 F   0  0  0  0  0  0
    1.4820    5.8180  -22.8630 N   0  0  0  0  0  0
    3.7020    4.8970  -22.8890 N   0  0  0  0  0  0
    0.0160    2.3340  -24.6780 N   0  0  0  0  0  0
    4.1640    2.6970  -23.4970 N   0  0  0  0  0  0
    6.1740    0.9670  -22.3190 N   0  0  1  0  0  0
   -4.0520    3.5800  -27.8830 O   0  0  0  0  0  0
   -6.3461    3.4862  -21.2653 H   0  0  0  0  0  0
   -6.7795    3.7987  -23.6652 H   0  0  0  0  0  0
    5.2509    3.8615  -21.1581 H   0  0  0  0  0  0
    6.4932    2.8901  -20.2517 H   0  0  0  0  0  0
    6.0449    2.5628  -24.5047 H   0  0  0  0  0  0
    5.7732    4.0994  -23.6213 H   0  0  0  0  0  0
   -5.9329    3.8577  -26.0134 H   0  0  0  0  0  0
    1.9625    1.5998  -24.6150 H   0  0  0  0  0  0
    2.7970    1.1905  -22.7029 H   0  0  0  0  0  0
    4.0256    0.5479  -23.8582 H   0  0  0  0  0  0
    4.5299   -0.1134  -21.4966 H   0  0  0  0  0  0
    7.4266    2.7003  -22.4012 H   0  0  0  0  0  0
    3.7305    2.3912  -20.6768 H   0  0  0  0  0  0
    4.9995    1.3925  -19.7678 H   0  0  0  0  0  0
   -1.7748    3.3719  -26.8461 H   0  0  0  0  0  0
    0.0229    2.0010  -20.7190 H   0  0  0  0  0  0
    6.8090    0.4731  -21.5984 H   0  0  0  0  0  0
   -3.1989    3.4929  -28.2918 H   0  0  0  0  0  0
    7.6680    9.7970  -20.4020 F   0  0  0  0  0  0
    4.5860    7.0050  -21.3810 N   0  3  0  0  0  0
    5.9860    9.0470  -21.9340 C   0  0  0  0  0  0
    3.3470    7.2000  -22.2150 C   0  0  0  0  0  0
    5.2120    8.2660  -20.8480 C   0  0  0  0  0  0
    7.4860    9.1110  -21.5990 C   0  0  0  0  0  0
    5.2708    6.4941  -21.9159 H   0  0  0  0  0  0
    4.3771    6.3862  -20.6132 H   0  0  0  0  0  0
    5.5839   10.0682  -22.0080 H   0  0  0  0  0  0
    5.8500    8.5528  -22.9073 H   0  0  0  0  0  0
    3.5869    7.8267  -23.0866 H   0  0  0  0  0  0
    2.5811    7.7169  -21.6181 H   0  0  0  0  0  0
    5.8939    8.0150  -20.0221 H   0  0  0  0  0  0
    4.4292    8.9108  -20.4221 H   0  0  0  0  0  0
    7.8839    8.0903  -21.5000 H   0  0  0  0  0  0
    8.0198    9.6348  -22.4057 H   0  0  0  0  0  0
  1  2  2  0  0  0
  1  3  1  0  0  0
  1 34  1  0  0  0
  2  6  1  0  0  0
  2 35  1  0  0  0
  3  5  2  0  0  0
  3 27  1  0  0  0
  4  5  1  0  0  0
  4  6  2  0  0  0
  4 18  1  0  0  0
  5 24  1  0  0  0
  6 10  1  0  0  0
  7 10  2  0  0  0
  7 23  1  0  0  0
  7 33  1  0  0  0
  8 21  1  0  0  0
  8 22  1  0  0  0
  8 36  1  0  0  0
  8 37  1  0  0  0
  9 21  1  0  0  0
  9 31  1  0  0  0
  9 38  1  0  0  0
  9 39  1  0  0  0
 10 40  1  0  0  0
 11 12  1  0  0  0
 11 14  2  0  0  0
 11 15  1  0  0  0
 12 17  1  0  0  0
 12 28  2  0  0  0
 13 28  1  0  0  0
 13 29  2  0  0  0
 13 55  1  0  0  0
 14 29  1  0  0  0
 14 31  1  0  0  0
 15 30  2  0  0  0
 15 41  1  0  0  0
 16 17  2  0  0  0
 16 18  1  0  0  0
 16 30  1  0  0  0
 17 26  1  0  0  0
 18 23  2  0  0  0
 19 20  1  0  0  0
 19 31  1  0  0  0
 19 42  1  0  0  0
 19 43  1  0  0  0
 20 22  1  0  0  0
 20 32  1  0  0  0
 20 44  1  0  0  0
 21 32  1  0  0  0
 21 45  1  0  0  0
 22 46  1  0  0  0
 22 47  1  0  0  0
 23 48  1  0  0  0
 24 25  3  0  0  0
 25 49  1  0  0  0
 32 50  1  0  0  0
 33 51  1  0  0  0
 52 57  1  0  0  0
 53 55  1  0  0  0
 53 56  1  0  0  0
 53 58  1  0  0  0
 53 59  1  0  0  0
 54 56  1  0  0  0
 54 57  1  0  0  0
 54 60  1  0  0  0
 54 61  1  0  0  0
 55 62  1  0  0  0
 55 63  1  0  0  0
 56 64  1  0  0  0
 56 65  1  0  0  0
 57 66  1  0  0  0
 57 67  1  0  0  0
M  CHG  1  53   1
M  END
> <s_m_entry_id>
558

> <s_m_entry_name>
000000558.1

> <s_m_Source_Path>
/Users/zaksoul/Documents/2

> <s_m_Source_File>
000000558.mol2

> <i_m_Source_File_Index>
1

$$$$
No_0_582
                    3D
 Schrodinger Suite 2022-4.
 67 72  0  0  1  0            999 V2000
   -5.4950    3.2600  -22.4550 C   0  0  0  0  0  0
   -5.6950    3.4080  -23.8070 C   0  0  0  0  0  0
   -4.2690    3.0520  -22.0440 C   0  0  0  0  0  0
   -3.2690    3.1520  -24.1630 C   0  0  0  0  0  0
   -3.1770    2.9470  -22.7300 C   0  0  0  0  0  0
   -4.5940    3.3610  -24.7600 C   0  0  0  0  0  0
   -3.7250    3.3520  -26.9160 C   0  0  0  0  0  0
    5.7300    3.0380  -21.1340 C   0  0  0  0  0  0
    5.7220    3.1140  -23.6900 C   0  0  0  0  0  0
   -4.7780    3.4480  -26.1100 C   0  0  0  0  0  0
    1.9290    3.5480  -23.9190 C   0  0  0  0  0  0
    1.0620    4.6380  -23.6920 C   0  0  0  0  0  0
    2.7870    5.9040  -22.9500 C   0  0  0  0  0  0
    3.3050    3.7880  -23.5380 C   0  0  0  0  0  0
    1.4510    2.3990  -24.5780 C   0  0  0  0  0  0
   -0.7020    3.1510  -24.5990 C   0  0  0  0  0  0
   -0.2430    4.4000  -24.0060 C   0  0  0  0  0  0
   -2.1340    3.1050  -25.0290 C   0  0  0  0  0  0
    3.9660    1.3170  -23.1500 C   0  0  0  0  0  0
    4.8470    1.0180  -21.9480 C   0  0  2  0  0  0
    6.4220    2.5920  -22.4410 C   0  0  2  0  0  0
    4.7390    2.0460  -20.8100 C   0  0  0  0  0  0
   -2.3880    3.2190  -26.4760 C   0  0  0  0  0  0
   -1.8540    2.5890  -22.0520 C   0  0  0  0  0  0
   -0.8420    2.2850  -21.4840 C   0  0  0  0  0  0
   -1.1310    5.4280  -23.7330 F   0  0  0  0  0  0
   -4.1250    2.8500  -20.6470 F   0  0  0  0  0  0
    1.4770    5.8240  -23.1660 N   0  0  0  0  0  0
    3.7210    4.9630  -23.0990 N   0  0  0  0  0  0
    0.1650    2.2630  -24.9480 N   0  0  0  0  0  0
    4.2610    2.7640  -23.6400 N   0  0  0  0  0  0
    6.2750    1.1150  -22.3580 N   0  0  1  0  0  0
   -3.8250    3.3270  -28.3120 O   0  0  0  0  0  0
   -6.3357    3.3162  -21.7730 H   0  0  0  0  0  0
   -6.6962    3.5635  -24.1922 H   0  0  0  0  0  0
    5.2377    4.0085  -21.2944 H   0  0  0  0  0  0
    6.4739    3.0915  -20.3255 H   0  0  0  0  0  0
    6.1771    2.6589  -24.5821 H   0  0  0  0  0  0
    5.8350    4.2068  -23.7445 H   0  0  0  0  0  0
   -5.7738    3.5946  -26.5125 H   0  0  0  0  0  0
    2.1275    1.5830  -24.8048 H   0  0  0  0  0  0
    2.9083    1.2383  -22.8583 H   0  0  0  0  0  0
    4.1910    0.6045  -23.9573 H   0  0  0  0  0  0
    4.6331    0.0090  -21.5656 H   0  0  0  0  0  0
    7.4837    2.8799  -22.4390 H   0  0  0  0  0  0
    3.7410    2.5082  -20.8302 H   0  0  0  0  0  0
    5.0044    1.5646  -19.8572 H   0  0  0  0  0  0
   -1.5787    3.2039  -27.1970 H   0  0  0  0  0  0
    0.0492    2.0169  -20.9849 H   0  0  0  0  0  0
    6.8985    0.6541  -21.6062 H   0  0  0  0  0  0
   -2.9570    3.2538  -28.6911 H   0  0  0  0  0  0
    7.6000   10.2320  -21.3540 F   0  0  0  0  0  0
    4.6770    7.1690  -21.9290 N   0  3  0  0  0  0
    5.7280    9.3840  -22.5830 C   0  0  0  0  0  0
    3.2820    7.2700  -22.4890 C   0  0  0  0  0  0
    5.2690    8.4610  -21.4310 C   0  0  0  0  0  0
    7.2500    9.5980  -22.5420 C   0  0  0  0  0  0
    5.2873    6.7688  -22.6243 H   0  0  0  0  0  0
    4.6890    6.4890  -21.1850 H   0  0  0  0  0  0
    5.2192   10.3556  -22.4990 H   0  0  0  0  0  0
    5.4471    8.9341  -23.5467 H   0  0  0  0  0  0
    3.2790    7.9681  -23.3391 H   0  0  0  0  0  0
    2.6051    7.6630  -21.7161 H   0  0  0  0  0  0
    6.1248    8.2431  -20.7752 H   0  0  0  0  0  0
    4.5279    8.9890  -20.8129 H   0  0  0  0  0  0
    7.7591    8.6247  -22.6010 H   0  0  0  0  0  0
    7.5560   10.2230  -23.3939 H   0  0  0  0  0  0
  1  2  2  0  0  0
  1  3  1  0  0  0
  1 34  1  0  0  0
  2  6  1  0  0  0
  2 35  1  0  0  0
  3  5  2  0  0  0
  3 27  1  0  0  0
  4  5  1  0  0  0
  4  6  2  0  0  0
  4 18  1  0  0  0
  5 24  1  0  0  0
  6 10  1  0  0  0
  7 10  2  0  0  0
  7 23  1  0  0  0
  7 33  1  0  0  0
  8 21  1  0  0  0
  8 22  1  0  0  0
  8 36  1  0  0  0
  8 37  1  0  0  0
  9 21  1  0  0  0
  9 31  1  0  0  0
  9 38  1  0  0  0
  9 39  1  0  0  0
 10 40  1  0  0  0
 11 12  1  0  0  0
 11 14  2  0  0  0
 11 15  1  0  0  0
 12 17  1  0  0  0
 12 28  2  0  0  0
 13 28  1  0  0  0
 13 29  2  0  0  0
 13 55  1  0  0  0
 14 29  1  0  0  0
 14 31  1  0  0  0
 15 30  2  0  0  0
 15 41  1  0  0  0
 16 17  2  0  0  0
 16 18  1  0  0  0
 16 30  1  0  0  0
 17 26  1  0  0  0
 18 23  2  0  0  0
 19 20  1  0  0  0
 19 31  1  0  0  0
 19 42  1  0  0  0
 19 43  1  0  0  0
 20 22  1  0  0  0
 20 32  1  0  0  0
 20 44  1  0  0  0
 21 32  1  0  0  0
 21 45  1  0  0  0
 22 46  1  0  0  0
 22 47  1  0  0  0
 23 48  1  0  0  0
 24 25  3  0  0  0
 25 49  1  0  0  0
 32 50  1  0  0  0
 33 51  1  0  0  0
 52 57  1  0  0  0
 53 55  1  0  0  0
 53 56  1  0  0  0
 53 58  1  0  0  0
 53 59  1  0  0  0
 54 56  1  0  0  0
 54 57  1  0  0  0
 54 60  1  0  0  0
 54 61  1  0  0  0
 55 62  1  0  0  0
 55 63  1  0  0  0
 56 64  1  0  0  0
 56 65  1  0  0  0
 57 66  1  0  0  0
 57 67  1  0  0  0
M  CHG  1  53   1
M  END
> <s_m_entry_id>
559

> <s_m_entry_name>
000000559.1

> <s_m_Source_Path>
/Users/zaksoul/Documents/2

> <s_m_Source_File>
000000559.mol2

> <i_m_Source_File_Index>
1

$$$$
No_0_583
                    3D
 Schrodinger Suite 2022-4.
 67 72  0  0  1  0            999 V2000
   -5.1670    3.2060  -21.8870 C   0  0  0  0  0  0
   -5.4550    3.4300  -23.2120 C   0  0  0  0  0  0
   -3.9130    3.0120  -21.5640 C   0  0  0  0  0  0
   -3.0490    3.2730  -23.7280 C   0  0  0  0  0  0
   -2.8620    2.9840  -22.3190 C   0  0  0  0  0  0
   -4.4140    3.4770  -24.2300 C   0  0  0  0  0  0
   -3.6800    3.6260  -26.4310 C   0  0  0  0  0  0
    6.1200    3.2590  -21.2580 C   0  0  0  0  0  0
    5.9520    3.4900  -23.7990 C   0  0  0  0  0  0
   -4.6830    3.6400  -25.5580 C   0  0  0  0  0  0
    2.1420    3.8170  -23.7720 C   0  0  0  0  0  0
    1.2600    4.8640  -23.4250 C   0  0  0  0  0  0
    2.9920    6.1350  -22.7100 C   0  0  0  0  0  0
    3.5310    4.0770  -23.4600 C   0  0  0  0  0  0
    1.6550    2.6960  -24.4720 C   0  0  0  0  0  0
   -0.5140    3.3790  -24.3170 C   0  0  0  0  0  0
   -0.0540    4.6050  -23.6750 C   0  0  0  0  0  0
   -1.9680    3.3150  -24.6620 C   0  0  0  0  0  0
    4.2830    1.6090  -23.2690 C   0  0  0  0  0  0
    5.2450    1.2650  -22.1430 C   0  0  2  0  0  0
    6.7420    2.9150  -22.6290 C   0  0  2  0  0  0
    5.1790    2.2180  -20.9380 C   0  0  0  0  0  0
   -2.3150    3.5090  -26.0810 C   0  0  0  0  0  0
   -1.4910    2.6270  -21.7450 C   0  0  0  0  0  0
   -0.4380    2.3210  -21.2600 C   0  0  0  0  0  0
   -0.9520    5.5850  -23.2850 F   0  0  0  0  0  0
   -3.6770    2.7300  -20.1930 F   0  0  0  0  0  0
    1.6740    6.0270  -22.8520 N   0  0  0  0  0  0
    3.9410    5.2350  -22.9730 N   0  0  0  0  0  0
    0.3540    2.5420  -24.7730 N   0  0  0  0  0  0
    4.5070    3.0920  -23.6830 N   0  0  0  0  0  0
    6.6420    1.4320  -22.6310 N   0  0  1  0  0  0
   -3.8650    3.6840  -27.8180 O   0  0  0  0  0  0
   -5.9649    3.1940  -21.1533 H   0  0  0  0  0  0
   -6.4819    3.5776  -23.5262 H   0  0  0  0  0  0
    5.5910    4.2210  -21.3266 H   0  0  0  0  0  0
    6.9106    3.2853  -20.4936 H   0  0  0  0  0  0
    6.3638    3.1054  -24.7437 H   0  0  0  0  0  0
    6.0307    4.5871  -23.7909 H   0  0  0  0  0  0
   -5.7051    3.7794  -25.8910 H   0  0  0  0  0  0
    2.3385    1.9171  -24.7902 H   0  0  0  0  0  0
    3.2483    1.4789  -22.9191 H   0  0  0  0  0  0
    4.4778    0.9540  -24.1310 H   0  0  0  0  0  0
    5.0837    0.2284  -21.8123 H   0  0  0  0  0  0
    7.7932    3.2361  -22.6724 H   0  0  0  0  0  0
    4.1692    2.6488  -20.8694 H   0  0  0  0  0  0
    5.5159    1.6874  -20.0352 H   0  0  0  0  0  0
   -1.5515    3.5632  -26.8485 H   0  0  0  0  0  0
    0.4889    2.0510  -20.8321 H   0  0  0  0  0  0
    7.3231    0.9466  -21.9477 H   0  0  0  0  0  0
   -3.0199    3.6612  -28.2514 H   0  0  0  0  0  0
    7.6510   10.8270  -21.8570 F   0  0  0  0  0  0
    4.9780    7.5010  -22.0710 N   0  3  0  0  0  0
    5.5830    9.9000  -22.6320 C   0  0  0  0  0  0
    3.4770    7.4860  -22.1940 C   0  0  0  0  0  0
    5.5720    8.7870  -21.5600 C   0  0  0  0  0  0
    7.0240   10.3080  -22.9850 C   0  0  0  0  0  0
    5.3881    7.2770  -22.9641 H   0  0  0  0  0  0
    5.2711    6.7398  -21.4788 H   0  0  0  0  0  0
    5.0363   10.7766  -22.2542 H   0  0  0  0  0  0
    5.0709    9.5419  -23.5373 H   0  0  0  0  0  0
    3.1581    8.2787  -22.8868 H   0  0  0  0  0  0
    3.0271    7.6850  -21.2101 H   0  0  0  0  0  0
    6.5998    8.6030  -21.2141 H   0  0  0  0  0  0
    5.0030    9.1290  -20.6829 H   0  0  0  0  0  0
    7.5772    9.4257  -23.3391 H   0  0  0  0  0  0
    7.0050   11.0705  -23.7776 H   0  0  0  0  0  0
  1  2  2  0  0  0
  1  3  1  0  0  0
  1 34  1  0  0  0
  2  6  1  0  0  0
  2 35  1  0  0  0
  3  5  2  0  0  0
  3 27  1  0  0  0
  4  5  1  0  0  0
  4  6  2  0  0  0
  4 18  1  0  0  0
  5 24  1  0  0  0
  6 10  1  0  0  0
  7 10  2  0  0  0
  7 23  1  0  0  0
  7 33  1  0  0  0
  8 21  1  0  0  0
  8 22  1  0  0  0
  8 36  1  0  0  0
  8 37  1  0  0  0
  9 21  1  0  0  0
  9 31  1  0  0  0
  9 38  1  0  0  0
  9 39  1  0  0  0
 10 40  1  0  0  0
 11 12  1  0  0  0
 11 14  2  0  0  0
 11 15  1  0  0  0
 12 17  1  0  0  0
 12 28  2  0  0  0
 13 28  1  0  0  0
 13 29  2  0  0  0
 13 55  1  0  0  0
 14 29  1  0  0  0
 14 31  1  0  0  0
 15 30  2  0  0  0
 15 41  1  0  0  0
 16 17  2  0  0  0
 16 18  1  0  0  0
 16 30  1  0  0  0
 17 26  1  0  0  0
 18 23  2  0  0  0
 19 20  1  0  0  0
 19 31  1  0  0  0
 19 42  1  0  0  0
 19 43  1  0  0  0
 20 22  1  0  0  0
 20 32  1  0  0  0
 20 44  1  0  0  0
 21 32  1  0  0  0
 21 45  1  0  0  0
 22 46  1  0  0  0
 22 47  1  0  0  0
 23 48  1  0  0  0
 24 25  3  0  0  0
 25 49  1  0  0  0
 32 50  1  0  0  0
 33 51  1  0  0  0
 52 57  1  0  0  0
 53 55  1  0  0  0
 53 56  1  0  0  0
 53 58  1  0  0  0
 53 59  1  0  0  0
 54 56  1  0  0  0
 54 57  1  0  0  0
 54 60  1  0  0  0
 54 61  1  0  0  0
 55 62  1  0  0  0
 55 63  1  0  0  0
 56 64  1  0  0  0
 56 65  1  0  0  0
 57 66  1  0  0  0
 57 67  1  0  0  0
M  CHG  1  53   1
M  END
> <s_m_entry_id>
560

> <s_m_entry_name>
000000560.1

> <s_m_Source_Path>
/Users/zaksoul/Documents/2

> <s_m_Source_File>
000000560.mol2

> <i_m_Source_File_Index>
1

$$$$
No_0_584
                    3D
 Schrodinger Suite 2022-4.
 67 72  0  0  1  0            999 V2000
   -5.2450    3.4970  -21.9860 C   0  0  0  0  0  0
   -5.5020    3.6650  -23.3260 C   0  0  0  0  0  0
   -4.0040    3.2800  -21.6300 C   0  0  0  0  0  0
   -3.0940    3.4080  -23.7880 C   0  0  0  0  0  0
   -2.9410    3.1820  -22.3640 C   0  0  0  0  0  0
   -4.4430    3.6300  -24.3250 C   0  0  0  0  0  0
   -3.6670    3.6490  -26.5160 C   0  0  0  0  0  0
    6.0250    3.2250  -21.1490 C   0  0  0  0  0  0
    5.9080    3.3380  -23.7010 C   0  0  0  0  0  0
   -4.6840    3.7370  -25.6640 C   0  0  0  0  0  0
    2.1110    3.7860  -23.7610 C   0  0  0  0  0  0
    1.2580    4.8750  -23.4810 C   0  0  0  0  0  0
    3.0170    6.1250  -22.7960 C   0  0  0  0  0  0
    3.5030    4.0160  -23.4360 C   0  0  0  0  0  0
    1.6010    2.6480  -24.4160 C   0  0  0  0  0  0
   -0.5480    3.4060  -24.3340 C   0  0  0  0  0  0
   -0.0600    4.6460  -23.7430 C   0  0  0  0  0  0
   -1.9970    3.3700  -24.7030 C   0  0  0  0  0  0
    4.1710    1.5380  -23.1130 C   0  0  0  0  0  0
    5.1020    1.2190  -21.9530 C   0  0  2  0  0  0
    6.6590    2.7960  -22.4900 C   0  0  2  0  0  0
    5.0460    2.2310  -20.7970 C   0  0  0  0  0  0
   -2.3130    3.5060  -26.1350 C   0  0  0  0  0  0
   -1.5930    2.8110  -21.7480 C   0  0  0  0  0  0
   -0.5580    2.4950  -21.2290 C   0  0  0  0  0  0
   -0.9320    5.6720  -23.4170 F   0  0  0  0  0  0
   -3.8010    3.0570  -20.2440 F   0  0  0  0  0  0
    1.6990    6.0510  -22.9570 N   0  0  0  0  0  0
    3.9410    5.1840  -22.9980 N   0  0  0  0  0  0
    0.3000    2.5210  -24.7330 N   0  0  0  0  0  0
    4.4500    2.9910  -23.5940 N   0  0  0  0  0  0
    6.5110    1.3180  -22.4230 N   0  0  1  0  0  0
   -3.8260    3.6450  -27.9070 O   0  0  0  0  0  0
   -6.0550    3.5462  -21.2673 H   0  0  0  0  0  0
   -6.5182    3.8305  -23.6651 H   0  0  0  0  0  0
    5.5294    4.1990  -21.2742 H   0  0  0  0  0  0
    6.8034    3.2634  -20.3727 H   0  0  0  0  0  0
    6.3237    2.8951  -24.6181 H   0  0  0  0  0  0
    6.0231    4.4311  -23.7444 H   0  0  0  0  0  0
   -5.6954    3.8915  -26.0222 H   0  0  0  0  0  0
    2.2643    1.8332  -24.6829 H   0  0  0  0  0  0
    3.1266    1.4583  -22.7770 H   0  0  0  0  0  0
    4.3598    0.8363  -23.9388 H   0  0  0  0  0  0
    4.9003    0.2052  -21.5767 H   0  0  0  0  0  0
    7.7208    3.0806  -22.5294 H   0  0  0  0  0  0
    4.0497    2.6963  -20.7677 H   0  0  0  0  0  0
    5.3507    1.7347  -19.8638 H   0  0  0  0  0  0
   -1.5356    3.4990  -26.8904 H   0  0  0  0  0  0
    0.3526    2.2178  -20.7717 H   0  0  0  0  0  0
    7.1644    0.8442  -21.7054 H   0  0  0  0  0  0
   -2.9750    3.5757  -28.3236 H   0  0  0  0  0  0
    7.5240   11.0380  -22.7470 F   0  0  0  0  0  0
    5.0270    7.5770  -22.5340 N   0  3  0  0  0  0
    5.3840   10.0230  -23.1050 C   0  0  0  0  0  0
    3.5370    7.4830  -22.3370 C   0  0  0  0  0  0
    5.6550    8.8770  -22.1050 C   0  0  0  0  0  0
    6.6950   10.5210  -23.7380 C   0  0  0  0  0  0
    5.2462    7.4049  -23.5027 H   0  0  0  0  0  0
    5.4761    6.8148  -22.0509 H   0  0  0  0  0  0
    4.8901   10.8559  -22.5831 H   0  0  0  0  0  0
    4.7083    9.6671  -23.8967 H   0  0  0  0  0  0
    3.0397    8.2785  -22.9114 H   0  0  0  0  0  0
    3.2981    7.6249  -21.2727 H   0  0  0  0  0  0
    6.7405    8.7391  -21.9921 H   0  0  0  0  0  0
    5.2712    9.1589  -21.1134 H   0  0  0  0  0  0
    7.2012    9.6828  -24.2391 H   0  0  0  0  0  0
    6.4711   11.3066  -24.4747 H   0  0  0  0  0  0
  1  2  2  0  0  0
  1  3  1  0  0  0
  1 34  1  0  0  0
  2  6  1  0  0  0
  2 35  1  0  0  0
  3  5  2  0  0  0
  3 27  1  0  0  0
  4  5  1  0  0  0
  4  6  2  0  0  0
  4 18  1  0  0  0
  5 24  1  0  0  0
  6 10  1  0  0  0
  7 10  2  0  0  0
  7 23  1  0  0  0
  7 33  1  0  0  0
  8 21  1  0  0  0
  8 22  1  0  0  0
  8 36  1  0  0  0
  8 37  1  0  0  0
  9 21  1  0  0  0
  9 31  1  0  0  0
  9 38  1  0  0  0
  9 39  1  0  0  0
 10 40  1  0  0  0
 11 12  1  0  0  0
 11 14  2  0  0  0
 11 15  1  0  0  0
 12 17  1  0  0  0
 12 28  2  0  0  0
 13 28  1  0  0  0
 13 29  2  0  0  0
 13 55  1  0  0  0
 14 29  1  0  0  0
 14 31  1  0  0  0
 15 30  2  0  0  0
 15 41  1  0  0  0
 16 17  2  0  0  0
 16 18  1  0  0  0
 16 30  1  0  0  0
 17 26  1  0  0  0
 18 23  2  0  0  0
 19 20  1  0  0  0
 19 31  1  0  0  0
 19 42  1  0  0  0
 19 43  1  0  0  0
 20 22  1  0  0  0
 20 32  1  0  0  0
 20 44  1  0  0  0
 21 32  1  0  0  0
 21 45  1  0  0  0
 22 46  1  0  0  0
 22 47  1  0  0  0
 23 48  1  0  0  0
 24 25  3  0  0  0
 25 49  1  0  0  0
 32 50  1  0  0  0
 33 51  1  0  0  0
 52 57  1  0  0  0
 53 55  1  0  0  0
 53 56  1  0  0  0
 53 58  1  0  0  0
 53 59  1  0  0  0
 54 56  1  0  0  0
 54 57  1  0  0  0
 54 60  1  0  0  0
 54 61  1  0  0  0
 55 62  1  0  0  0
 55 63  1  0  0  0
 56 64  1  0  0  0
 56 65  1  0  0  0
 57 66  1  0  0  0
 57 67  1  0  0  0
M  CHG  1  53   1
M  END
> <s_m_entry_id>
561

> <s_m_entry_name>
000000561.1

> <s_m_Source_Path>
/Users/zaksoul/Documents/2

> <s_m_Source_File>
000000561.mol2

> <i_m_Source_File_Index>
1

$$$$
No_0_585
                    3D
 Schrodinger Suite 2022-4.
 67 72  0  0  1  0            999 V2000
   -5.2610    3.4860  -21.9700 C   0  0  0  0  0  0
   -5.5090    3.6270  -23.3150 C   0  0  0  0  0  0
   -4.0220    3.2850  -21.6000 C   0  0  0  0  0  0
   -3.0950    3.3800  -23.7530 C   0  0  0  0  0  0
   -2.9520    3.1820  -22.3230 C   0  0  0  0  0  0
   -4.4410    3.5810  -24.3050 C   0  0  0  0  0  0
   -3.6460    3.5660  -26.4890 C   0  0  0  0  0  0
    6.0030    3.3160  -21.0340 C   0  0  0  0  0  0
    5.9070    3.3810  -23.5880 C   0  0  0  0  0  0
   -4.6710    3.6620  -25.6480 C   0  0  0  0  0  0
    2.1070    3.7980  -23.6880 C   0  0  0  0  0  0
    1.2440    4.8860  -23.4360 C   0  0  0  0  0  0
    2.9870    6.1620  -22.7600 C   0  0  0  0  0  0
    3.4940    4.0460  -23.3560 C   0  0  0  0  0  0
    1.6110    2.6450  -24.3260 C   0  0  0  0  0  0
   -0.5440    3.3870  -24.2770 C   0  0  0  0  0  0
   -0.0700    4.6420  -23.7050 C   0  0  0  0  0  0
   -1.9900    3.3330  -24.6570 C   0  0  0  0  0  0
    4.1780    1.5790  -22.9810 C   0  0  0  0  0  0
    5.1020    1.2890  -21.8080 C   0  0  2  0  0  0
    6.6510    2.8670  -22.3610 C   0  0  2  0  0  0
    5.0280    2.3220  -20.6710 C   0  0  0  0  0  0
   -2.2940    3.4410  -26.0940 C   0  0  0  0  0  0
   -1.6060    2.8320  -21.6890 C   0  0  0  0  0  0
   -0.5740    2.5350  -21.1550 C   0  0  0  0  0  0
   -0.9530    5.6670  -23.4060 F   0  0  0  0  0  0
   -3.8290    3.0900  -20.2080 F   0  0  0  0  0  0
    1.6710    6.0750  -22.9300 N   0  0  0  0  0  0
    3.9200    5.2240  -22.9360 N   0  0  0  0  0  0
    0.3140    2.5020  -24.6520 N   0  0  0  0  0  0
    4.4500    3.0250  -23.4860 N   0  0  0  0  0  0
    6.5140    1.3900  -22.2670 N   0  0  1  0  0  0
   -3.7930    3.5350  -27.8810 O   0  0  0  0  0  0
   -6.0783    3.5422  -21.2601 H   0  0  0  0  0  0
   -6.5233    3.7776  -23.6665 H   0  0  0  0  0  0
    5.5014    4.2840  -21.1804 H   0  0  0  0  0  0
    6.7736    3.3755  -20.2513 H   0  0  0  0  0  0
    6.3329    2.9238  -24.4933 H   0  0  0  0  0  0
    6.0140    4.4740  -23.6506 H   0  0  0  0  0  0
   -5.6808    3.8025  -26.0164 H   0  0  0  0  0  0
    2.2823    1.8302  -24.5718 H   0  0  0  0  0  0
    3.1315    1.4973  -22.6520 H   0  0  0  0  0  0
    4.3789    0.8632  -23.7917 H   0  0  0  0  0  0
    4.9052    0.2808  -21.4144 H   0  0  0  0  0  0
    7.7108    3.1594  -22.3963 H   0  0  0  0  0  0
    4.0276    2.7793  -20.6589 H   0  0  0  0  0  0
    5.3288    1.8456  -19.7262 H   0  0  0  0  0  0
   -1.5102    3.4259  -26.8427 H   0  0  0  0  0  0
    0.3347    2.2731  -20.6851 H   0  0  0  0  0  0
    7.1654    0.9354  -21.5353 H   0  0  0  0  0  0
   -2.9383    3.4638  -28.2896 H   0  0  0  0  0  0
    6.8920   11.5260  -23.4150 F   0  0  0  0  0  0
    4.8590    7.8050  -22.8940 N   0  3  0  0  0  0
    4.8320   10.3100  -23.2940 C   0  0  0  0  0  0
    3.4930    7.5320  -22.3210 C   0  0  0  0  0  0
    5.4640    9.1310  -22.5200 C   0  0  0  0  0  0
    5.8730   10.9940  -24.1980 C   0  0  0  0  0  0
    4.8200    7.7281  -23.8983 H   0  0  0  0  0  0
    5.4871    7.0639  -22.6250 H   0  0  0  0  0  0
    4.4289   11.0432  -22.5799 H   0  0  0  0  0  0
    3.9998    9.9389  -23.9102 H   0  0  0  0  0  0
    2.7909    8.3071  -22.6620 H   0  0  0  0  0  0
    3.5420    7.5700  -21.2227 H   0  0  0  0  0  0
    6.5468    9.1060  -22.7120 H   0  0  0  0  0  0
    5.3430    9.2969  -21.4393 H   0  0  0  0  0  0
    6.2939   10.2552  -24.8958 H   0  0  0  0  0  0
    5.3891   11.8009  -24.7679 H   0  0  0  0  0  0
  1  2  2  0  0  0
  1  3  1  0  0  0
  1 34  1  0  0  0
  2  6  1  0  0  0
  2 35  1  0  0  0
  3  5  2  0  0  0
  3 27  1  0  0  0
  4  5  1  0  0  0
  4  6  2  0  0  0
  4 18  1  0  0  0
  5 24  1  0  0  0
  6 10  1  0  0  0
  7 10  2  0  0  0
  7 23  1  0  0  0
  7 33  1  0  0  0
  8 21  1  0  0  0
  8 22  1  0  0  0
  8 36  1  0  0  0
  8 37  1  0  0  0
  9 21  1  0  0  0
  9 31  1  0  0  0
  9 38  1  0  0  0
  9 39  1  0  0  0
 10 40  1  0  0  0
 11 12  1  0  0  0
 11 14  2  0  0  0
 11 15  1  0  0  0
 12 17  1  0  0  0
 12 28  2  0  0  0
 13 28  1  0  0  0
 13 29  2  0  0  0
 13 55  1  0  0  0
 14 29  1  0  0  0
 14 31  1  0  0  0
 15 30  2  0  0  0
 15 41  1  0  0  0
 16 17  2  0  0  0
 16 18  1  0  0  0
 16 30  1  0  0  0
 17 26  1  0  0  0
 18 23  2  0  0  0
 19 20  1  0  0  0
 19 31  1  0  0  0
 19 42  1  0  0  0
 19 43  1  0  0  0
 20 22  1  0  0  0
 20 32  1  0  0  0
 20 44  1  0  0  0
 21 32  1  0  0  0
 21 45  1  0  0  0
 22 46  1  0  0  0
 22 47  1  0  0  0
 23 48  1  0  0  0
 24 25  3  0  0  0
 25 49  1  0  0  0
 32 50  1  0  0  0
 33 51  1  0  0  0
 52 57  1  0  0  0
 53 55  1  0  0  0
 53 56  1  0  0  0
 53 58  1  0  0  0
 53 59  1  0  0  0
 54 56  1  0  0  0
 54 57  1  0  0  0
 54 60  1  0  0  0
 54 61  1  0  0  0
 55 62  1  0  0  0
 55 63  1  0  0  0
 56 64  1  0  0  0
 56 65  1  0  0  0
 57 66  1  0  0  0
 57 67  1  0  0  0
M  CHG  1  53   1
M  END
> <s_m_entry_id>
562

> <s_m_entry_name>
000000562.1

> <s_m_Source_Path>
/Users/zaksoul/Documents/2

> <s_m_Source_File>
000000562.mol2

> <i_m_Source_File_Index>
1

$$$$
No_0_586
                    3D
 Schrodinger Suite 2022-4.
 67 72  0  0  1  0            999 V2000
   -5.2770    3.3220  -22.1170 C   0  0  0  0  0  0
   -5.5160    3.5140  -23.4570 C   0  0  0  0  0  0
   -4.0410    3.0980  -21.7490 C   0  0  0  0  0  0
   -3.1030    3.2620  -23.8920 C   0  0  0  0  0  0
   -2.9690    3.0110  -22.4690 C   0  0  0  0  0  0
   -4.4440    3.4950  -24.4430 C   0  0  0  0  0  0
   -3.6380    3.5510  -26.6220 C   0  0  0  0  0  0
    5.9800    3.0220  -21.1320 C   0  0  0  0  0  0
    5.8980    3.1790  -23.6830 C   0  0  0  0  0  0
   -4.6670    3.6250  -25.7830 C   0  0  0  0  0  0
    2.1020    3.6330  -23.7870 C   0  0  0  0  0  0
    1.2470    4.7180  -23.5000 C   0  0  0  0  0  0
    2.9980    5.9530  -22.7690 C   0  0  0  0  0  0
    3.4890    3.8560  -23.4390 C   0  0  0  0  0  0
    1.6000    2.5070  -24.4680 C   0  0  0  0  0  0
   -0.5490    3.2660  -24.4030 C   0  0  0  0  0  0
   -0.0680    4.4950  -23.7830 C   0  0  0  0  0  0
   -1.9930    3.2380  -24.7910 C   0  0  0  0  0  0
    4.1510    1.3720  -23.1490 C   0  0  0  0  0  0
    5.0660    1.0310  -21.9830 C   0  0  2  0  0  0
    6.6320    2.6150  -22.4720 C   0  0  2  0  0  0
    4.9950    2.0240  -20.8100 C   0  0  0  0  0  0
   -2.2890    3.4000  -26.2260 C   0  0  0  0  0  0
   -1.6300    2.6270  -21.8420 C   0  0  0  0  0  0
   -0.6030    2.3020  -21.3140 C   0  0  0  0  0  0
   -0.9430    5.5160  -23.4520 F   0  0  0  0  0  0
   -3.8570    2.8510  -20.3640 F   0  0  0  0  0  0
    1.6820    5.8850  -22.9490 N   0  0  0  0  0  0
    3.9230    5.0150  -22.9750 N   0  0  0  0  0  0
    0.3040    2.3870  -24.8050 N   0  0  0  0  0  0
    4.4380    2.8330  -23.6010 N   0  0  0  0  0  0
    6.4810    1.1370  -22.4320 N   0  0  1  0  0  0
   -3.7780    3.5710  -28.0160 O   0  0  0  0  0  0
   -6.0972    3.3601  -21.4093 H   0  0  0  0  0  0
   -6.5271    3.6855  -23.8081 H   0  0  0  0  0  0
    5.4875    3.9989  -21.2460 H   0  0  0  0  0  0
    6.7475    3.0462  -20.3443 H   0  0  0  0  0  0
    6.3248    2.7512  -24.6022 H   0  0  0  0  0  0
    6.0140    4.2726  -23.7052 H   0  0  0  0  0  0
   -5.6733    3.7877  -26.1516 H   0  0  0  0  0  0
    2.2662    1.6963  -24.7399 H   0  0  0  0  0  0
    3.1019    1.2873  -22.8292 H   0  0  0  0  0  0
    4.3498    0.6848  -23.9846 H   0  0  0  0  0  0
    4.8580    0.0113  -21.6266 H   0  0  0  0  0  0
    7.6943    2.8998  -22.4912 H   0  0  0  0  0  0
    3.9986    2.4894  -20.7868 H   0  0  0  0  0  0
    5.2865    1.5105  -19.8819 H   0  0  0  0  0  0
   -1.5012    3.4050  -26.9706 H   0  0  0  0  0  0
    0.3007    2.0151  -20.8491 H   0  0  0  0  0  0
    7.1244    0.6507  -21.7137 H   0  0  0  0  0  0
   -2.9215    3.5076  -28.4220 H   0  0  0  0  0  0
    3.4760    7.4110  -20.7770 N   0  3  0  0  0  0
    4.1200    9.8680  -20.8080 C   0  0  0  0  0  0
    3.5120    7.3030  -22.2790 C   0  0  0  0  0  0
    4.3600    8.4800  -20.1850 C   0  0  0  0  0  0
    5.0670   10.8870  -20.1570 C   0  0  0  0  0  0
    3.7161    6.5198  -20.3719 H   0  0  0  0  0  0
    2.5258    7.5610  -20.4759 H   0  0  0  0  0  0
    3.0775   10.1718  -20.6321 H   0  0  0  0  0  0
    4.3161    9.8230  -21.8894 H   0  0  0  0  0  0
    4.5432    7.4510  -22.6321 H   0  0  0  0  0  0
    2.9043    8.1076  -22.7188 H   0  0  0  0  0  0
    5.4149    8.1980  -20.3180 H   0  0  0  0  0  0
    4.1930    8.5330  -19.0990 H   0  0  0  0  0  0
    4.8979   11.8795  -20.6002 H   0  0  0  0  0  0
    4.8728   10.9300  -19.0751 H   0  0  0  0  0  0
    6.1093   10.5809  -20.3300 H   0  0  0  0  0  0
  1  2  2  0  0  0
  1  3  1  0  0  0
  1 34  1  0  0  0
  2  6  1  0  0  0
  2 35  1  0  0  0
  3  5  2  0  0  0
  3 27  1  0  0  0
  4  5  1  0  0  0
  4  6  2  0  0  0
  4 18  1  0  0  0
  5 24  1  0  0  0
  6 10  1  0  0  0
  7 10  2  0  0  0
  7 23  1  0  0  0
  7 33  1  0  0  0
  8 21  1  0  0  0
  8 22  1  0  0  0
  8 36  1  0  0  0
  8 37  1  0  0  0
  9 21  1  0  0  0
  9 31  1  0  0  0
  9 38  1  0  0  0
  9 39  1  0  0  0
 10 40  1  0  0  0
 11 12  1  0  0  0
 11 14  2  0  0  0
 11 15  1  0  0  0
 12 17  1  0  0  0
 12 28  2  0  0  0
 13 28  1  0  0  0
 13 29  2  0  0  0
 13 54  1  0  0  0
 14 29  1  0  0  0
 14 31  1  0  0  0
 15 30  2  0  0  0
 15 41  1  0  0  0
 16 17  2  0  0  0
 16 18  1  0  0  0
 16 30  1  0  0  0
 17 26  1  0  0  0
 18 23  2  0  0  0
 19 20  1  0  0  0
 19 31  1  0  0  0
 19 42  1  0  0  0
 19 43  1  0  0  0
 20 22  1  0  0  0
 20 32  1  0  0  0
 20 44  1  0  0  0
 21 32  1  0  0  0
 21 45  1  0  0  0
 22 46  1  0  0  0
 22 47  1  0  0  0
 23 48  1  0  0  0
 24 25  3  0  0  0
 25 49  1  0  0  0
 32 50  1  0  0  0
 33 51  1  0  0  0
 52 54  1  0  0  0
 52 55  1  0  0  0
 52 57  1  0  0  0
 52 58  1  0  0  0
 53 55  1  0  0  0
 53 56  1  0  0  0
 53 59  1  0  0  0
 53 60  1  0  0  0
 54 61  1  0  0  0
 54 62  1  0  0  0
 55 63  1  0  0  0
 55 64  1  0  0  0
 56 65  1  0  0  0
 56 66  1  0  0  0
 56 67  1  0  0  0
M  CHG  1  52   1
M  END
> <s_m_entry_id>
563

> <s_m_entry_name>
000000563.1

> <s_m_Source_Path>
/Users/zaksoul/Documents/2

> <s_m_Source_File>
000000563.mol2

> <i_m_Source_File_Index>
1

$$$$
No_0_587
                    3D
 Schrodinger Suite 2022-4.
 67 72  0  0  1  0            999 V2000
   -5.4300    3.1760  -22.1880 C   0  0  0  0  0  0
   -5.6770    3.3610  -23.5280 C   0  0  0  0  0  0
   -4.1920    2.9570  -21.8250 C   0  0  0  0  0  0
   -3.2650    3.1140  -23.9740 C   0  0  0  0  0  0
   -3.1230    2.8710  -22.5510 C   0  0  0  0  0  0
   -4.6100    3.3410  -24.5190 C   0  0  0  0  0  0
   -3.8160    3.3900  -26.7030 C   0  0  0  0  0  0
    5.8330    2.9140  -21.2630 C   0  0  0  0  0  0
    5.7370    3.0600  -23.8140 C   0  0  0  0  0  0
   -4.8400    3.4650  -25.8580 C   0  0  0  0  0  0
    1.9390    3.5010  -23.8990 C   0  0  0  0  0  0
    1.0820    4.5860  -23.6120 C   0  0  0  0  0  0
    2.8330    5.8290  -22.8970 C   0  0  0  0  0  0
    3.3280    3.7310  -23.5600 C   0  0  0  0  0  0
    1.4360    2.3710  -24.5730 C   0  0  0  0  0  0
   -0.7150    3.1240  -24.4990 C   0  0  0  0  0  0
   -0.2330    4.3570  -23.8880 C   0  0  0  0  0  0
   -2.1610    3.0900  -24.8800 C   0  0  0  0  0  0
    3.9980    1.2500  -23.2630 C   0  0  0  0  0  0
    4.9200    0.9170  -22.1010 C   0  0  2  0  0  0
    6.4790    2.5040  -22.6040 C   0  0  2  0  0  0
    4.8530    1.9140  -20.9320 C   0  0  0  0  0  0
   -2.4640    3.2450  -26.3130 C   0  0  0  0  0  0
   -1.7790    2.4930  -21.9290 C   0  0  0  0  0  0
   -0.7480    2.1730  -21.4060 C   0  0  0  0  0  0
   -1.1100    5.3770  -23.5560 F   0  0  0  0  0  0
   -3.9990    2.7160  -20.4400 F   0  0  0  0  0  0
    1.5160    5.7560  -23.0690 N   0  0  0  0  0  0
    3.7600    4.8930  -23.1030 N   0  0  0  0  0  0
    0.1390    2.2460  -24.9020 N   0  0  0  0  0  0
    4.2780    2.7090  -23.7230 N   0  0  0  0  0  0
    6.3330    1.0250  -22.5570 N   0  0  1  0  0  0
   -3.9640    3.4040  -28.0950 O   0  0  0  0  0  0
   -6.2465    3.2142  -21.4760 H   0  0  0  0  0  0
   -6.6908    3.5286  -23.8733 H   0  0  0  0  0  0
    5.3366    3.8887  -21.3790 H   0  0  0  0  0  0
    6.6050    2.9443  -20.4799 H   0  0  0  0  0  0
    6.1599    2.6290  -24.7335 H   0  0  0  0  0  0
    5.8490    4.1539  -23.8423 H   0  0  0  0  0  0
   -5.8487    3.6226  -26.2223 H   0  0  0  0  0  0
    2.1033    1.5612  -24.8449 H   0  0  0  0  0  0
    2.9509    1.1633  -22.9372 H   0  0  0  0  0  0
    4.1947    0.5591  -24.0961 H   0  0  0  0  0  0
    4.7182   -0.1019  -21.7388 H   0  0  0  0  0  0
    7.5406    2.7909  -22.6313 H   0  0  0  0  0  0
    3.8555    2.3769  -20.9048 H   0  0  0  0  0  0
    5.1507    1.4064  -20.0026 H   0  0  0  0  0  0
   -1.6806    3.2490  -27.0622 H   0  0  0  0  0  0
    0.1594    1.8919  -20.9448 H   0  0  0  0  0  0
    6.9815    0.5435  -21.8400 H   0  0  0  0  0  0
   -3.1096    3.3407  -28.5054 H   0  0  0  0  0  0
    4.5930    7.0510  -21.5790 N   0  3  0  0  0  0
    4.5910    9.5130  -20.9550 C   0  0  0  0  0  0
    3.3460    7.1820  -22.4150 C   0  0  0  0  0  0
    5.4160    8.3080  -21.4440 C   0  0  0  0  0  0
    5.5020   10.7450  -20.8600 C   0  0  0  0  0  0
    5.1691    6.3138  -21.9541 H   0  0  0  0  0  0
    4.3449    6.7149  -20.6616 H   0  0  0  0  0  0
    4.1701    9.2911  -19.9632 H   0  0  0  0  0  0
    3.7768    9.7130  -21.6671 H   0  0  0  0  0  0
    3.5538    7.8245  -23.2833 H   0  0  0  0  0  0
    2.5621    7.6830  -21.8281 H   0  0  0  0  0  0
    5.8759    8.5489  -22.4138 H   0  0  0  0  0  0
    6.2473    8.1269  -20.7467 H   0  0  0  0  0  0
    4.9171   11.6088  -20.5111 H   0  0  0  0  0  0
    6.3180   10.5450  -20.1500 H   0  0  0  0  0  0
    5.9249   10.9670  -21.8509 H   0  0  0  0  0  0
  1  2  2  0  0  0
  1  3  1  0  0  0
  1 34  1  0  0  0
  2  6  1  0  0  0
  2 35  1  0  0  0
  3  5  2  0  0  0
  3 27  1  0  0  0
  4  5  1  0  0  0
  4  6  2  0  0  0
  4 18  1  0  0  0
  5 24  1  0  0  0
  6 10  1  0  0  0
  7 10  2  0  0  0
  7 23  1  0  0  0
  7 33  1  0  0  0
  8 21  1  0  0  0
  8 22  1  0  0  0
  8 36  1  0  0  0
  8 37  1  0  0  0
  9 21  1  0  0  0
  9 31  1  0  0  0
  9 38  1  0  0  0
  9 39  1  0  0  0
 10 40  1  0  0  0
 11 12  1  0  0  0
 11 14  2  0  0  0
 11 15  1  0  0  0
 12 17  1  0  0  0
 12 28  2  0  0  0
 13 28  1  0  0  0
 13 29  2  0  0  0
 13 54  1  0  0  0
 14 29  1  0  0  0
 14 31  1  0  0  0
 15 30  2  0  0  0
 15 41  1  0  0  0
 16 17  2  0  0  0
 16 18  1  0  0  0
 16 30  1  0  0  0
 17 26  1  0  0  0
 18 23  2  0  0  0
 19 20  1  0  0  0
 19 31  1  0  0  0
 19 42  1  0  0  0
 19 43  1  0  0  0
 20 22  1  0  0  0
 20 32  1  0  0  0
 20 44  1  0  0  0
 21 32  1  0  0  0
 21 45  1  0  0  0
 22 46  1  0  0  0
 22 47  1  0  0  0
 23 48  1  0  0  0
 24 25  3  0  0  0
 25 49  1  0  0  0
 32 50  1  0  0  0
 33 51  1  0  0  0
 52 54  1  0  0  0
 52 55  1  0  0  0
 52 57  1  0  0  0
 52 58  1  0  0  0
 53 55  1  0  0  0
 53 56  1  0  0  0
 53 59  1  0  0  0
 53 60  1  0  0  0
 54 61  1  0  0  0
 54 62  1  0  0  0
 55 63  1  0  0  0
 55 64  1  0  0  0
 56 65  1  0  0  0
 56 66  1  0  0  0
 56 67  1  0  0  0
M  CHG  1  52   1
M  END
> <s_m_entry_id>
564

> <s_m_entry_name>
000000564.1

> <s_m_Source_Path>
/Users/zaksoul/Documents/2

> <s_m_Source_File>
000000564.mol2

> <i_m_Source_File_Index>
1

$$$$
No_0_588
                    3D
 Schrodinger Suite 2022-4.
 67 72  0  0  1  0            999 V2000
   -5.4120    3.1720  -21.7560 C   0  0  0  0  0  0
   -5.6890    3.3950  -23.0840 C   0  0  0  0  0  0
   -4.1690    2.9250  -21.4290 C   0  0  0  0  0  0
   -3.2920    3.1240  -23.5950 C   0  0  0  0  0  0
   -3.1200    2.8410  -22.1830 C   0  0  0  0  0  0
   -4.6460    3.3840  -24.1010 C   0  0  0  0  0  0
   -3.9040    3.4770  -26.3020 C   0  0  0  0  0  0
    5.8640    2.7180  -21.1140 C   0  0  0  0  0  0
    5.7090    2.9300  -23.6580 C   0  0  0  0  0  0
   -4.9070    3.5460  -25.4310 C   0  0  0  0  0  0
    1.9170    3.4300  -23.6380 C   0  0  0  0  0  0
    1.0850    4.5200  -23.3030 C   0  0  0  0  0  0
    2.8720    5.7180  -22.6000 C   0  0  0  0  0  0
    3.3170    3.6300  -23.3280 C   0  0  0  0  0  0
    1.3810    2.3250  -24.3280 C   0  0  0  0  0  0
   -0.7550    3.1080  -24.1820 C   0  0  0  0  0  0
   -0.2400    4.3180  -23.5520 C   0  0  0  0  0  0
   -2.2100    3.1060  -24.5280 C   0  0  0  0  0  0
    3.9560    1.1330  -23.1100 C   0  0  0  0  0  0
    4.9000    0.7560  -21.9790 C   0  0  2  0  0  0
    6.4710    2.3320  -22.4810 C   0  0  2  0  0  0
    4.8770    1.7240  -20.7840 C   0  0  0  0  0  0
   -2.5460    3.3020  -25.9490 C   0  0  0  0  0  0
   -1.7670    2.4280  -21.6040 C   0  0  0  0  0  0
   -0.7290    2.0800  -21.1140 C   0  0  0  0  0  0
   -1.0930    5.3420  -23.1740 F   0  0  0  0  0  0
   -3.9470    2.6470  -20.0560 F   0  0  0  0  0  0
    1.5500    5.6690  -22.7420 N   0  0  0  0  0  0
    3.7790    4.7740  -22.8530 N   0  0  0  0  0  0
    0.0740    2.2280  -24.6280 N   0  0  0  0  0  0
    4.2470    2.5990  -23.5400 N   0  0  0  0  0  0
    6.3030    0.8550  -22.4670 N   0  0  1  0  0  0
   -4.0860    3.5290  -27.6900 O   0  0  0  0  0  0
   -6.2105    3.2051  -21.0237 H   0  0  0  0  0  0
   -6.7077    3.5867  -23.4011 H   0  0  0  0  0  0
    5.3802    3.7027  -21.1938 H   0  0  0  0  0  0
    6.6548    2.7160  -20.3494 H   0  0  0  0  0  0
    6.1028    2.5160  -24.5980 H   0  0  0  0  0  0
    5.8382    4.0224  -23.6610 H   0  0  0  0  0  0
   -5.9217    3.7277  -25.7662 H   0  0  0  0  0  0
    2.0287    1.5126  -24.6373 H   0  0  0  0  0  0
    2.9162    1.0533  -22.7600 H   0  0  0  0  0  0
    4.1215    0.4608  -23.9649 H   0  0  0  0  0  0
    4.6910   -0.2686  -21.6378 H   0  0  0  0  0  0
    7.5360    2.6035  -22.5264 H   0  0  0  0  0  0
    3.8880    2.2014  -20.7214 H   0  0  0  0  0  0
    5.1889    1.1880  -19.8755 H   0  0  0  0  0  0
   -1.7810    3.3130  -26.7170 H   0  0  0  0  0  0
    0.1846    1.7728  -20.6827 H   0  0  0  0  0  0
    6.9619    0.3459  -21.7792 H   0  0  0  0  0  0
   -3.2427    3.4637  -28.1225 H   0  0  0  0  0  0
    4.9100    7.0110  -21.8920 N   0  3  0  0  0  0
    4.9550    9.3120  -20.8190 C   0  0  0  0  0  0
    3.4170    7.0510  -22.0980 C   0  0  0  0  0  0
    5.5910    8.3560  -21.8440 C   0  0  0  0  0  0
    5.7000   10.6550  -20.8470 C   0  0  0  0  0  0
    5.3310    6.4500  -22.6160 H   0  0  0  0  0  0
    5.1162    6.5026  -21.0464 H   0  0  0  0  0  0
    5.0290    8.8730  -19.8131 H   0  0  0  0  0  0
    3.8982    9.4750  -21.0770 H   0  0  0  0  0  0
    3.1678    7.8438  -22.8187 H   0  0  0  0  0  0
    2.9242    7.3139  -21.1504 H   0  0  0  0  0  0
    5.5610    8.8171  -22.8422 H   0  0  0  0  0  0
    6.6553    8.2171  -21.6032 H   0  0  0  0  0  0
    5.2487   11.3415  -20.1155 H   0  0  0  0  0  0
    6.7577   10.4930  -20.5921 H   0  0  0  0  0  0
    5.6290   11.0928  -21.8536 H   0  0  0  0  0  0
  1  2  2  0  0  0
  1  3  1  0  0  0
  1 34  1  0  0  0
  2  6  1  0  0  0
  2 35  1  0  0  0
  3  5  2  0  0  0
  3 27  1  0  0  0
  4  5  1  0  0  0
  4  6  2  0  0  0
  4 18  1  0  0  0
  5 24  1  0  0  0
  6 10  1  0  0  0
  7 10  2  0  0  0
  7 23  1  0  0  0
  7 33  1  0  0  0
  8 21  1  0  0  0
  8 22  1  0  0  0
  8 36  1  0  0  0
  8 37  1  0  0  0
  9 21  1  0  0  0
  9 31  1  0  0  0
  9 38  1  0  0  0
  9 39  1  0  0  0
 10 40  1  0  0  0
 11 12  1  0  0  0
 11 14  2  0  0  0
 11 15  1  0  0  0
 12 17  1  0  0  0
 12 28  2  0  0  0
 13 28  1  0  0  0
 13 29  2  0  0  0
 13 54  1  0  0  0
 14 29  1  0  0  0
 14 31  1  0  0  0
 15 30  2  0  0  0
 15 41  1  0  0  0
 16 17  2  0  0  0
 16 18  1  0  0  0
 16 30  1  0  0  0
 17 26  1  0  0  0
 18 23  2  0  0  0
 19 20  1  0  0  0
 19 31  1  0  0  0
 19 42  1  0  0  0
 19 43  1  0  0  0
 20 22  1  0  0  0
 20 32  1  0  0  0
 20 44  1  0  0  0
 21 32  1  0  0  0
 21 45  1  0  0  0
 22 46  1  0  0  0
 22 47  1  0  0  0
 23 48  1  0  0  0
 24 25  3  0  0  0
 25 49  1  0  0  0
 32 50  1  0  0  0
 33 51  1  0  0  0
 52 54  1  0  0  0
 52 55  1  0  0  0
 52 57  1  0  0  0
 52 58  1  0  0  0
 53 55  1  0  0  0
 53 56  1  0  0  0
 53 59  1  0  0  0
 53 60  1  0  0  0
 54 61  1  0  0  0
 54 62  1  0  0  0
 55 63  1  0  0  0
 55 64  1  0  0  0
 56 65  1  0  0  0
 56 66  1  0  0  0
 56 67  1  0  0  0
M  CHG  1  52   1
M  END
> <s_m_entry_id>
565

> <s_m_entry_name>
000000565.1

> <s_m_Source_Path>
/Users/zaksoul/Documents/2

> <s_m_Source_File>
000000565.mol2

> <i_m_Source_File_Index>
1

$$$$
No_0_589
                    3D
 Schrodinger Suite 2022-4.
 67 72  0  0  1  0            999 V2000
   -5.3380    3.2900  -22.2080 C   0  0  0  0  0  0
   -5.5610    3.5080  -23.5470 C   0  0  0  0  0  0
   -4.1050    3.0720  -21.8270 C   0  0  0  0  0  0
   -3.1380    3.2970  -23.9520 C   0  0  0  0  0  0
   -3.0220    3.0160  -22.5340 C   0  0  0  0  0  0
   -4.4740    3.5250  -24.5170 C   0  0  0  0  0  0
   -3.6390    3.6410  -26.6830 C   0  0  0  0  0  0
    5.9070    3.1100  -21.0690 C   0  0  0  0  0  0
    5.8590    3.3240  -23.6170 C   0  0  0  0  0  0
   -4.6800    3.6830  -25.8570 C   0  0  0  0  0  0
    2.0590    3.7310  -23.7650 C   0  0  0  0  0  0
    1.1860    4.7990  -23.4660 C   0  0  0  0  0  0
    2.9100    6.0400  -22.6830 C   0  0  0  0  0  0
    3.4390    3.9640  -23.3920 C   0  0  0  0  0  0
    1.5810    2.6150  -24.4780 C   0  0  0  0  0  0
   -0.5780    3.3450  -24.4270 C   0  0  0  0  0  0
   -0.1210    4.5650  -23.7730 C   0  0  0  0  0  0
   -2.0160    3.3080  -24.8360 C   0  0  0  0  0  0
    4.1280    1.4830  -23.1490 C   0  0  0  0  0  0
    5.0310    1.1280  -21.9780 C   0  0  2  0  0  0
    6.5830    2.7420  -22.4080 C   0  0  2  0  0  0
    4.9310    2.0920  -20.7840 C   0  0  0  0  0  0
   -2.2940    3.4980  -26.2710 C   0  0  0  0  0  0
   -1.6860    2.6350  -21.8960 C   0  0  0  0  0  0
   -0.6620    2.3110  -21.3610 C   0  0  0  0  0  0
   -1.0150    5.5680  -23.4310 F   0  0  0  0  0  0
   -3.9370    2.7960  -20.4450 F   0  0  0  0  0  0
    1.5980    5.9580  -22.8830 N   0  0  0  0  0  0
    3.8500    5.1180  -22.8960 N   0  0  0  0  0  0
    0.2920    2.4860  -24.8360 N   0  0  0  0  0  0
    4.4020    2.9570  -23.5640 N   0  0  0  0  0  0
    6.4510    1.2620  -22.4040 N   0  0  1  0  0  0
   -3.7600    3.6910  -28.0770 O   0  0  0  0  0  0
   -6.1683    3.3010  -21.5112 H   0  0  0  0  0  0
   -6.5691    3.6757  -23.9085 H   0  0  0  0  0  0
    5.4034    4.0828  -21.1689 H   0  0  0  0  0  0
    6.6632    3.1262  -20.2704 H   0  0  0  0  0  0
    6.3040    2.9224  -24.5393 H   0  0  0  0  0  0
    5.9610    4.4193  -23.6130 H   0  0  0  0  0  0
   -5.6832    3.8405  -26.2362 H   0  0  0  0  0  0
    2.2614    1.8192  -24.7590 H   0  0  0  0  0  0
    3.0760    1.3771  -22.8454 H   0  0  0  0  0  0
    4.3479    0.8171  -23.9965 H   0  0  0  0  0  0
    4.8322    0.0977  -21.6480 H   0  0  0  0  0  0
    7.6419    3.0398  -22.4070 H   0  0  0  0  0  0
    3.9285    2.5443  -20.7648 H   0  0  0  0  0  0
    5.2157    1.5619  -19.8632 H   0  0  0  0  0  0
   -1.4959    3.5301  -27.0038 H   0  0  0  0  0  0
    0.2389    2.0250  -20.8901 H   0  0  0  0  0  0
    7.0902    0.7671  -21.6878 H   0  0  0  0  0  0
   -2.8975    3.6465  -28.4727 H   0  0  0  0  0  0
    4.8500    7.6290  -22.4860 N   0  3  0  0  0  0
    4.9500    9.7400  -21.0790 C   0  0  0  0  0  0
    3.4000    7.3840  -22.1560 C   0  0  0  0  0  0
    5.2930    9.0690  -22.4210 C   0  0  0  0  0  0
    5.4240   11.2010  -21.1070 C   0  0  0  0  0  0
    5.0489    7.2601  -23.4027 H   0  0  0  0  0  0
    5.4292    7.0738  -21.8758 H   0  0  0  0  0  0
    5.4571    9.2059  -20.2619 H   0  0  0  0  0  0
    3.8617    9.7110  -20.9220 H   0  0  0  0  0  0
    2.7857    8.1903  -22.5832 H   0  0  0  0  0  0
    3.2620    7.4210  -21.0653 H   0  0  0  0  0  0
    4.8260    9.6329  -23.2419 H   0  0  0  0  0  0
    6.3784    9.1250  -22.5909 H   0  0  0  0  0  0
    5.1810   11.6840  -20.1490 H   0  0  0  0  0  0
    6.5120   11.2310  -21.2660 H   0  0  0  0  0  0
    4.9196   11.7354  -21.9256 H   0  0  0  0  0  0
  1  2  2  0  0  0
  1  3  1  0  0  0
  1 34  1  0  0  0
  2  6  1  0  0  0
  2 35  1  0  0  0
  3  5  2  0  0  0
  3 27  1  0  0  0
  4  5  1  0  0  0
  4  6  2  0  0  0
  4 18  1  0  0  0
  5 24  1  0  0  0
  6 10  1  0  0  0
  7 10  2  0  0  0
  7 23  1  0  0  0
  7 33  1  0  0  0
  8 21  1  0  0  0
  8 22  1  0  0  0
  8 36  1  0  0  0
  8 37  1  0  0  0
  9 21  1  0  0  0
  9 31  1  0  0  0
  9 38  1  0  0  0
  9 39  1  0  0  0
 10 40  1  0  0  0
 11 12  1  0  0  0
 11 14  2  0  0  0
 11 15  1  0  0  0
 12 17  1  0  0  0
 12 28  2  0  0  0
 13 28  1  0  0  0
 13 29  2  0  0  0
 13 54  1  0  0  0
 14 29  1  0  0  0
 14 31  1  0  0  0
 15 30  2  0  0  0
 15 41  1  0  0  0
 16 17  2  0  0  0
 16 18  1  0  0  0
 16 30  1  0  0  0
 17 26  1  0  0  0
 18 23  2  0  0  0
 19 20  1  0  0  0
 19 31  1  0  0  0
 19 42  1  0  0  0
 19 43  1  0  0  0
 20 22  1  0  0  0
 20 32  1  0  0  0
 20 44  1  0  0  0
 21 32  1  0  0  0
 21 45  1  0  0  0
 22 46  1  0  0  0
 22 47  1  0  0  0
 23 48  1  0  0  0
 24 25  3  0  0  0
 25 49  1  0  0  0
 32 50  1  0  0  0
 33 51  1  0  0  0
 52 54  1  0  0  0
 52 55  1  0  0  0
 52 57  1  0  0  0
 52 58  1  0  0  0
 53 55  1  0  0  0
 53 56  1  0  0  0
 53 59  1  0  0  0
 53 60  1  0  0  0
 54 61  1  0  0  0
 54 62  1  0  0  0
 55 63  1  0  0  0
 55 64  1  0  0  0
 56 65  1  0  0  0
 56 66  1  0  0  0
 56 67  1  0  0  0
M  CHG  1  52   1
M  END
> <s_m_entry_id>
566

> <s_m_entry_name>
000000566.1

> <s_m_Source_Path>
/Users/zaksoul/Documents/2

> <s_m_Source_File>
000000566.mol2

> <i_m_Source_File_Index>
1

$$$$
No_0_590
                    3D
 Schrodinger Suite 2022-4.
 67 72  0  0  1  0            999 V2000
   -5.3340    3.4990  -22.0170 C   0  0  0  0  0  0
   -5.5330    3.7170  -23.3600 C   0  0  0  0  0  0
   -4.1130    3.2400  -21.6200 C   0  0  0  0  0  0
   -3.1150    3.4170  -23.7350 C   0  0  0  0  0  0
   -3.0250    3.1410  -22.3140 C   0  0  0  0  0  0
   -4.4350    3.6890  -24.3170 C   0  0  0  0  0  0
   -3.5710    3.7610  -26.4740 C   0  0  0  0  0  0
    5.8840    2.9250  -20.7430 C   0  0  0  0  0  0
    5.8730    3.1250  -23.2920 C   0  0  0  0  0  0
   -4.6190    3.8460  -25.6610 C   0  0  0  0  0  0
    2.0920    3.6660  -23.4880 C   0  0  0  0  0  0
    1.2540    4.7670  -23.2060 C   0  0  0  0  0  0
    3.0130    5.9500  -22.4100 C   0  0  0  0  0  0
    3.4750    3.8530  -23.1010 C   0  0  0  0  0  0
    1.5830    2.5640  -24.2010 C   0  0  0  0  0  0
   -0.5490    3.3710  -24.1790 C   0  0  0  0  0  0
   -0.0570    4.5780  -23.5270 C   0  0  0  0  0  0
   -1.9830    3.3820  -24.6060 C   0  0  0  0  0  0
    4.0720    1.3500  -22.8340 C   0  0  0  0  0  0
    4.9480    0.9700  -21.6500 C   0  0  2  0  0  0
    6.5610    2.5250  -22.0720 C   0  0  2  0  0  0
    4.8680    1.9450  -20.4640 C   0  0  0  0  0  0
   -2.2360    3.5730  -26.0440 C   0  0  0  0  0  0
   -1.7110    2.7160  -21.6580 C   0  0  0  0  0  0
   -0.7060    2.3590  -21.1090 C   0  0  0  0  0  0
   -0.9180    5.6140  -23.2020 F   0  0  0  0  0  0
   -3.9720    2.9670  -20.2350 F   0  0  0  0  0  0
    1.7010    5.9140  -22.6250 N   0  0  0  0  0  0
    3.9220    4.9940  -22.6060 N   0  0  0  0  0  0
    0.2940    2.4790  -24.5730 N   0  0  0  0  0  0
    4.4040    2.8100  -23.2550 N   0  0  0  0  0  0
    6.3770    1.0500  -22.0600 N   0  0  1  0  0  0
   -3.6730    3.8070  -27.8700 O   0  0  0  0  0  0
   -6.1714    3.5442  -21.3302 H   0  0  0  0  0  0
   -6.5302    3.9178  -23.7346 H   0  0  0  0  0  0
    5.4169    3.9147  -20.8540 H   0  0  0  0  0  0
    6.6304    2.9200  -19.9350 H   0  0  0  0  0  0
    6.3150    2.7022  -24.2063 H   0  0  0  0  0  0
    6.0143    4.2159  -23.2940 H   0  0  0  0  0  0
   -5.6117    4.0367  -26.0525 H   0  0  0  0  0  0
    2.2378    1.7427  -24.4688 H   0  0  0  0  0  0
    3.0132    1.2834  -22.5433 H   0  0  0  0  0  0
    4.2777    0.6714  -23.6749 H   0  0  0  0  0  0
    4.7078   -0.0505  -21.3169 H   0  0  0  0  0  0
    7.6297    2.7854  -22.0589 H   0  0  0  0  0  0
    3.8821    2.4329  -20.4589 H   0  0  0  0  0  0
    5.1233    1.4112  -19.5367 H   0  0  0  0  0  0
   -1.4295    3.5720  -26.7683 H   0  0  0  0  0  0
    0.1787    2.0447  -20.6256 H   0  0  0  0  0  0
    6.9897    0.5378  -21.3329 H   0  0  0  0  0  0
   -2.8076    3.7298  -28.2542 H   0  0  0  0  0  0
    4.8000    7.7100  -22.5980 N   0  3  0  0  0  0
    5.1780    9.6680  -21.0250 C   0  0  0  0  0  0
    3.5440    7.2790  -21.8840 C   0  0  0  0  0  0
    5.1380    9.1750  -22.4840 C   0  0  0  0  0  0
    5.5150   11.1660  -21.0050 C   0  0  0  0  0  0
    4.7320    7.4579  -23.5716 H   0  0  0  0  0  0
    5.5772    7.1619  -22.2639 H   0  0  0  0  0  0
    5.9493    9.1115  -20.4725 H   0  0  0  0  0  0
    4.1964    9.5059  -20.5557 H   0  0  0  0  0  0
    2.7722    8.0538  -22.0020 H   0  0  0  0  0  0
    3.7471    7.1920  -20.8064 H   0  0  0  0  0  0
    4.4003    9.7648  -23.0478 H   0  0  0  0  0  0
    6.1110    9.3640  -22.9610 H   0  0  0  0  0  0
    5.5450   11.5221  -19.9647 H   0  0  0  0  0  0
    6.4958   11.3280  -21.4759 H   0  0  0  0  0  0
    4.7459   11.7231  -21.5601 H   0  0  0  0  0  0
  1  2  2  0  0  0
  1  3  1  0  0  0
  1 34  1  0  0  0
  2  6  1  0  0  0
  2 35  1  0  0  0
  3  5  2  0  0  0
  3 27  1  0  0  0
  4  5  1  0  0  0
  4  6  2  0  0  0
  4 18  1  0  0  0
  5 24  1  0  0  0
  6 10  1  0  0  0
  7 10  2  0  0  0
  7 23  1  0  0  0
  7 33  1  0  0  0
  8 21  1  0  0  0
  8 22  1  0  0  0
  8 36  1  0  0  0
  8 37  1  0  0  0
  9 21  1  0  0  0
  9 31  1  0  0  0
  9 38  1  0  0  0
  9 39  1  0  0  0
 10 40  1  0  0  0
 11 12  1  0  0  0
 11 14  2  0  0  0
 11 15  1  0  0  0
 12 17  1  0  0  0
 12 28  2  0  0  0
 13 28  1  0  0  0
 13 29  2  0  0  0
 13 54  1  0  0  0
 14 29  1  0  0  0
 14 31  1  0  0  0
 15 30  2  0  0  0
 15 41  1  0  0  0
 16 17  2  0  0  0
 16 18  1  0  0  0
 16 30  1  0  0  0
 17 26  1  0  0  0
 18 23  2  0  0  0
 19 20  1  0  0  0
 19 31  1  0  0  0
 19 42  1  0  0  0
 19 43  1  0  0  0
 20 22  1  0  0  0
 20 32  1  0  0  0
 20 44  1  0  0  0
 21 32  1  0  0  0
 21 45  1  0  0  0
 22 46  1  0  0  0
 22 47  1  0  0  0
 23 48  1  0  0  0
 24 25  3  0  0  0
 25 49  1  0  0  0
 32 50  1  0  0  0
 33 51  1  0  0  0
 52 54  1  0  0  0
 52 55  1  0  0  0
 52 57  1  0  0  0
 52 58  1  0  0  0
 53 55  1  0  0  0
 53 56  1  0  0  0
 53 59  1  0  0  0
 53 60  1  0  0  0
 54 61  1  0  0  0
 54 62  1  0  0  0
 55 63  1  0  0  0
 55 64  1  0  0  0
 56 65  1  0  0  0
 56 66  1  0  0  0
 56 67  1  0  0  0
M  CHG  1  52   1
M  END
> <s_m_entry_id>
567

> <s_m_entry_name>
000000567.1

> <s_m_Source_Path>
/Users/zaksoul/Documents/2

> <s_m_Source_File>
000000567.mol2

> <i_m_Source_File_Index>
1

$$$$
No_0_591
                    3D
 Schrodinger Suite 2022-4.
 67 72  0  0  1  0            999 V2000
   -5.2000    3.2960  -21.9080 C   0  0  0  0  0  0
   -5.4550    3.5270  -23.2390 C   0  0  0  0  0  0
   -3.9590    3.0640  -21.5610 C   0  0  0  0  0  0
   -3.0460    3.2930  -23.7090 C   0  0  0  0  0  0
   -2.8960    3.0010  -22.2970 C   0  0  0  0  0  0
   -4.3940    3.5390  -24.2380 C   0  0  0  0  0  0
   -3.6150    3.6610  -26.4240 C   0  0  0  0  0  0
    6.0690    2.9950  -21.0660 C   0  0  0  0  0  0
    5.9560    3.2270  -23.6100 C   0  0  0  0  0  0
   -4.6330    3.7080  -25.5700 C   0  0  0  0  0  0
    2.1590    3.6740  -23.6550 C   0  0  0  0  0  0
    1.3040    4.7480  -23.3270 C   0  0  0  0  0  0
    3.0610    5.9660  -22.5810 C   0  0  0  0  0  0
    3.5490    3.8900  -23.3180 C   0  0  0  0  0  0
    1.6510    2.5670  -24.3640 C   0  0  0  0  0  0
   -0.4990    3.3190  -24.2500 C   0  0  0  0  0  0
   -0.0130    4.5300  -23.6010 C   0  0  0  0  0  0
   -1.9480    3.2990  -24.6230 C   0  0  0  0  0  0
    4.2190    1.4010  -23.1090 C   0  0  0  0  0  0
    5.1490    1.0280  -21.9650 C   0  0  2  0  0  0
    6.7050    2.6300  -22.4250 C   0  0  2  0  0  0
    5.0900    1.9850  -20.7620 C   0  0  0  0  0  0
   -2.2610    3.5020  -26.0480 C   0  0  0  0  0  0
   -1.5480    2.6030  -21.6970 C   0  0  0  0  0  0
   -0.5140    2.2640  -21.1910 C   0  0  0  0  0  0
   -0.8870    5.5390  -23.2290 F   0  0  0  0  0  0
   -3.7580    2.7770  -20.1860 F   0  0  0  0  0  0
    1.7430    5.8990  -22.7470 N   0  0  0  0  0  0
    3.9860    5.0360  -22.8250 N   0  0  0  0  0  0
    0.3510    2.4540  -24.6880 N   0  0  0  0  0  0
    4.4980    2.8750  -23.5210 N   0  0  0  0  0  0
    6.5590    1.1500  -22.4270 N   0  0  1  0  0  0
   -3.7720    3.7220  -27.8140 O   0  0  0  0  0  0
   -6.0117    3.3111  -21.1897 H   0  0  0  0  0  0
   -6.4705    3.7066  -23.5731 H   0  0  0  0  0  0
    5.5727    3.9734  -21.1457 H   0  0  0  0  0  0
    6.8458    2.9980  -20.2872 H   0  0  0  0  0  0
    6.3736    2.8276  -24.5460 H   0  0  0  0  0  0
    6.0700    4.3210  -23.6019 H   0  0  0  0  0  0
   -5.6440    3.8785  -25.9220 H   0  0  0  0  0  0
    2.3159    1.7664  -24.6673 H   0  0  0  0  0  0
    3.1742    1.3041  -22.7789 H   0  0  0  0  0  0
    4.4096    0.7385  -23.9662 H   0  0  0  0  0  0
    4.9482   -0.0023  -21.6360 H   0  0  0  0  0  0
    7.7667    2.9166  -22.4482 H   0  0  0  0  0  0
    4.0930    2.4472  -20.7136 H   0  0  0  0  0  0
    5.3938    1.4460  -19.8525 H   0  0  0  0  0  0
   -1.4823    3.5311  -26.8016 H   0  0  0  0  0  0
    0.3961    1.9660  -20.7460 H   0  0  0  0  0  0
    7.2114    0.6441  -21.7307 H   0  0  0  0  0  0
   -2.9201    3.6725  -28.2315 H   0  0  0  0  0  0
    3.5700    8.3690  -23.1210 N   0  3  0  0  0  0
    4.7910   10.0350  -21.6440 C   0  0  0  0  0  0
    3.5790    7.3020  -22.0570 C   0  0  0  0  0  0
    3.6210    9.7880  -22.6130 C   0  0  0  0  0  0
    4.7570   11.4950  -21.1690 C   0  0  0  0  0  0
    2.7560    8.2530  -23.7040 H   0  0  0  0  0  0
    4.3391    8.2150  -23.7541 H   0  0  0  0  0  0
    5.7421    9.8400  -22.1611 H   0  0  0  0  0  0
    4.6961    9.3654  -20.7765 H   0  0  0  0  0  0
    2.9590    7.6260  -21.2081 H   0  0  0  0  0  0
    4.6027    7.1729  -21.6757 H   0  0  0  0  0  0
    2.6731   10.0300  -22.1101 H   0  0  0  0  0  0
    3.7000   10.4791  -23.4651 H   0  0  0  0  0  0
    5.5919   11.6760  -20.4761 H   0  0  0  0  0  0
    4.8490   12.1659  -22.0359 H   0  0  0  0  0  0
    3.8050   11.6910  -20.6540 H   0  0  0  0  0  0
  1  2  2  0  0  0
  1  3  1  0  0  0
  1 34  1  0  0  0
  2  6  1  0  0  0
  2 35  1  0  0  0
  3  5  2  0  0  0
  3 27  1  0  0  0
  4  5  1  0  0  0
  4  6  2  0  0  0
  4 18  1  0  0  0
  5 24  1  0  0  0
  6 10  1  0  0  0
  7 10  2  0  0  0
  7 23  1  0  0  0
  7 33  1  0  0  0
  8 21  1  0  0  0
  8 22  1  0  0  0
  8 36  1  0  0  0
  8 37  1  0  0  0
  9 21  1  0  0  0
  9 31  1  0  0  0
  9 38  1  0  0  0
  9 39  1  0  0  0
 10 40  1  0  0  0
 11 12  1  0  0  0
 11 14  2  0  0  0
 11 15  1  0  0  0
 12 17  1  0  0  0
 12 28  2  0  0  0
 13 28  1  0  0  0
 13 29  2  0  0  0
 13 54  1  0  0  0
 14 29  1  0  0  0
 14 31  1  0  0  0
 15 30  2  0  0  0
 15 41  1  0  0  0
 16 17  2  0  0  0
 16 18  1  0  0  0
 16 30  1  0  0  0
 17 26  1  0  0  0
 18 23  2  0  0  0
 19 20  1  0  0  0
 19 31  1  0  0  0
 19 42  1  0  0  0
 19 43  1  0  0  0
 20 22  1  0  0  0
 20 32  1  0  0  0
 20 44  1  0  0  0
 21 32  1  0  0  0
 21 45  1  0  0  0
 22 46  1  0  0  0
 22 47  1  0  0  0
 23 48  1  0  0  0
 24 25  3  0  0  0
 25 49  1  0  0  0
 32 50  1  0  0  0
 33 51  1  0  0  0
 52 54  1  0  0  0
 52 55  1  0  0  0
 52 57  1  0  0  0
 52 58  1  0  0  0
 53 55  1  0  0  0
 53 56  1  0  0  0
 53 59  1  0  0  0
 53 60  1  0  0  0
 54 61  1  0  0  0
 54 62  1  0  0  0
 55 63  1  0  0  0
 55 64  1  0  0  0
 56 65  1  0  0  0
 56 66  1  0  0  0
 56 67  1  0  0  0
M  CHG  1  52   1
M  END
> <s_m_entry_id>
568

> <s_m_entry_name>
000000568.1

> <s_m_Source_Path>
/Users/zaksoul/Documents/2

> <s_m_Source_File>
000000568.mol2

> <i_m_Source_File_Index>
1

$$$$
No_0_592
                    3D
 Schrodinger Suite 2022-4.
 67 72  0  0  1  0            999 V2000
   -5.0860    3.6160  -22.0240 C   0  0  0  0  0  0
   -5.3590    3.8230  -23.3550 C   0  0  0  0  0  0
   -3.8430    3.3770  -21.6910 C   0  0  0  0  0  0
   -2.9600    3.5550  -23.8560 C   0  0  0  0  0  0
   -2.7910    3.2890  -22.4400 C   0  0  0  0  0  0
   -4.3130    3.8040  -24.3690 C   0  0  0  0  0  0
   -3.5640    3.8750  -26.5680 C   0  0  0  0  0  0
    6.1900    3.2090  -21.3410 C   0  0  0  0  0  0
    6.0420    3.3920  -23.8880 C   0  0  0  0  0  0
   -4.5700    3.9500  -25.7010 C   0  0  0  0  0  0
    2.2490    3.8790  -23.8860 C   0  0  0  0  0  0
    1.4110    4.9690  -23.5660 C   0  0  0  0  0  0
    3.1920    6.1820  -22.8710 C   0  0  0  0  0  0
    3.6470    4.0870  -23.5730 C   0  0  0  0  0  0
    1.7190    2.7650  -24.5650 C   0  0  0  0  0  0
   -0.4210    3.5420  -24.4350 C   0  0  0  0  0  0
    0.0880    4.7600  -23.8160 C   0  0  0  0  0  0
   -1.8750    3.5310  -24.7850 C   0  0  0  0  0  0
    4.2940    1.5950  -23.3250 C   0  0  0  0  0  0
    5.2360    1.2350  -22.1870 C   0  0  2  0  0  0
    6.8030    2.8100  -22.7020 C   0  0  2  0  0  0
    5.2060    2.2160  -21.0030 C   0  0  0  0  0  0
   -2.2070    3.7090  -26.2090 C   0  0  0  0  0  0
   -1.4380    2.8870  -21.8520 C   0  0  0  0  0  0
   -0.4010    2.5480  -21.3550 C   0  0  0  0  0  0
   -0.7690    5.7860  -23.4520 F   0  0  0  0  0  0
   -3.6240    3.1150  -20.3130 F   0  0  0  0  0  0
    1.8710    6.1270  -23.0160 N   0  0  0  0  0  0
    4.1030    5.2380  -23.1090 N   0  0  0  0  0  0
    0.4130    2.6600  -24.8680 N   0  0  0  0  0  0
    4.5820    3.0580  -23.7700 N   0  0  0  0  0  0
    6.6400    1.3330  -22.6720 N   0  0  1  0  0  0
   -3.7410    3.9110  -27.9570 O   0  0  0  0  0  0
   -5.8864    3.6542  -21.2939 H   0  0  0  0  0  0
   -6.3773    4.0078  -23.6774 H   0  0  0  0  0  0
    5.7034    4.1912  -21.4329 H   0  0  0  0  0  0
    6.9783    3.2191  -20.5739 H   0  0  0  0  0  0
    6.4409    2.9699  -24.8222 H   0  0  0  0  0  0
    6.1681    4.4847  -23.9021 H   0  0  0  0  0  0
   -5.5839    4.1247  -26.0423 H   0  0  0  0  0  0
    2.3704    1.9510  -24.8621 H   0  0  0  0  0  0
    3.2531    1.5163  -22.9780 H   0  0  0  0  0  0
    4.4646    0.9138  -24.1717 H   0  0  0  0  0  0
    5.0290    0.2134  -21.8357 H   0  0  0  0  0  0
    7.8670    3.0856  -22.7474 H   0  0  0  0  0  0
    4.2150    2.6903  -20.9485 H   0  0  0  0  0  0
    5.5168    1.6912  -20.0876 H   0  0  0  0  0  0
   -1.4395    3.7140  -26.9745 H   0  0  0  0  0  0
    0.5124    2.2492  -20.9173 H   0  0  0  0  0  0
    7.2976    0.8336  -21.9759 H   0  0  0  0  0  0
   -2.8964    3.8437  -28.3867 H   0  0  0  0  0  0
    3.1030    8.6850  -23.1050 N   0  3  0  0  0  0
    4.6640   10.3710  -22.0240 C   0  0  0  0  0  0
    3.7310    7.5220  -22.3810 C   0  0  0  0  0  0
    3.2150   10.0170  -22.4080 C   0  0  0  0  0  0
    4.6820   11.7310  -21.3110 C   0  0  0  0  0  0
    2.1314    8.4821  -23.2809 H   0  0  0  0  0  0
    3.5011    8.7570  -24.0282 H   0  0  0  0  0  0
    5.2810   10.4260  -22.9330 H   0  0  0  0  0  0
    5.0631    9.5988  -21.3498 H   0  0  0  0  0  0
    3.5450    7.6190  -21.3012 H   0  0  0  0  0  0
    4.8217    7.5510  -22.5210 H   0  0  0  0  0  0
    2.5888   10.0110  -21.5037 H   0  0  0  0  0  0
    2.8068   10.8055  -23.0574 H   0  0  0  0  0  0
    5.7153   11.9881  -21.0349 H   0  0  0  0  0  0
    4.2801   12.5038  -21.9828 H   0  0  0  0  0  0
    4.0631   11.6780  -20.4032 H   0  0  0  0  0  0
  1  2  2  0  0  0
  1  3  1  0  0  0
  1 34  1  0  0  0
  2  6  1  0  0  0
  2 35  1  0  0  0
  3  5  2  0  0  0
  3 27  1  0  0  0
  4  5  1  0  0  0
  4  6  2  0  0  0
  4 18  1  0  0  0
  5 24  1  0  0  0
  6 10  1  0  0  0
  7 10  2  0  0  0
  7 23  1  0  0  0
  7 33  1  0  0  0
  8 21  1  0  0  0
  8 22  1  0  0  0
  8 36  1  0  0  0
  8 37  1  0  0  0
  9 21  1  0  0  0
  9 31  1  0  0  0
  9 38  1  0  0  0
  9 39  1  0  0  0
 10 40  1  0  0  0
 11 12  1  0  0  0
 11 14  2  0  0  0
 11 15  1  0  0  0
 12 17  1  0  0  0
 12 28  2  0  0  0
 13 28  1  0  0  0
 13 29  2  0  0  0
 13 54  1  0  0  0
 14 29  1  0  0  0
 14 31  1  0  0  0
 15 30  2  0  0  0
 15 41  1  0  0  0
 16 17  2  0  0  0
 16 18  1  0  0  0
 16 30  1  0  0  0
 17 26  1  0  0  0
 18 23  2  0  0  0
 19 20  1  0  0  0
 19 31  1  0  0  0
 19 42  1  0  0  0
 19 43  1  0  0  0
 20 22  1  0  0  0
 20 32  1  0  0  0
 20 44  1  0  0  0
 21 32  1  0  0  0
 21 45  1  0  0  0
 22 46  1  0  0  0
 22 47  1  0  0  0
 23 48  1  0  0  0
 24 25  3  0  0  0
 25 49  1  0  0  0
 32 50  1  0  0  0
 33 51  1  0  0  0
 52 54  1  0  0  0
 52 55  1  0  0  0
 52 57  1  0  0  0
 52 58  1  0  0  0
 53 55  1  0  0  0
 53 56  1  0  0  0
 53 59  1  0  0  0
 53 60  1  0  0  0
 54 61  1  0  0  0
 54 62  1  0  0  0
 55 63  1  0  0  0
 55 64  1  0  0  0
 56 65  1  0  0  0
 56 66  1  0  0  0
 56 67  1  0  0  0
M  CHG  1  52   1
M  END
> <s_m_entry_id>
569

> <s_m_entry_name>
000000569.1

> <s_m_Source_Path>
/Users/zaksoul/Documents/2

> <s_m_Source_File>
000000569.mol2

> <i_m_Source_File_Index>
1

$$$$
No_0_593
                    3D
 Schrodinger Suite 2022-4.
 64 69  0  0  1  0            999 V2000
   -5.3610    3.4480  -22.2880 C   0  0  0  0  0  0
   -5.5700    3.6310  -23.6340 C   0  0  0  0  0  0
   -4.1360    3.2080  -21.8920 C   0  0  0  0  0  0
   -3.1520    3.3390  -24.0170 C   0  0  0  0  0  0
   -3.0520    3.1000  -22.5900 C   0  0  0  0  0  0
   -4.4780    3.5870  -24.5970 C   0  0  0  0  0  0
   -3.6280    3.6120  -26.7600 C   0  0  0  0  0  0
    5.8680    2.9910  -21.0720 C   0  0  0  0  0  0
    5.8400    3.1270  -23.6250 C   0  0  0  0  0  0
   -4.6720    3.7090  -25.9430 C   0  0  0  0  0  0
    2.0540    3.6350  -23.8100 C   0  0  0  0  0  0
    1.2090    4.7350  -23.5500 C   0  0  0  0  0  0
    2.9630    5.9510  -22.7950 C   0  0  0  0  0  0
    3.4370    3.8410  -23.4360 C   0  0  0  0  0  0
    1.5490    2.5110  -24.4910 C   0  0  0  0  0  0
   -0.5890    3.3020  -24.4760 C   0  0  0  0  0  0
   -0.1020    4.5290  -23.8580 C   0  0  0  0  0  0
   -2.0260    3.2920  -24.8940 C   0  0  0  0  0  0
    4.0560    1.3500  -23.1110 C   0  0  0  0  0  0
    4.9420    1.0070  -21.9240 C   0  0  2  0  0  0
    6.5400    2.5630  -22.3940 C   0  0  2  0  0  0
    4.8620    2.0100  -20.7610 C   0  0  0  0  0  0
   -2.2900    3.4450  -26.3350 C   0  0  0  0  0  0
   -1.7310    2.7020  -21.9320 C   0  0  0  0  0  0
   -0.7190    2.3660  -21.3810 C   0  0  0  0  0  0
   -0.9690    5.5660  -23.5530 F   0  0  0  0  0  0
   -3.9840    2.9710  -20.5020 F   0  0  0  0  0  0
    1.6500    5.9000  -23.0010 N   0  0  0  0  0  0
    3.8780    4.9980  -22.9730 N   0  0  0  0  0  0
    0.2580    2.4070  -24.8530 N   0  0  0  0  0  0
    4.3730    2.8020  -23.5700 N   0  0  0  0  0  0
    6.3670    1.0880  -22.3450 N   0  0  1  0  0  0
   -3.7400    3.6220  -28.1560 O   0  0  0  0  0  0
   -6.1948    3.5042  -21.5976 H   0  0  0  0  0  0
   -6.5711    3.8146  -24.0071 H   0  0  0  0  0  0
    5.3926    3.9741  -21.2042 H   0  0  0  0  0  0
    6.6195    3.0112  -20.2690 H   0  0  0  0  0  0
    6.2791    2.6849  -24.5315 H   0  0  0  0  0  0
    5.9733    4.2185  -23.6543 H   0  0  0  0  0  0
   -5.6683    3.8826  -26.3333 H   0  0  0  0  0  0
    2.2082    1.6882  -24.7429 H   0  0  0  0  0  0
    2.9997    1.2834  -22.8114 H   0  0  0  0  0  0
    4.2619    0.6527  -23.9365 H   0  0  0  0  0  0
    4.7120   -0.0066  -21.5639 H   0  0  0  0  0  0
    7.6068    2.8312  -22.3950 H   0  0  0  0  0  0
    3.8725    2.4906  -20.7620 H   0  0  0  0  0  0
    5.1274    1.5014  -19.8225 H   0  0  0  0  0  0
   -1.4873    3.4320  -27.0634 H   0  0  0  0  0  0
    0.1713    2.0709  -20.8958 H   0  0  0  0  0  0
    6.9881    0.5984  -21.6095 H   0  0  0  0  0  0
   -2.8764    3.5419  -28.5438 H   0  0  0  0  0  0
    3.4160    7.4030  -20.8040 N   0  3  0  0  0  0
    3.4880    7.2970  -22.3060 C   0  0  0  0  0  0
    3.9610    8.6760  -20.2100 C   0  0  0  0  0  0
    5.4970    8.7480  -20.2950 C   0  0  0  0  0  0
    3.8898    6.6143  -20.3922 H   0  0  0  0  0  0
    2.4611    7.2790  -20.5060 H   0  0  0  0  0  0
    4.5304    7.4250  -22.6331 H   0  0  0  0  0  0
    2.8962    8.1067  -22.7578 H   0  0  0  0  0  0
    3.6492    8.7509  -19.1578 H   0  0  0  0  0  0
    3.5240    9.5400  -20.7320 H   0  0  0  0  0  0
    5.8459    9.6916  -19.8502 H   0  0  0  0  0  0
    5.9359    7.9012  -19.7471 H   0  0  0  0  0  0
    5.8090    8.7030  -21.3489 H   0  0  0  0  0  0
  1  2  2  0  0  0
  1  3  1  0  0  0
  1 34  1  0  0  0
  2  6  1  0  0  0
  2 35  1  0  0  0
  3  5  2  0  0  0
  3 27  1  0  0  0
  4  5  1  0  0  0
  4  6  2  0  0  0
  4 18  1  0  0  0
  5 24  1  0  0  0
  6 10  1  0  0  0
  7 10  2  0  0  0
  7 23  1  0  0  0
  7 33  1  0  0  0
  8 21  1  0  0  0
  8 22  1  0  0  0
  8 36  1  0  0  0
  8 37  1  0  0  0
  9 21  1  0  0  0
  9 31  1  0  0  0
  9 38  1  0  0  0
  9 39  1  0  0  0
 10 40  1  0  0  0
 11 12  1  0  0  0
 11 14  2  0  0  0
 11 15  1  0  0  0
 12 17  1  0  0  0
 12 28  2  0  0  0
 13 28  1  0  0  0
 13 29  2  0  0  0
 13 53  1  0  0  0
 14 29  1  0  0  0
 14 31  1  0  0  0
 15 30  2  0  0  0
 15 41  1  0  0  0
 16 17  2  0  0  0
 16 18  1  0  0  0
 16 30  1  0  0  0
 17 26  1  0  0  0
 18 23  2  0  0  0
 19 20  1  0  0  0
 19 31  1  0  0  0
 19 42  1  0  0  0
 19 43  1  0  0  0
 20 22  1  0  0  0
 20 32  1  0  0  0
 20 44  1  0  0  0
 21 32  1  0  0  0
 21 45  1  0  0  0
 22 46  1  0  0  0
 22 47  1  0  0  0
 23 48  1  0  0  0
 24 25  3  0  0  0
 25 49  1  0  0  0
 32 50  1  0  0  0
 33 51  1  0  0  0
 52 53  1  0  0  0
 52 54  1  0  0  0
 52 56  1  0  0  0
 52 57  1  0  0  0
 53 58  1  0  0  0
 53 59  1  0  0  0
 54 55  1  0  0  0
 54 60  1  0  0  0
 54 61  1  0  0  0
 55 62  1  0  0  0
 55 63  1  0  0  0
 55 64  1  0  0  0
M  CHG  1  52   1
M  END
> <s_m_entry_id>
570

> <s_m_entry_name>
000000570.1

> <s_m_Source_Path>
/Users/zaksoul/Documents/2

> <s_m_Source_File>
000000570.mol2

> <i_m_Source_File_Index>
1

$$$$
No_0_594
                    3D
 Schrodinger Suite 2022-4.
 64 69  0  0  1  0            999 V2000
   -5.3910    3.4270  -22.1200 C   0  0  0  0  0  0
   -5.6200    3.5990  -23.4640 C   0  0  0  0  0  0
   -4.1600    3.2010  -21.7390 C   0  0  0  0  0  0
   -3.2050    3.3260  -23.8770 C   0  0  0  0  0  0
   -3.0830    3.0970  -22.4500 C   0  0  0  0  0  0
   -4.5400    3.5580  -24.4420 C   0  0  0  0  0  0
   -3.7180    3.5770  -26.6160 C   0  0  0  0  0  0
    5.8560    3.0760  -21.0490 C   0  0  0  0  0  0
    5.7940    3.1940  -23.6020 C   0  0  0  0  0  0
   -4.7530    3.6700  -25.7850 C   0  0  0  0  0  0
    2.0010    3.6680  -23.7400 C   0  0  0  0  0  0
    1.1500    4.7630  -23.4760 C   0  0  0  0  0  0
    2.9030    5.9990  -22.7520 C   0  0  0  0  0  0
    3.3870    3.8890  -23.3860 C   0  0  0  0  0  0
    1.4970    2.5350  -24.4080 C   0  0  0  0  0  0
   -0.6480    3.3080  -24.3700 C   0  0  0  0  0  0
   -0.1630    4.5430  -23.7660 C   0  0  0  0  0  0
   -2.0890    3.2830  -24.7690 C   0  0  0  0  0  0
    4.0320    1.4060  -23.0540 C   0  0  0  0  0  0
    4.9360    1.0780  -21.8760 C   0  0  2  0  0  0
    6.5150    2.6450  -22.3770 C   0  0  2  0  0  0
    4.8630    2.0880  -20.7190 C   0  0  0  0  0  0
   -2.3730    3.4240  -26.2070 C   0  0  0  0  0  0
   -1.7500    2.7150  -21.8070 C   0  0  0  0  0  0
   -0.7290    2.3920  -21.2670 C   0  0  0  0  0  0
   -1.0350    5.5740  -23.4570 F   0  0  0  0  0  0
   -3.9870    2.9740  -20.3490 F   0  0  0  0  0  0
    1.5880    5.9360  -22.9410 N   0  0  0  0  0  0
    3.8250    5.0520  -22.9370 N   0  0  0  0  0  0
    0.2030    2.4180  -24.7520 N   0  0  0  0  0  0
    4.3310    2.8580  -23.5260 N   0  0  0  0  0  0
    6.3560    1.1680  -22.3160 N   0  0  1  0  0  0
   -3.8490    3.5760  -28.0100 O   0  0  0  0  0  0
   -6.2158    3.4802  -21.4186 H   0  0  0  0  0  0
   -6.6274    3.7716  -23.8252 H   0  0  0  0  0  0
    5.3705    4.0541  -21.1812 H   0  0  0  0  0  0
    6.6177    3.1083  -20.2560 H   0  0  0  0  0  0
    6.2250    2.7499  -24.5114 H   0  0  0  0  0  0
    5.9161    4.2865  -23.6403 H   0  0  0  0  0  0
   -5.7557    3.8326  -26.1634 H   0  0  0  0  0  0
    2.1607    1.7167  -24.6630 H   0  0  0  0  0  0
    2.9806    1.3323  -22.7392 H   0  0  0  0  0  0
    4.2329    0.7043  -23.8769 H   0  0  0  0  0  0
    4.7201    0.0650  -21.5057 H   0  0  0  0  0  0
    7.5793    2.9224  -22.3931 H   0  0  0  0  0  0
    3.8697    2.5604  -20.7099 H   0  0  0  0  0  0
    5.1446    1.5884  -19.7803 H   0  0  0  0  0  0
   -1.5804    3.4130  -26.9464 H   0  0  0  0  0  0
    0.1700    2.1070  -20.7920 H   0  0  0  0  0  0
    6.9912    0.6889  -21.5856 H   0  0  0  0  0  0
   -2.9900    3.5008  -28.4088 H   0  0  0  0  0  0
    4.6570    7.2020  -21.4270 N   0  3  0  0  0  0
    3.4220    7.3530  -22.2790 C   0  0  0  0  0  0
    5.2850    8.4850  -20.9500 C   0  0  0  0  0  0
    5.9790    9.2540  -22.0910 C   0  0  0  0  0  0
    5.3438    6.6621  -21.9299 H   0  0  0  0  0  0
    4.4438    6.6196  -20.6324 H   0  0  0  0  0  0
    3.6538    7.9816  -23.1514 H   0  0  0  0  0  0
    2.6384    7.8644  -21.7006 H   0  0  0  0  0  0
    6.0172    8.2629  -20.1597 H   0  0  0  0  0  0
    4.5127    9.1232  -20.4958 H   0  0  0  0  0  0
    6.4201   10.1802  -21.6939 H   0  0  0  0  0  0
    6.7720    8.6280  -22.5260 H   0  0  0  0  0  0
    5.2408    9.5041  -22.8672 H   0  0  0  0  0  0
  1  2  2  0  0  0
  1  3  1  0  0  0
  1 34  1  0  0  0
  2  6  1  0  0  0
  2 35  1  0  0  0
  3  5  2  0  0  0
  3 27  1  0  0  0
  4  5  1  0  0  0
  4  6  2  0  0  0
  4 18  1  0  0  0
  5 24  1  0  0  0
  6 10  1  0  0  0
  7 10  2  0  0  0
  7 23  1  0  0  0
  7 33  1  0  0  0
  8 21  1  0  0  0
  8 22  1  0  0  0
  8 36  1  0  0  0
  8 37  1  0  0  0
  9 21  1  0  0  0
  9 31  1  0  0  0
  9 38  1  0  0  0
  9 39  1  0  0  0
 10 40  1  0  0  0
 11 12  1  0  0  0
 11 14  2  0  0  0
 11 15  1  0  0  0
 12 17  1  0  0  0
 12 28  2  0  0  0
 13 28  1  0  0  0
 13 29  2  0  0  0
 13 53  1  0  0  0
 14 29  1  0  0  0
 14 31  1  0  0  0
 15 30  2  0  0  0
 15 41  1  0  0  0
 16 17  2  0  0  0
 16 18  1  0  0  0
 16 30  1  0  0  0
 17 26  1  0  0  0
 18 23  2  0  0  0
 19 20  1  0  0  0
 19 31  1  0  0  0
 19 42  1  0  0  0
 19 43  1  0  0  0
 20 22  1  0  0  0
 20 32  1  0  0  0
 20 44  1  0  0  0
 21 32  1  0  0  0
 21 45  1  0  0  0
 22 46  1  0  0  0
 22 47  1  0  0  0
 23 48  1  0  0  0
 24 25  3  0  0  0
 25 49  1  0  0  0
 32 50  1  0  0  0
 33 51  1  0  0  0
 52 53  1  0  0  0
 52 54  1  0  0  0
 52 56  1  0  0  0
 52 57  1  0  0  0
 53 58  1  0  0  0
 53 59  1  0  0  0
 54 55  1  0  0  0
 54 60  1  0  0  0
 54 61  1  0  0  0
 55 62  1  0  0  0
 55 63  1  0  0  0
 55 64  1  0  0  0
M  CHG  1  52   1
M  END
> <s_m_entry_id>
571

> <s_m_entry_name>
000000571.1

> <s_m_Source_Path>
/Users/zaksoul/Documents/2

> <s_m_Source_File>
000000571.mol2

> <i_m_Source_File_Index>
1

$$$$
No_0_595
                    3D
 Schrodinger Suite 2022-4.
 64 69  0  0  1  0            999 V2000
   -5.5690    3.1710  -21.9540 C   0  0  0  0  0  0
   -5.8100    3.4060  -23.2870 C   0  0  0  0  0  0
   -4.3370    2.9130  -21.5980 C   0  0  0  0  0  0
   -3.4030    3.1220  -23.7390 C   0  0  0  0  0  0
   -3.2690    2.8280  -22.3250 C   0  0  0  0  0  0
   -4.7420    3.3950  -24.2770 C   0  0  0  0  0  0
   -3.9430    3.4990  -26.4580 C   0  0  0  0  0  0
    5.6840    2.6330  -21.0270 C   0  0  0  0  0  0
    5.5950    2.8660  -23.5720 C   0  0  0  0  0  0
   -4.9670    3.5680  -25.6120 C   0  0  0  0  0  0
    1.8080    3.3920  -23.6460 C   0  0  0  0  0  0
    0.9740    4.4850  -23.3240 C   0  0  0  0  0  0
    2.7510    5.6660  -22.5660 C   0  0  0  0  0  0
    3.2010    3.5800  -23.2980 C   0  0  0  0  0  0
    1.2820    2.2960  -24.3570 C   0  0  0  0  0  0
   -0.8520    3.0930  -24.2610 C   0  0  0  0  0  0
   -0.3450    4.2940  -23.6080 C   0  0  0  0  0  0
   -2.2980    3.1030  -24.6440 C   0  0  0  0  0  0
    3.8160    1.0770  -23.0830 C   0  0  0  0  0  0
    4.7290    0.6850  -21.9310 C   0  0  2  0  0  0
    6.3230    2.2530  -22.3800 C   0  0  2  0  0  0
    4.6820    1.6440  -20.7300 C   0  0  0  0  0  0
   -2.5960    3.3120  -26.0720 C   0  0  0  0  0  0
   -1.9340    2.4010  -21.7150 C   0  0  0  0  0  0
   -0.9120    2.0410  -21.2010 C   0  0  0  0  0  0
   -1.2000    5.3210  -23.2440 F   0  0  0  0  0  0
   -4.1520    2.6230  -20.2210 F   0  0  0  0  0  0
    1.4330    5.6270  -22.7420 N   0  0  0  0  0  0
    3.6580    4.7170  -22.8030 N   0  0  0  0  0  0
   -0.0170    2.2100  -24.6920 N   0  0  0  0  0  0
    4.1290    2.5440  -23.4940 N   0  0  0  0  0  0
    6.1450    0.7780  -22.3830 N   0  0  1  0  0  0
   -4.0880    3.5620  -27.8490 O   0  0  0  0  0  0
   -6.3860    3.2041  -21.2424 H   0  0  0  0  0  0
   -6.8191    3.6068  -23.6284 H   0  0  0  0  0  0
    5.2089    3.6216  -21.1107 H   0  0  0  0  0  0
    6.4542    2.6209  -20.2417 H   0  0  0  0  0  0
    6.0107    2.4563  -24.5044 H   0  0  0  0  0  0
    5.7313    3.9575  -23.5629 H   0  0  0  0  0  0
   -5.9713    3.7596  -25.9722 H   0  0  0  0  0  0
    1.9319    1.4816  -24.6559 H   0  0  0  0  0  0
    2.7669    1.0023  -22.7609 H   0  0  0  0  0  0
    3.9996    0.4102  -23.9384 H   0  0  0  0  0  0
    4.5038   -0.3408  -21.6039 H   0  0  0  0  0  0
    7.3903    2.5186  -22.3962 H   0  0  0  0  0  0
    3.6946    2.1271  -20.6886 H   0  0  0  0  0  0
    4.9667    1.0999  -19.8174 H   0  0  0  0  0  0
   -1.8112    3.3240  -26.8197 H   0  0  0  0  0  0
   -0.0116    1.7249  -20.7488 H   0  0  0  0  0  0
    6.7811    0.2584  -21.6817 H   0  0  0  0  0  0
   -3.2346    3.4947  -28.2609 H   0  0  0  0  0  0
    4.7900    6.9450  -21.8710 N   0  3  0  0  0  0
    3.2920    6.9910  -22.0400 C   0  0  0  0  0  0
    5.4360    8.2240  -21.4050 C   0  0  0  0  0  0
    5.4380    9.3080  -22.5000 C   0  0  0  0  0  0
    5.2141    6.6549  -22.7382 H   0  0  0  0  0  0
    5.0300    6.1999  -21.2359 H   0  0  0  0  0  0
    3.0269    7.7984  -22.7384 H   0  0  0  0  0  0
    2.8213    7.2199  -21.0725 H   0  0  0  0  0  0
    6.4702    8.0180  -21.0919 H   0  0  0  0  0  0
    4.9046    8.6003  -20.5184 H   0  0  0  0  0  0
    5.9188   10.2186  -22.1132 H   0  0  0  0  0  0
    5.9950    8.9440  -23.3760 H   0  0  0  0  0  0
    4.4026    9.5361  -22.7931 H   0  0  0  0  0  0
  1  2  2  0  0  0
  1  3  1  0  0  0
  1 34  1  0  0  0
  2  6  1  0  0  0
  2 35  1  0  0  0
  3  5  2  0  0  0
  3 27  1  0  0  0
  4  5  1  0  0  0
  4  6  2  0  0  0
  4 18  1  0  0  0
  5 24  1  0  0  0
  6 10  1  0  0  0
  7 10  2  0  0  0
  7 23  1  0  0  0
  7 33  1  0  0  0
  8 21  1  0  0  0
  8 22  1  0  0  0
  8 36  1  0  0  0
  8 37  1  0  0  0
  9 21  1  0  0  0
  9 31  1  0  0  0
  9 38  1  0  0  0
  9 39  1  0  0  0
 10 40  1  0  0  0
 11 12  1  0  0  0
 11 14  2  0  0  0
 11 15  1  0  0  0
 12 17  1  0  0  0
 12 28  2  0  0  0
 13 28  1  0  0  0
 13 29  2  0  0  0
 13 53  1  0  0  0
 14 29  1  0  0  0
 14 31  1  0  0  0
 15 30  2  0  0  0
 15 41  1  0  0  0
 16 17  2  0  0  0
 16 18  1  0  0  0
 16 30  1  0  0  0
 17 26  1  0  0  0
 18 23  2  0  0  0
 19 20  1  0  0  0
 19 31  1  0  0  0
 19 42  1  0  0  0
 19 43  1  0  0  0
 20 22  1  0  0  0
 20 32  1  0  0  0
 20 44  1  0  0  0
 21 32  1  0  0  0
 21 45  1  0  0  0
 22 46  1  0  0  0
 22 47  1  0  0  0
 23 48  1  0  0  0
 24 25  3  0  0  0
 25 49  1  0  0  0
 32 50  1  0  0  0
 33 51  1  0  0  0
 52 53  1  0  0  0
 52 54  1  0  0  0
 52 56  1  0  0  0
 52 57  1  0  0  0
 53 58  1  0  0  0
 53 59  1  0  0  0
 54 55  1  0  0  0
 54 60  1  0  0  0
 54 61  1  0  0  0
 55 62  1  0  0  0
 55 63  1  0  0  0
 55 64  1  0  0  0
M  CHG  1  52   1
M  END
> <s_m_entry_id>
572

> <s_m_entry_name>
000000572.1

> <s_m_Source_Path>
/Users/zaksoul/Documents/2

> <s_m_Source_File>
000000572.mol2

> <i_m_Source_File_Index>
1

$$$$
No_0_596
                    3D
 Schrodinger Suite 2022-4.
 64 69  0  0  1  0            999 V2000
   -5.2070    3.3290  -22.1000 C   0  0  0  0  0  0
   -5.4540    3.5170  -23.4390 C   0  0  0  0  0  0
   -3.9660    3.1280  -21.7350 C   0  0  0  0  0  0
   -3.0370    3.3110  -23.8800 C   0  0  0  0  0  0
   -2.8950    3.0620  -22.4590 C   0  0  0  0  0  0
   -4.3840    3.5180  -24.4280 C   0  0  0  0  0  0
   -3.5850    3.5910  -26.6090 C   0  0  0  0  0  0
    6.0570    3.2430  -21.1470 C   0  0  0  0  0  0
    5.9640    3.4000  -23.6970 C   0  0  0  0  0  0
   -4.6130    3.6450  -25.7670 C   0  0  0  0  0  0
    2.1600    3.7810  -23.7900 C   0  0  0  0  0  0
    1.2850    4.8500  -23.5000 C   0  0  0  0  0  0
    3.0140    6.1180  -22.7740 C   0  0  0  0  0  0
    3.5440    4.0310  -23.4460 C   0  0  0  0  0  0
    1.6780    2.6460  -24.4710 C   0  0  0  0  0  0
   -0.4850    3.3640  -24.3990 C   0  0  0  0  0  0
   -0.0260    4.6020  -23.7800 C   0  0  0  0  0  0
   -1.9300    3.3090  -24.7830 C   0  0  0  0  0  0
    4.2530    1.5600  -23.1600 C   0  0  0  0  0  0
    5.1780    1.2360  -21.9960 C   0  0  2  0  0  0
    6.7120    2.8500  -22.4880 C   0  0  2  0  0  0
    5.0920    2.2260  -20.8230 C   0  0  0  0  0  0
   -2.2320    3.4660  -26.2170 C   0  0  0  0  0  0
   -1.5460    2.7040  -21.8350 C   0  0  0  0  0  0
   -0.5120    2.3980  -21.3100 C   0  0  0  0  0  0
   -0.9200    5.6060  -23.4460 F   0  0  0  0  0  0
   -3.7730    2.8840  -20.3500 F   0  0  0  0  0  0
    1.6990    6.0240  -22.9500 N   0  0  0  0  0  0
    3.9570    5.1980  -22.9830 N   0  0  0  0  0  0
    0.3830    2.5020  -24.8040 N   0  0  0  0  0  0
    4.5110    3.0260  -23.6120 N   0  0  0  0  0  0
    6.5900    1.3690  -22.4490 N   0  0  1  0  0  0
   -3.7300    3.6090  -28.0020 O   0  0  0  0  0  0
   -6.0256    3.3511  -21.3897 H   0  0  0  0  0  0
   -6.4691    3.6696  -23.7874 H   0  0  0  0  0  0
    5.5456    4.2104  -21.2590 H   0  0  0  0  0  0
    6.8257    3.2823  -20.3612 H   0  0  0  0  0  0
    6.3970    2.9812  -24.6174 H   0  0  0  0  0  0
    6.0598    4.4956  -23.7192 H   0  0  0  0  0  0
   -5.6230    3.7886  -26.1335 H   0  0  0  0  0  0
    2.3586    1.8480  -24.7450 H   0  0  0  0  0  0
    3.2072    1.4540  -22.8360 H   0  0  0  0  0  0
    4.4629    0.8759  -23.9954 H   0  0  0  0  0  0
    4.9914    0.2121  -21.6399 H   0  0  0  0  0  0
    7.7689    3.1539  -22.5112 H   0  0  0  0  0  0
    4.0872    2.6729  -20.7958 H   0  0  0  0  0  0
    5.3958    1.7184  -19.8956 H   0  0  0  0  0  0
   -1.4468    3.4861  -26.9641 H   0  0  0  0  0  0
    0.3985    2.1281  -20.8482 H   0  0  0  0  0  0
    7.2443    0.8943  -21.7327 H   0  0  0  0  0  0
   -2.8736    3.5615  -28.4104 H   0  0  0  0  0  0
    4.8690    7.8010  -22.8360 N   0  3  0  0  0  0
    3.5040    7.4770  -22.2850 C   0  0  0  0  0  0
    5.4260    9.1480  -22.4580 C   0  0  0  0  0  0
    4.6950   10.3030  -23.1700 C   0  0  0  0  0  0
    4.8500    7.7190  -23.8405 H   0  0  0  0  0  0
    5.5190    7.0820  -22.5590 H   0  0  0  0  0  0
    2.7904    8.2557  -22.5923 H   0  0  0  0  0  0
    3.5440    7.4770  -21.1857 H   0  0  0  0  0  0
    6.4970    9.1850  -22.7060 H   0  0  0  0  0  0
    5.3490    9.2830  -21.3690 H   0  0  0  0  0  0
    5.1362   11.2624  -22.8619 H   0  0  0  0  0  0
    4.7980   10.1850  -24.2588 H   0  0  0  0  0  0
    3.6294   10.2850  -22.8978 H   0  0  0  0  0  0
  1  2  2  0  0  0
  1  3  1  0  0  0
  1 34  1  0  0  0
  2  6  1  0  0  0
  2 35  1  0  0  0
  3  5  2  0  0  0
  3 27  1  0  0  0
  4  5  1  0  0  0
  4  6  2  0  0  0
  4 18  1  0  0  0
  5 24  1  0  0  0
  6 10  1  0  0  0
  7 10  2  0  0  0
  7 23  1  0  0  0
  7 33  1  0  0  0
  8 21  1  0  0  0
  8 22  1  0  0  0
  8 36  1  0  0  0
  8 37  1  0  0  0
  9 21  1  0  0  0
  9 31  1  0  0  0
  9 38  1  0  0  0
  9 39  1  0  0  0
 10 40  1  0  0  0
 11 12  1  0  0  0
 11 14  2  0  0  0
 11 15  1  0  0  0
 12 17  1  0  0  0
 12 28  2  0  0  0
 13 28  1  0  0  0
 13 29  2  0  0  0
 13 53  1  0  0  0
 14 29  1  0  0  0
 14 31  1  0  0  0
 15 30  2  0  0  0
 15 41  1  0  0  0
 16 17  2  0  0  0
 16 18  1  0  0  0
 16 30  1  0  0  0
 17 26  1  0  0  0
 18 23  2  0  0  0
 19 20  1  0  0  0
 19 31  1  0  0  0
 19 42  1  0  0  0
 19 43  1  0  0  0
 20 22  1  0  0  0
 20 32  1  0  0  0
 20 44  1  0  0  0
 21 32  1  0  0  0
 21 45  1  0  0  0
 22 46  1  0  0  0
 22 47  1  0  0  0
 23 48  1  0  0  0
 24 25  3  0  0  0
 25 49  1  0  0  0
 32 50  1  0  0  0
 33 51  1  0  0  0
 52 53  1  0  0  0
 52 54  1  0  0  0
 52 56  1  0  0  0
 52 57  1  0  0  0
 53 58  1  0  0  0
 53 59  1  0  0  0
 54 55  1  0  0  0
 54 60  1  0  0  0
 54 61  1  0  0  0
 55 62  1  0  0  0
 55 63  1  0  0  0
 55 64  1  0  0  0
M  CHG  1  52   1
M  END
> <s_m_entry_id>
573

> <s_m_entry_name>
000000573.1

> <s_m_Source_Path>
/Users/zaksoul/Documents/2

> <s_m_Source_File>
000000573.mol2

> <i_m_Source_File_Index>
1

$$$$
No_0_597
                    3D
 Schrodinger Suite 2022-4.
 64 69  0  0  1  0            999 V2000
   -5.4350    3.2340  -21.9000 C   0  0  0  0  0  0
   -5.6600    3.4580  -23.2380 C   0  0  0  0  0  0
   -4.2050    2.9890  -21.5260 C   0  0  0  0  0  0
   -3.2450    3.1900  -23.6560 C   0  0  0  0  0  0
   -3.1270    2.9070  -22.2390 C   0  0  0  0  0  0
   -4.5790    3.4490  -24.2140 C   0  0  0  0  0  0
   -3.7530    3.5450  -26.3850 C   0  0  0  0  0  0
    5.8090    2.7950  -20.8230 C   0  0  0  0  0  0
    5.7520    3.0100  -23.3710 C   0  0  0  0  0  0
   -4.7880    3.6110  -25.5530 C   0  0  0  0  0  0
    1.9620    3.5040  -23.4980 C   0  0  0  0  0  0
    1.1150    4.5920  -23.1940 C   0  0  0  0  0  0
    2.8720    5.7930  -22.4220 C   0  0  0  0  0  0
    3.3480    3.7060  -23.1330 C   0  0  0  0  0  0
    1.4540    2.3990  -24.2080 C   0  0  0  0  0  0
   -0.6870    3.1790  -24.1450 C   0  0  0  0  0  0
   -0.1990    4.3890  -23.4940 C   0  0  0  0  0  0
   -2.1280    3.1750  -24.5470 C   0  0  0  0  0  0
    3.9820    1.2090  -22.8930 C   0  0  0  0  0  0
    4.8830    0.8340  -21.7260 C   0  0  2  0  0  0
    6.4690    2.4110  -22.1660 C   0  0  2  0  0  0
    4.8120    1.8000  -20.5320 C   0  0  0  0  0  0
   -2.4090    3.3710  -25.9800 C   0  0  0  0  0  0
   -1.7970    2.4960  -21.6080 C   0  0  0  0  0  0
   -0.7780    2.1480  -21.0790 C   0  0  0  0  0  0
   -1.0670    5.4120  -23.1480 F   0  0  0  0  0  0
   -4.0360    2.7090  -20.1450 F   0  0  0  0  0  0
    1.5570    5.7420  -22.6150 N   0  0  0  0  0  0
    3.7900    4.8500  -22.6400 N   0  0  0  0  0  0
    0.1600    2.3000  -24.5590 N   0  0  0  0  0  0
    4.2880    2.6760  -23.3100 N   0  0  0  0  0  0
    6.3030    0.9340  -22.1600 N   0  0  1  0  0  0
   -3.8800    3.5970  -27.7780 O   0  0  0  0  0  0
   -6.2614    3.2651  -21.1991 H   0  0  0  0  0  0
   -6.6663    3.6478  -23.5935 H   0  0  0  0  0  0
    5.3279    3.7794  -20.9198 H   0  0  0  0  0  0
    6.5700    2.7950  -20.0287 H   0  0  0  0  0  0
    6.1828    2.5973  -24.2952 H   0  0  0  0  0  0
    5.8792    4.1026  -23.3680 H   0  0  0  0  0  0
   -5.7892    3.7916  -25.9272 H   0  0  0  0  0  0
    2.1146    1.5878  -24.4921 H   0  0  0  0  0  0
    2.9296    1.1283  -22.5832 H   0  0  0  0  0  0
    4.1819    0.5376  -23.7411 H   0  0  0  0  0  0
    4.6620   -0.1915  -21.3949 H   0  0  0  0  0  0
    7.5345    2.6844  -22.1700 H   0  0  0  0  0  0
    3.8206    2.2760  -20.5078 H   0  0  0  0  0  0
    5.0896    1.2640  -19.6124 H   0  0  0  0  0  0
   -1.6140    3.3840  -26.7168 H   0  0  0  0  0  0
    0.1189    1.8420  -20.6131 H   0  0  0  0  0  0
    6.9351    0.4260  -21.4467 H   0  0  0  0  0  0
   -3.0206    3.5336  -28.1780 H   0  0  0  0  0  0
    4.3900    7.7390  -22.8500 N   0  3  0  0  0  0
    3.3960    7.1260  -21.8970 C   0  0  0  0  0  0
    4.9320    9.0880  -22.4530 C   0  0  0  0  0  0
    3.8780   10.2030  -22.5930 C   0  0  0  0  0  0
    3.9769    7.8040  -23.7672 H   0  0  0  0  0  0
    5.1577    7.1003  -22.9869 H   0  0  0  0  0  0
    2.5537    7.8182  -21.7509 H   0  0  0  0  0  0
    3.8731    6.9720  -20.9179 H   0  0  0  0  0  0
    5.8050    9.3300  -23.0770 H   0  0  0  0  0  0
    5.2862    9.0480  -21.4124 H   0  0  0  0  0  0
    4.3189   11.1648  -22.2921 H   0  0  0  0  0  0
    3.5439   10.2640  -23.6393 H   0  0  0  0  0  0
    3.0172    9.9781  -21.9461 H   0  0  0  0  0  0
  1  2  2  0  0  0
  1  3  1  0  0  0
  1 34  1  0  0  0
  2  6  1  0  0  0
  2 35  1  0  0  0
  3  5  2  0  0  0
  3 27  1  0  0  0
  4  5  1  0  0  0
  4  6  2  0  0  0
  4 18  1  0  0  0
  5 24  1  0  0  0
  6 10  1  0  0  0
  7 10  2  0  0  0
  7 23  1  0  0  0
  7 33  1  0  0  0
  8 21  1  0  0  0
  8 22  1  0  0  0
  8 36  1  0  0  0
  8 37  1  0  0  0
  9 21  1  0  0  0
  9 31  1  0  0  0
  9 38  1  0  0  0
  9 39  1  0  0  0
 10 40  1  0  0  0
 11 12  1  0  0  0
 11 14  2  0  0  0
 11 15  1  0  0  0
 12 17  1  0  0  0
 12 28  2  0  0  0
 13 28  1  0  0  0
 13 29  2  0  0  0
 13 53  1  0  0  0
 14 29  1  0  0  0
 14 31  1  0  0  0
 15 30  2  0  0  0
 15 41  1  0  0  0
 16 17  2  0  0  0
 16 18  1  0  0  0
 16 30  1  0  0  0
 17 26  1  0  0  0
 18 23  2  0  0  0
 19 20  1  0  0  0
 19 31  1  0  0  0
 19 42  1  0  0  0
 19 43  1  0  0  0
 20 22  1  0  0  0
 20 32  1  0  0  0
 20 44  1  0  0  0
 21 32  1  0  0  0
 21 45  1  0  0  0
 22 46  1  0  0  0
 22 47  1  0  0  0
 23 48  1  0  0  0
 24 25  3  0  0  0
 25 49  1  0  0  0
 32 50  1  0  0  0
 33 51  1  0  0  0
 52 53  1  0  0  0
 52 54  1  0  0  0
 52 56  1  0  0  0
 52 57  1  0  0  0
 53 58  1  0  0  0
 53 59  1  0  0  0
 54 55  1  0  0  0
 54 60  1  0  0  0
 54 61  1  0  0  0
 55 62  1  0  0  0
 55 63  1  0  0  0
 55 64  1  0  0  0
M  CHG  1  52   1
M  END
> <s_m_entry_id>
574

> <s_m_entry_name>
000000574.1

> <s_m_Source_Path>
/Users/zaksoul/Documents/2

> <s_m_Source_File>
000000574.mol2

> <i_m_Source_File_Index>
1

$$$$
No_0_598
                    3D
 Schrodinger Suite 2022-4.
 61 66  0  0  1  0            999 V2000
   -5.3230    3.4840  -22.1860 C   0  0  0  0  0  0
   -5.5440    3.6400  -23.5340 C   0  0  0  0  0  0
   -4.0940    3.2600  -21.7960 C   0  0  0  0  0  0
   -3.1280    3.3540  -23.9310 C   0  0  0  0  0  0
   -3.0140    3.1430  -22.5010 C   0  0  0  0  0  0
   -4.4600    3.5830  -24.5050 C   0  0  0  0  0  0
   -3.6270    3.5700  -26.6750 C   0  0  0  0  0  0
    5.9180    3.1140  -21.0540 C   0  0  0  0  0  0
    5.8680    3.1990  -23.6090 C   0  0  0  0  0  0
   -4.6660    3.6780  -25.8510 C   0  0  0  0  0  0
    2.0780    3.6820  -23.7730 C   0  0  0  0  0  0
    1.2290    4.7830  -23.5270 C   0  0  0  0  0  0
    2.9830    6.0230  -22.8110 C   0  0  0  0  0  0
    3.4630    3.9030  -23.4150 C   0  0  0  0  0  0
    1.5740    2.5420  -24.4280 C   0  0  0  0  0  0
   -0.5690    3.3220  -24.4110 C   0  0  0  0  0  0
   -0.0830    4.5630  -23.8210 C   0  0  0  0  0  0
   -2.0080    3.2960  -24.8160 C   0  0  0  0  0  0
    4.0980    1.4230  -23.0460 C   0  0  0  0  0  0
    4.9960    1.1080  -21.8600 C   0  0  2  0  0  0
    6.5820    2.6630  -22.3740 C   0  0  2  0  0  0
    4.9200    2.1330  -20.7170 C   0  0  0  0  0  0
   -2.2850    3.4190  -26.2580 C   0  0  0  0  0  0
   -1.6860    2.7660  -21.8460 C   0  0  0  0  0  0
   -0.6680    2.4460  -21.2970 C   0  0  0  0  0  0
   -0.9540    5.6010  -23.5290 F   0  0  0  0  0  0
   -3.9290    3.0500  -20.4030 F   0  0  0  0  0  0
    1.6680    5.9610  -23.0050 N   0  0  0  0  0  0
    3.9020    5.0710  -22.9780 N   0  0  0  0  0  0
    0.2810    2.4240  -24.7770 N   0  0  0  0  0  0
    4.4040    2.8680  -23.5360 N   0  0  0  0  0  0
    6.4180    1.1880  -22.2940 N   0  0  1  0  0  0
   -3.7510    3.5520  -28.0700 O   0  0  0  0  0  0
   -6.1515    3.5493  -21.4900 H   0  0  0  0  0  0
   -6.5492    3.8105  -23.9022 H   0  0  0  0  0  0
    5.4354    4.0913  -21.2024 H   0  0  0  0  0  0
    6.6759    3.1534  -20.2577 H   0  0  0  0  0  0
    6.3027    2.7411  -24.5097 H   0  0  0  0  0  0
    5.9952    4.2904  -23.6615 H   0  0  0  0  0  0
   -5.6661    3.8376  -26.2376 H   0  0  0  0  0  0
    2.2356    1.7178  -24.6689 H   0  0  0  0  0  0
    3.0443    1.3564  -22.7372 H   0  0  0  0  0  0
    4.3008    0.7106  -23.8593 H   0  0  0  0  0  0
    4.7751    0.1005  -21.4778 H   0  0  0  0  0  0
    7.6471    2.9376  -22.3881 H   0  0  0  0  0  0
    3.9280    2.6083  -20.7190 H   0  0  0  0  0  0
    5.1954    1.6447  -19.7706 H   0  0  0  0  0  0
   -1.4882    3.3959  -26.9926 H   0  0  0  0  0  0
    0.2274    2.1649  -20.8128 H   0  0  0  0  0  0
    7.0478    0.7165  -21.5541 H   0  0  0  0  0  0
   -2.8903    3.4699  -28.4637 H   0  0  0  0  0  0
    3.4290    7.4810  -20.8520 N   0  3  0  0  0  0
    3.5030    7.3810  -22.3530 C   0  0  0  0  0  0
    4.1540    8.6530  -20.2530 C   0  0  0  0  0  0
    3.7788    6.6286  -20.4433 H   0  0  0  0  0  0
    2.4624    7.5060  -20.5671 H   0  0  0  0  0  0
    4.5473    7.5019  -22.6768 H   0  0  0  0  0  0
    2.8936    8.1785  -22.8033 H   0  0  0  0  0  0
    4.0400    8.6350  -19.1591 H   0  0  0  0  0  0
    5.2220    8.5950  -20.5100 H   0  0  0  0  0  0
    3.7311    9.5877  -20.6499 H   0  0  0  0  0  0
  1  2  2  0  0  0
  1  3  1  0  0  0
  1 34  1  0  0  0
  2  6  1  0  0  0
  2 35  1  0  0  0
  3  5  2  0  0  0
  3 27  1  0  0  0
  4  5  1  0  0  0
  4  6  2  0  0  0
  4 18  1  0  0  0
  5 24  1  0  0  0
  6 10  1  0  0  0
  7 10  2  0  0  0
  7 23  1  0  0  0
  7 33  1  0  0  0
  8 21  1  0  0  0
  8 22  1  0  0  0
  8 36  1  0  0  0
  8 37  1  0  0  0
  9 21  1  0  0  0
  9 31  1  0  0  0
  9 38  1  0  0  0
  9 39  1  0  0  0
 10 40  1  0  0  0
 11 12  1  0  0  0
 11 14  2  0  0  0
 11 15  1  0  0  0
 12 17  1  0  0  0
 12 28  2  0  0  0
 13 28  1  0  0  0
 13 29  2  0  0  0
 13 53  1  0  0  0
 14 29  1  0  0  0
 14 31  1  0  0  0
 15 30  2  0  0  0
 15 41  1  0  0  0
 16 17  2  0  0  0
 16 18  1  0  0  0
 16 30  1  0  0  0
 17 26  1  0  0  0
 18 23  2  0  0  0
 19 20  1  0  0  0
 19 31  1  0  0  0
 19 42  1  0  0  0
 19 43  1  0  0  0
 20 22  1  0  0  0
 20 32  1  0  0  0
 20 44  1  0  0  0
 21 32  1  0  0  0
 21 45  1  0  0  0
 22 46  1  0  0  0
 22 47  1  0  0  0
 23 48  1  0  0  0
 24 25  3  0  0  0
 25 49  1  0  0  0
 32 50  1  0  0  0
 33 51  1  0  0  0
 52 53  1  0  0  0
 52 54  1  0  0  0
 52 55  1  0  0  0
 52 56  1  0  0  0
 53 57  1  0  0  0
 53 58  1  0  0  0
 54 59  1  0  0  0
 54 60  1  0  0  0
 54 61  1  0  0  0
M  CHG  1  52   1
M  END
> <s_m_entry_id>
575

> <s_m_entry_name>
000000575.1

> <s_m_Source_Path>
/Users/zaksoul/Documents/2

> <s_m_Source_File>
000000575.mol2

> <i_m_Source_File_Index>
1

$$$$
No_0_599
                    3D
 Schrodinger Suite 2022-4.
 61 66  0  0  1  0            999 V2000
   -5.3650    3.4500  -22.0420 C   0  0  0  0  0  0
   -5.6080    3.6670  -23.3780 C   0  0  0  0  0  0
   -4.1300    3.2050  -21.6830 C   0  0  0  0  0  0
   -3.1990    3.3940  -23.8270 C   0  0  0  0  0  0
   -3.0630    3.1180  -22.4100 C   0  0  0  0  0  0
   -4.5400    3.6510  -24.3680 C   0  0  0  0  0  0
   -3.7430    3.7340  -26.5500 C   0  0  0  0  0  0
    5.8920    3.0000  -21.1140 C   0  0  0  0  0  0
    5.8010    3.2000  -23.6610 C   0  0  0  0  0  0
   -4.7670    3.8070  -25.7050 C   0  0  0  0  0  0
    2.0100    3.7000  -23.7400 C   0  0  0  0  0  0
    1.1690    4.7910  -23.4310 C   0  0  0  0  0  0
    2.9380    5.9930  -22.6890 C   0  0  0  0  0  0
    3.4020    3.9020  -23.3950 C   0  0  0  0  0  0
    1.4910    2.5920  -24.4380 C   0  0  0  0  0  0
   -0.6480    3.3760  -24.3500 C   0  0  0  0  0  0
   -0.1490    4.5880  -23.7120 C   0  0  0  0  0  0
   -2.0940    3.3720  -24.7320 C   0  0  0  0  0  0
    4.0340    1.4050  -23.1500 C   0  0  0  0  0  0
    4.9500    1.0350  -21.9940 C   0  0  2  0  0  0
    6.5330    2.6070  -22.4630 C   0  0  2  0  0  0
    4.8960    2.0080  -20.8040 C   0  0  0  0  0  0
   -2.3940    3.5610  -26.1620 C   0  0  0  0  0  0
   -1.7250    2.7080  -21.7950 C   0  0  0  0  0  0
   -0.7000    2.3610  -21.2770 C   0  0  0  0  0  0
   -1.0110    5.6140  -23.3600 F   0  0  0  0  0  0
   -3.9430    2.9330  -20.3030 F   0  0  0  0  0  0
    1.6200    5.9430  -22.8640 N   0  0  0  0  0  0
    3.8510    5.0470  -22.9140 N   0  0  0  0  0  0
    0.1920    2.4930  -24.7700 N   0  0  0  0  0  0
    4.3370    2.8700  -23.5790 N   0  0  0  0  0  0
    6.3650    1.1310  -22.4470 N   0  0  1  0  0  0
   -3.8890    3.7800  -27.9420 O   0  0  0  0  0  0
   -6.1820    3.4861  -21.3304 H   0  0  0  0  0  0
   -6.6186    3.8567  -23.7212 H   0  0  0  0  0  0
    5.4104    3.9843  -21.2099 H   0  0  0  0  0  0
    6.6627    3.0020  -20.3292 H   0  0  0  0  0  0
    6.2186    2.7824  -24.5890 H   0  0  0  0  0  0
    5.9301    4.2924  -23.6660 H   0  0  0  0  0  0
   -5.7729    3.9877  -26.0664 H   0  0  0  0  0  0
    2.1464    1.7780  -24.7261 H   0  0  0  0  0  0
    2.9856    1.3273  -22.8261 H   0  0  0  0  0  0
    4.2219    0.7293  -23.9974 H   0  0  0  0  0  0
    4.7320    0.0118  -21.6540 H   0  0  0  0  0  0
    7.5986    2.8794  -22.4822 H   0  0  0  0  0  0
    3.9053    2.4847  -20.7687 H   0  0  0  0  0  0
    5.1856    1.4762  -19.8857 H   0  0  0  0  0  0
   -1.6097    3.5690  -26.9102 H   0  0  0  0  0  0
    0.2029    2.0560  -20.8221 H   0  0  0  0  0  0
    7.0050    0.6246  -21.7397 H   0  0  0  0  0  0
   -3.0354    3.7127  -28.3535 H   0  0  0  0  0  0
    4.7100    7.1050  -21.3530 N   0  3  0  0  0  0
    3.4710    7.3280  -22.1780 C   0  0  0  0  0  0
    5.4840    8.3480  -21.0140 C   0  0  0  0  0  0
    5.3159    6.4551  -21.8289 H   0  0  0  0  0  0
    4.4620    6.6250  -20.5020 H   0  0  0  0  0  0
    3.7110    7.9770  -23.0331 H   0  0  0  0  0  0
    2.7029    7.8171  -21.5609 H   0  0  0  0  0  0
    6.3659    8.0790  -20.4141 H   0  0  0  0  0  0
    5.8099    8.8409  -21.9418 H   0  0  0  0  0  0
    4.8436    9.0335  -20.4396 H   0  0  0  0  0  0
  1  2  2  0  0  0
  1  3  1  0  0  0
  1 34  1  0  0  0
  2  6  1  0  0  0
  2 35  1  0  0  0
  3  5  2  0  0  0
  3 27  1  0  0  0
  4  5  1  0  0  0
  4  6  2  0  0  0
  4 18  1  0  0  0
  5 24  1  0  0  0
  6 10  1  0  0  0
  7 10  2  0  0  0
  7 23  1  0  0  0
  7 33  1  0  0  0
  8 21  1  0  0  0
  8 22  1  0  0  0
  8 36  1  0  0  0
  8 37  1  0  0  0
  9 21  1  0  0  0
  9 31  1  0  0  0
  9 38  1  0  0  0
  9 39  1  0  0  0
 10 40  1  0  0  0
 11 12  1  0  0  0
 11 14  2  0  0  0
 11 15  1  0  0  0
 12 17  1  0  0  0
 12 28  2  0  0  0
 13 28  1  0  0  0
 13 29  2  0  0  0
 13 53  1  0  0  0
 14 29  1  0  0  0
 14 31  1  0  0  0
 15 30  2  0  0  0
 15 41  1  0  0  0
 16 17  2  0  0  0
 16 18  1  0  0  0
 16 30  1  0  0  0
 17 26  1  0  0  0
 18 23  2  0  0  0
 19 20  1  0  0  0
 19 31  1  0  0  0
 19 42  1  0  0  0
 19 43  1  0  0  0
 20 22  1  0  0  0
 20 32  1  0  0  0
 20 44  1  0  0  0
 21 32  1  0  0  0
 21 45  1  0  0  0
 22 46  1  0  0  0
 22 47  1  0  0  0
 23 48  1  0  0  0
 24 25  3  0  0  0
 25 49  1  0  0  0
 32 50  1  0  0  0
 33 51  1  0  0  0
 52 53  1  0  0  0
 52 54  1  0  0  0
 52 55  1  0  0  0
 52 56  1  0  0  0
 53 57  1  0  0  0
 53 58  1  0  0  0
 54 59  1  0  0  0
 54 60  1  0  0  0
 54 61  1  0  0  0
M  CHG  1  52   1
M  END
> <s_m_entry_id>
576

> <s_m_entry_name>
000000576.1

> <s_m_Source_Path>
/Users/zaksoul/Documents/2

> <s_m_Source_File>
000000576.mol2

> <i_m_Source_File_Index>
1

$$$$
No_0_600
                    3D
 Schrodinger Suite 2022-4.
 61 66  0  0  1  0            999 V2000
   -5.5000    3.2110  -22.1050 C   0  0  0  0  0  0
   -5.7340    3.4160  -23.4440 C   0  0  0  0  0  0
   -4.2700    2.9560  -21.7360 C   0  0  0  0  0  0
   -3.3260    3.1130  -23.8770 C   0  0  0  0  0  0
   -3.2000    2.8500  -22.4560 C   0  0  0  0  0  0
   -4.6600    3.3790  -24.4280 C   0  0  0  0  0  0
   -3.8510    3.4300  -26.6070 C   0  0  0  0  0  0
    5.7460    2.6510  -21.1090 C   0  0  0  0  0  0
    5.6710    2.8260  -23.6590 C   0  0  0  0  0  0
   -4.8780    3.5230  -25.7680 C   0  0  0  0  0  0
    1.8860    3.3650  -23.7640 C   0  0  0  0  0  0
    1.0550    4.4680  -23.4710 C   0  0  0  0  0  0
    2.8320    5.6590  -22.7310 C   0  0  0  0  0  0
    3.2780    3.5550  -23.4130 C   0  0  0  0  0  0
    1.3590    2.2560  -24.4530 C   0  0  0  0  0  0
   -0.7720    3.0620  -24.3850 C   0  0  0  0  0  0
   -0.2640    4.2760  -23.7580 C   0  0  0  0  0  0
   -2.2160    3.0700  -24.7760 C   0  0  0  0  0  0
    3.8820    1.0560  -23.1380 C   0  0  0  0  0  0
    4.7880    0.6870  -21.9730 C   0  0  2  0  0  0
    6.3900    2.2380  -22.4500 C   0  0  2  0  0  0
    4.7380    1.6730  -20.7940 C   0  0  0  0  0  0
   -2.5060    3.2470  -26.2090 C   0  0  0  0  0  0
   -1.8700    2.4320  -21.8300 C   0  0  0  0  0  0
   -0.8510    2.0810  -21.3030 C   0  0  0  0  0  0
   -1.1170    5.3150  -23.4210 F   0  0  0  0  0  0
   -4.0940    2.6970  -20.3530 F   0  0  0  0  0  0
    1.5150    5.6210  -22.9130 N   0  0  0  0  0  0
    3.7360    4.7020  -22.9410 N   0  0  0  0  0  0
    0.0610    2.1670  -24.7920 N   0  0  0  0  0  0
    4.2030    2.5120  -23.5810 N   0  0  0  0  0  0
    6.2060    0.7640  -22.4200 N   0  0  1  0  0  0
   -3.9890    3.4630  -28.0000 O   0  0  0  0  0  0
   -6.3197    3.2632  -21.3976 H   0  0  0  0  0  0
   -6.7403    3.6129  -23.7955 H   0  0  0  0  0  0
    5.2759    3.6395  -21.2179 H   0  0  0  0  0  0
    6.5121    2.6540  -20.3197 H   0  0  0  0  0  0
    6.0888    2.3941  -24.5804 H   0  0  0  0  0  0
    5.8113    3.9169  -23.6741 H   0  0  0  0  0  0
   -5.8800    3.7096  -26.1371 H   0  0  0  0  0  0
    2.0072    1.4322  -24.7290 H   0  0  0  0  0  0
    2.8309    0.9924  -22.8199 H   0  0  0  0  0  0
    4.0676    0.3693  -23.9770 H   0  0  0  0  0  0
    4.5579   -0.3304  -21.6238 H   0  0  0  0  0  0
    7.4586    2.4983  -22.4672 H   0  0  0  0  0  0
    3.7528    2.1616  -20.7688 H   0  0  0  0  0  0
    5.0166    1.1481  -19.8683 H   0  0  0  0  0  0
   -1.7173    3.2390  -26.9526 H   0  0  0  0  0  0
    0.0457    1.7711  -20.8392 H   0  0  0  0  0  0
    6.8367    0.2584  -21.7038 H   0  0  0  0  0  0
   -3.1337    3.3819  -28.4054 H   0  0  0  0  0  0
    4.8600    6.8880  -21.9970 N   0  3  0  0  0  0
    3.3760    6.9940  -22.2320 C   0  0  0  0  0  0
    5.5640    8.1950  -21.7620 C   0  0  0  0  0  0
    5.2891    6.4139  -22.7762 H   0  0  0  0  0  0
    5.0309    6.2723  -21.2174 H   0  0  0  0  0  0
    3.1788    7.7736  -22.9826 H   0  0  0  0  0  0
    2.8738    7.2651  -21.2916 H   0  0  0  0  0  0
    6.6363    8.0099  -21.6010 H   0  0  0  0  0  0
    5.4309    8.8463  -22.6384 H   0  0  0  0  0  0
    5.1400    8.6850  -20.8731 H   0  0  0  0  0  0
  1  2  2  0  0  0
  1  3  1  0  0  0
  1 34  1  0  0  0
  2  6  1  0  0  0
  2 35  1  0  0  0
  3  5  2  0  0  0
  3 27  1  0  0  0
  4  5  1  0  0  0
  4  6  2  0  0  0
  4 18  1  0  0  0
  5 24  1  0  0  0
  6 10  1  0  0  0
  7 10  2  0  0  0
  7 23  1  0  0  0
  7 33  1  0  0  0
  8 21  1  0  0  0
  8 22  1  0  0  0
  8 36  1  0  0  0
  8 37  1  0  0  0
  9 21  1  0  0  0
  9 31  1  0  0  0
  9 38  1  0  0  0
  9 39  1  0  0  0
 10 40  1  0  0  0
 11 12  1  0  0  0
 11 14  2  0  0  0
 11 15  1  0  0  0
 12 17  1  0  0  0
 12 28  2  0  0  0
 13 28  1  0  0  0
 13 29  2  0  0  0
 13 53  1  0  0  0
 14 29  1  0  0  0
 14 31  1  0  0  0
 15 30  2  0  0  0
 15 41  1  0  0  0
 16 17  2  0  0  0
 16 18  1  0  0  0
 16 30  1  0  0  0
 17 26  1  0  0  0
 18 23  2  0  0  0
 19 20  1  0  0  0
 19 31  1  0  0  0
 19 42  1  0  0  0
 19 43  1  0  0  0
 20 22  1  0  0  0
 20 32  1  0  0  0
 20 44  1  0  0  0
 21 32  1  0  0  0
 21 45  1  0  0  0
 22 46  1  0  0  0
 22 47  1  0  0  0
 23 48  1  0  0  0
 24 25  3  0  0  0
 25 49  1  0  0  0
 32 50  1  0  0  0
 33 51  1  0  0  0
 52 53  1  0  0  0
 52 54  1  0  0  0
 52 55  1  0  0  0
 52 56  1  0  0  0
 53 57  1  0  0  0
 53 58  1  0  0  0
 54 59  1  0  0  0
 54 60  1  0  0  0
 54 61  1  0  0  0
M  CHG  1  52   1
M  END
> <s_m_entry_id>
577

> <s_m_entry_name>
000000577.1

> <s_m_Source_Path>
/Users/zaksoul/Documents/2

> <s_m_Source_File>
000000577.mol2

> <i_m_Source_File_Index>
1

$$$$
No_0_601
                    3D
 Schrodinger Suite 2022-4.
 61 66  0  0  1  0            999 V2000
   -5.1550    3.6290  -21.7750 C   0  0  0  0  0  0
   -5.4190    3.7930  -23.1150 C   0  0  0  0  0  0
   -3.9130    3.4130  -21.4250 C   0  0  0  0  0  0
   -3.0130    3.5340  -23.5880 C   0  0  0  0  0  0
   -2.8540    3.3130  -22.1630 C   0  0  0  0  0  0
   -4.3650    3.7540  -24.1190 C   0  0  0  0  0  0
   -3.5990    3.7670  -26.3130 C   0  0  0  0  0  0
    6.1180    3.3620  -20.9900 C   0  0  0  0  0  0
    5.9890    3.4660  -23.5410 C   0  0  0  0  0  0
   -4.6120    3.8570  -25.4570 C   0  0  0  0  0  0
    2.1920    3.9130  -23.5850 C   0  0  0  0  0  0
    1.3400    5.0030  -23.3050 C   0  0  0  0  0  0
    3.1020    6.2550  -22.6320 C   0  0  0  0  0  0
    3.5850    4.1450  -23.2670 C   0  0  0  0  0  0
    1.6790    2.7730  -24.2340 C   0  0  0  0  0  0
   -0.4700    3.5310  -24.1450 C   0  0  0  0  0  0
    0.0210    4.7730  -23.5600 C   0  0  0  0  0  0
   -1.9210    3.4940  -24.5070 C   0  0  0  0  0  0
    4.2550    1.6690  -22.9390 C   0  0  0  0  0  0
    5.1920    1.3530  -21.7830 C   0  0  2  0  0  0
    6.7460    2.9280  -22.3320 C   0  0  2  0  0  0
    5.1410    2.3690  -20.6300 C   0  0  0  0  0  0
   -2.2420    3.6260  -25.9380 C   0  0  0  0  0  0
   -1.5020    2.9440  -21.5520 C   0  0  0  0  0  0
   -0.4660    2.6300  -21.0370 C   0  0  0  0  0  0
   -0.8500    5.8000  -23.2330 F   0  0  0  0  0  0
   -3.7030    3.1950  -20.0390 F   0  0  0  0  0  0
    1.7830    6.1820  -22.7860 N   0  0  0  0  0  0
    4.0250    5.3140  -22.8350 N   0  0  0  0  0  0
    0.3770    2.6450  -24.5450 N   0  0  0  0  0  0
    4.5310    3.1200  -23.4260 N   0  0  0  0  0  0
    6.5990    1.4510  -22.2590 N   0  0  1  0  0  0
   -3.7640    3.7590  -27.7040 O   0  0  0  0  0  0
   -5.9626    3.6802  -21.0537 H   0  0  0  0  0  0
   -6.4368    3.9566  -23.4502 H   0  0  0  0  0  0
    5.6212    4.3354  -21.1152 H   0  0  0  0  0  0
    6.8998    3.4034  -20.2173 H   0  0  0  0  0  0
    6.4004    3.0203  -24.4586 H   0  0  0  0  0  0
    6.1039    4.5590  -23.5884 H   0  0  0  0  0  0
   -5.6252    4.0106  -25.8105 H   0  0  0  0  0  0
    2.3415    1.9579  -24.5020 H   0  0  0  0  0  0
    3.2123    1.5893  -22.5978 H   0  0  0  0  0  0
    4.4397    0.9646  -23.7635 H   0  0  0  0  0  0
    4.9923    0.3403  -21.4027 H   0  0  0  0  0  0
    7.8073    3.2135  -22.3774 H   0  0  0  0  0  0
    4.1442    2.8331  -20.5977 H   0  0  0  0  0  0
    5.4498    1.8756  -19.6966 H   0  0  0  0  0  0
   -1.4680    3.6160  -26.6969 H   0  0  0  0  0  0
    0.4467    2.3541  -20.5831 H   0  0  0  0  0  0
    7.2562    0.9801  -21.5430 H   0  0  0  0  0  0
   -2.9147    3.6877  -28.1237 H   0  0  0  0  0  0
    5.0630    7.7770  -22.5900 N   0  3  0  0  0  0
    3.6230    7.6150  -22.1790 C   0  0  0  0  0  0
    5.6170    9.1660  -22.4430 C   0  0  0  0  0  0
    5.1740    7.4719  -23.5443 H   0  0  0  0  0  0
    5.6336    7.1334  -22.0644 H   0  0  0  0  0  0
    3.0197    8.4114  -22.6392 H   0  0  0  0  0  0
    3.5440    7.6920  -21.0846 H   0  0  0  0  0  0
    6.6681    9.1780  -22.7670 H   0  0  0  0  0  0
    5.0340    9.8611  -23.0651 H   0  0  0  0  0  0
    5.5550    9.4771  -21.3897 H   0  0  0  0  0  0
  1  2  2  0  0  0
  1  3  1  0  0  0
  1 34  1  0  0  0
  2  6  1  0  0  0
  2 35  1  0  0  0
  3  5  2  0  0  0
  3 27  1  0  0  0
  4  5  1  0  0  0
  4  6  2  0  0  0
  4 18  1  0  0  0
  5 24  1  0  0  0
  6 10  1  0  0  0
  7 10  2  0  0  0
  7 23  1  0  0  0
  7 33  1  0  0  0
  8 21  1  0  0  0
  8 22  1  0  0  0
  8 36  1  0  0  0
  8 37  1  0  0  0
  9 21  1  0  0  0
  9 31  1  0  0  0
  9 38  1  0  0  0
  9 39  1  0  0  0
 10 40  1  0  0  0
 11 12  1  0  0  0
 11 14  2  0  0  0
 11 15  1  0  0  0
 12 17  1  0  0  0
 12 28  2  0  0  0
 13 28  1  0  0  0
 13 29  2  0  0  0
 13 53  1  0  0  0
 14 29  1  0  0  0
 14 31  1  0  0  0
 15 30  2  0  0  0
 15 41  1  0  0  0
 16 17  2  0  0  0
 16 18  1  0  0  0
 16 30  1  0  0  0
 17 26  1  0  0  0
 18 23  2  0  0  0
 19 20  1  0  0  0
 19 31  1  0  0  0
 19 42  1  0  0  0
 19 43  1  0  0  0
 20 22  1  0  0  0
 20 32  1  0  0  0
 20 44  1  0  0  0
 21 32  1  0  0  0
 21 45  1  0  0  0
 22 46  1  0  0  0
 22 47  1  0  0  0
 23 48  1  0  0  0
 24 25  3  0  0  0
 25 49  1  0  0  0
 32 50  1  0  0  0
 33 51  1  0  0  0
 52 53  1  0  0  0
 52 54  1  0  0  0
 52 55  1  0  0  0
 52 56  1  0  0  0
 53 57  1  0  0  0
 53 58  1  0  0  0
 54 59  1  0  0  0
 54 60  1  0  0  0
 54 61  1  0  0  0
M  CHG  1  52   1
M  END
> <s_m_entry_id>
578

> <s_m_entry_name>
000000578.1

> <s_m_Source_Path>
/Users/zaksoul/Documents/2

> <s_m_Source_File>
000000578.mol2

> <i_m_Source_File_Index>
1

$$$$
No_0_602
                    3D
 Schrodinger Suite 2022-4.
 61 66  0  0  1  0            999 V2000
   -5.3630    3.1810  -21.6660 C   0  0  0  0  0  0
   -5.6440    3.3980  -22.9950 C   0  0  0  0  0  0
   -4.1160    2.9560  -21.3400 C   0  0  0  0  0  0
   -3.2430    3.1700  -23.5060 C   0  0  0  0  0  0
   -3.0660    2.8910  -22.0940 C   0  0  0  0  0  0
   -4.6010    3.4050  -24.0120 C   0  0  0  0  0  0
   -3.8620    3.5110  -26.2130 C   0  0  0  0  0  0
    5.9200    2.9280  -21.0260 C   0  0  0  0  0  0
    5.7600    3.1370  -23.5700 C   0  0  0  0  0  0
   -4.8650    3.5620  -25.3420 C   0  0  0  0  0  0
    1.9600    3.5690  -23.5500 C   0  0  0  0  0  0
    1.1080    4.6430  -23.2150 C   0  0  0  0  0  0
    2.8740    5.8740  -22.5120 C   0  0  0  0  0  0
    3.3560    3.7940  -23.2400 C   0  0  0  0  0  0
    1.4440    2.4550  -24.2390 C   0  0  0  0  0  0
   -0.7060    3.2000  -24.0940 C   0  0  0  0  0  0
   -0.2130    4.4180  -23.4640 C   0  0  0  0  0  0
   -2.1610    3.1710  -24.4390 C   0  0  0  0  0  0
    4.0390    1.3080  -23.0220 C   0  0  0  0  0  0
    4.9910    0.9490  -21.8910 C   0  0  2  0  0  0
    6.5330    2.5520  -22.3930 C   0  0  2  0  0  0
    4.9500    1.9170  -20.6960 C   0  0  0  0  0  0
   -2.5010    3.3600  -25.8600 C   0  0  0  0  0  0
   -1.7050    2.5020  -21.5150 C   0  0  0  0  0  0
   -0.6610    2.1720  -21.0250 C   0  0  0  0  0  0
   -1.0840    5.4270  -23.0850 F   0  0  0  0  0  0
   -3.8890    2.6810  -19.9660 F   0  0  0  0  0  0
    1.5530    5.8010  -22.6540 N   0  0  0  0  0  0
    3.7980    4.9460  -22.7650 N   0  0  0  0  0  0
    0.1390    2.3340  -24.5390 N   0  0  0  0  0  0
    4.3050    2.7800  -23.4520 N   0  0  0  0  0  0
    6.3920    1.0730  -22.3790 N   0  0  1  0  0  0
   -4.0440    3.5600  -27.6010 O   0  0  0  0  0  0
   -6.1618    3.1991  -20.9334 H   0  0  0  0  0  0
   -6.6662    3.5717  -23.3113 H   0  0  0  0  0  0
    5.4185    3.9038  -21.1057 H   0  0  0  0  0  0
    6.7108    2.9401  -20.2615 H   0  0  0  0  0  0
    6.1617    2.7302  -24.5097 H   0  0  0  0  0  0
    5.8701    4.2315  -23.5730 H   0  0  0  0  0  0
   -5.8828    3.7256  -25.6772 H   0  0  0  0  0  0
    2.1056    1.6539  -24.5482 H   0  0  0  0  0  0
    3.0009    1.2100  -22.6716 H   0  0  0  0  0  0
    4.2166    0.6389  -23.8768 H   0  0  0  0  0  0
    4.8003   -0.0793  -21.5499 H   0  0  0  0  0  0
    7.5929    2.8427  -22.4384 H   0  0  0  0  0  0
    3.9525    2.3764  -20.6324 H   0  0  0  0  0  0
    5.2720    1.3870  -19.7875 H   0  0  0  0  0  0
   -1.7362    3.3851  -26.6278 H   0  0  0  0  0  0
    0.2581    1.8810  -20.5940 H   0  0  0  0  0  0
    7.0592    0.5758  -21.6904 H   0  0  0  0  0  0
   -3.1997    3.5095  -28.0335 H   0  0  0  0  0  0
    4.5920    7.6390  -22.8210 N   0  3  0  0  0  0
    3.3960    7.2160  -22.0100 C   0  0  0  0  0  0
    5.0380    9.0580  -22.6100 C   0  0  0  0  0  0
    4.4001    7.4930  -23.7997 H   0  0  0  0  0  0
    5.3612    7.0159  -22.6310 H   0  0  0  0  0  0
    2.6041    7.9739  -22.1020 H   0  0  0  0  0  0
    3.6839    7.1240  -20.9523 H   0  0  0  0  0  0
    5.9122    9.2670  -23.2441 H   0  0  0  0  0  0
    4.2199    9.7431  -22.8770 H   0  0  0  0  0  0
    5.3078    9.2039  -21.5536 H   0  0  0  0  0  0
  1  2  2  0  0  0
  1  3  1  0  0  0
  1 34  1  0  0  0
  2  6  1  0  0  0
  2 35  1  0  0  0
  3  5  2  0  0  0
  3 27  1  0  0  0
  4  5  1  0  0  0
  4  6  2  0  0  0
  4 18  1  0  0  0
  5 24  1  0  0  0
  6 10  1  0  0  0
  7 10  2  0  0  0
  7 23  1  0  0  0
  7 33  1  0  0  0
  8 21  1  0  0  0
  8 22  1  0  0  0
  8 36  1  0  0  0
  8 37  1  0  0  0
  9 21  1  0  0  0
  9 31  1  0  0  0
  9 38  1  0  0  0
  9 39  1  0  0  0
 10 40  1  0  0  0
 11 12  1  0  0  0
 11 14  2  0  0  0
 11 15  1  0  0  0
 12 17  1  0  0  0
 12 28  2  0  0  0
 13 28  1  0  0  0
 13 29  2  0  0  0
 13 53  1  0  0  0
 14 29  1  0  0  0
 14 31  1  0  0  0
 15 30  2  0  0  0
 15 41  1  0  0  0
 16 17  2  0  0  0
 16 18  1  0  0  0
 16 30  1  0  0  0
 17 26  1  0  0  0
 18 23  2  0  0  0
 19 20  1  0  0  0
 19 31  1  0  0  0
 19 42  1  0  0  0
 19 43  1  0  0  0
 20 22  1  0  0  0
 20 32  1  0  0  0
 20 44  1  0  0  0
 21 32  1  0  0  0
 21 45  1  0  0  0
 22 46  1  0  0  0
 22 47  1  0  0  0
 23 48  1  0  0  0
 24 25  3  0  0  0
 25 49  1  0  0  0
 32 50  1  0  0  0
 33 51  1  0  0  0
 52 53  1  0  0  0
 52 54  1  0  0  0
 52 55  1  0  0  0
 52 56  1  0  0  0
 53 57  1  0  0  0
 53 58  1  0  0  0
 54 59  1  0  0  0
 54 60  1  0  0  0
 54 61  1  0  0  0
M  CHG  1  52   1
M  END
> <s_m_entry_id>
579

> <s_m_entry_name>
000000579.1

> <s_m_Source_Path>
/Users/zaksoul/Documents/2

> <s_m_Source_File>
000000579.mol2

> <i_m_Source_File_Index>
1

$$$$
No_0_603
                    3D
 Schrodinger Suite 2022-4.
 61 66  0  0  1  0            999 V2000
   -5.0570    3.4450  -21.9860 C   0  0  0  0  0  0
   -5.3330    3.6860  -23.3110 C   0  0  0  0  0  0
   -3.8100    3.2210  -21.6580 C   0  0  0  0  0  0
   -2.9290    3.4790  -23.8160 C   0  0  0  0  0  0
   -2.7560    3.1740  -22.4080 C   0  0  0  0  0  0
   -4.2860    3.7170  -24.3230 C   0  0  0  0  0  0
   -3.5370    3.8670  -26.5190 C   0  0  0  0  0  0
    6.2240    3.2360  -21.2990 C   0  0  0  0  0  0
    6.0750    3.4910  -23.8390 C   0  0  0  0  0  0
   -4.5440    3.8970  -25.6510 C   0  0  0  0  0  0
    2.2730    3.9040  -23.8280 C   0  0  0  0  0  0
    1.4140    4.9680  -23.4780 C   0  0  0  0  0  0
    3.1700    6.1940  -22.7440 C   0  0  0  0  0  0
    3.6670    4.1300  -23.5070 C   0  0  0  0  0  0
    1.7650    2.8000  -24.5400 C   0  0  0  0  0  0
   -0.3890    3.5320  -24.3910 C   0  0  0  0  0  0
    0.0950    4.7410  -23.7360 C   0  0  0  0  0  0
   -1.8420    3.5030  -24.7440 C   0  0  0  0  0  0
    4.3610    1.6440  -23.3320 C   0  0  0  0  0  0
    5.3090    1.2690  -22.2040 C   0  0  2  0  0  0
    6.8450    2.8890  -22.6690 C   0  0  2  0  0  0
    5.2580    2.2140  -20.9910 C   0  0  0  0  0  0
   -2.1770    3.7160  -26.1620 C   0  0  0  0  0  0
   -1.3970    2.7820  -21.8300 C   0  0  0  0  0  0
   -0.3530    2.4480  -21.3420 C   0  0  0  0  0  0
   -0.7820    5.7380  -23.3430 F   0  0  0  0  0  0
   -3.5880    2.9220  -20.2890 F   0  0  0  0  0  0
    1.8510    6.1170  -22.8930 N   0  0  0  0  0  0
    4.1000    5.2750  -23.0090 N   0  0  0  0  0  0
    0.4620    2.6790  -24.8490 N   0  0  0  0  0  0
    4.6210    3.1250  -23.7330 N   0  0  0  0  0  0
    6.7110    1.4080  -22.6830 N   0  0  1  0  0  0
   -3.7130    3.9400  -27.9060 O   0  0  0  0  0  0
   -5.8588    3.4460  -21.2565 H   0  0  0  0  0  0
   -6.3546    3.8596  -23.6291 H   0  0  0  0  0  0
    5.7180    4.2106  -21.3626 H   0  0  0  0  0  0
    7.0108    3.2380  -20.5303 H   0  0  0  0  0  0
    6.4829    3.1033  -24.7841 H   0  0  0  0  0  0
    6.1789    4.5859  -23.8208 H   0  0  0  0  0  0
   -5.5611    4.0615  -25.9880 H   0  0  0  0  0  0
    2.4327    2.0088  -24.8613 H   0  0  0  0  0  0
    3.3216    1.5350  -22.9889 H   0  0  0  0  0  0
    4.5458    0.9918  -24.1983 H   0  0  0  0  0  0
    5.1213    0.2337  -21.8831 H   0  0  0  0  0  0
    7.9036    3.1857  -22.7043 H   0  0  0  0  0  0
    4.2579    2.6671  -20.9244 H   0  0  0  0  0  0
    5.5789    1.6691  -20.0909 H   0  0  0  0  0  0
   -1.4086    3.7591  -26.9254 H   0  0  0  0  0  0
    0.5657    2.1541  -20.9121 H   0  0  0  0  0  0
    7.3782    0.9022  -22.0008 H   0  0  0  0  0  0
   -2.8666    3.9024  -28.3357 H   0  0  0  0  0  0
    3.2980    8.6380  -23.1580 N   0  3  0  0  0  0
    3.6830    7.5290  -22.2150 C   0  0  0  0  0  0
    3.5050   10.0290  -22.6270 C   0  0  0  0  0  0
    2.3335    8.5261  -23.4288 H   0  0  0  0  0  0
    3.8053    8.5319  -24.0225 H   0  0  0  0  0  0
    3.2461    7.7220  -21.2241 H   0  0  0  0  0  0
    4.7784    7.4900  -22.1230 H   0  0  0  0  0  0
    3.1960   10.7619  -23.3869 H   0  0  0  0  0  0
    2.9030   10.1680  -21.7169 H   0  0  0  0  0  0
    4.5690   10.1750  -22.3890 H   0  0  0  0  0  0
  1  2  2  0  0  0
  1  3  1  0  0  0
  1 34  1  0  0  0
  2  6  1  0  0  0
  2 35  1  0  0  0
  3  5  2  0  0  0
  3 27  1  0  0  0
  4  5  1  0  0  0
  4  6  2  0  0  0
  4 18  1  0  0  0
  5 24  1  0  0  0
  6 10  1  0  0  0
  7 10  2  0  0  0
  7 23  1  0  0  0
  7 33  1  0  0  0
  8 21  1  0  0  0
  8 22  1  0  0  0
  8 36  1  0  0  0
  8 37  1  0  0  0
  9 21  1  0  0  0
  9 31  1  0  0  0
  9 38  1  0  0  0
  9 39  1  0  0  0
 10 40  1  0  0  0
 11 12  1  0  0  0
 11 14  2  0  0  0
 11 15  1  0  0  0
 12 17  1  0  0  0
 12 28  2  0  0  0
 13 28  1  0  0  0
 13 29  2  0  0  0
 13 53  1  0  0  0
 14 29  1  0  0  0
 14 31  1  0  0  0
 15 30  2  0  0  0
 15 41  1  0  0  0
 16 17  2  0  0  0
 16 18  1  0  0  0
 16 30  1  0  0  0
 17 26  1  0  0  0
 18 23  2  0  0  0
 19 20  1  0  0  0
 19 31  1  0  0  0
 19 42  1  0  0  0
 19 43  1  0  0  0
 20 22  1  0  0  0
 20 32  1  0  0  0
 20 44  1  0  0  0
 21 32  1  0  0  0
 21 45  1  0  0  0
 22 46  1  0  0  0
 22 47  1  0  0  0
 23 48  1  0  0  0
 24 25  3  0  0  0
 25 49  1  0  0  0
 32 50  1  0  0  0
 33 51  1  0  0  0
 52 53  1  0  0  0
 52 54  1  0  0  0
 52 55  1  0  0  0
 52 56  1  0  0  0
 53 57  1  0  0  0
 53 58  1  0  0  0
 54 59  1  0  0  0
 54 60  1  0  0  0
 54 61  1  0  0  0
M  CHG  1  52   1
M  END
> <s_m_entry_id>
580

> <s_m_entry_name>
000000580.1

> <s_m_Source_Path>
/Users/zaksoul/Documents/2

> <s_m_Source_File>
000000580.mol2

> <i_m_Source_File_Index>
1

$$$$
No_0_604
                    3D
 Schrodinger Suite 2022-4.
 67 73  0  0  1  0            999 V2000
   -5.0990    3.3100  -21.9030 C   0  0  0  0  0  0
   -5.3900    3.4750  -23.2360 C   0  0  0  0  0  0
   -3.8460    3.1230  -21.5750 C   0  0  0  0  0  0
   -2.9880    3.2780  -23.7520 C   0  0  0  0  0  0
   -2.7980    3.0530  -22.3320 C   0  0  0  0  0  0
   -4.3530    3.4680  -24.2580 C   0  0  0  0  0  0
   -3.6250    3.5120  -26.4660 C   0  0  0  0  0  0
    6.1890    3.3140  -21.3130 C   0  0  0  0  0  0
    6.0140    3.4310  -23.8610 C   0  0  0  0  0  0
   -4.6260    3.5730  -25.5920 C   0  0  0  0  0  0
    2.2060    3.7840  -23.8370 C   0  0  0  0  0  0
    1.3330    4.8520  -23.5350 C   0  0  0  0  0  0
    3.0760    6.1430  -22.8850 C   0  0  0  0  0  0
    3.5990    4.0490  -23.5420 C   0  0  0  0  0  0
    1.7100    2.6360  -24.4840 C   0  0  0  0  0  0
   -0.4550    3.3410  -24.3530 C   0  0  0  0  0  0
    0.0160    4.5910  -23.7690 C   0  0  0  0  0  0
   -1.9100    3.2700  -24.6900 C   0  0  0  0  0  0
    4.3340    1.5870  -23.2400 C   0  0  0  0  0  0
    5.2980    1.2880  -22.1020 C   0  0  2  0  0  0
    6.8040    2.9040  -22.6690 C   0  0  2  0  0  0
    5.2430    2.2960  -20.9420 C   0  0  0  0  0  0
   -2.2600    3.4020  -26.1150 C   0  0  0  0  0  0
   -1.4270    2.7130  -21.7470 C   0  0  0  0  0  0
   -0.3740    2.4220  -21.2510 C   0  0  0  0  0  0
   -0.8740    5.5940  -23.4210 F   0  0  0  0  0  0
   -3.6070    2.9010  -20.1940 F   0  0  0  0  0  0
    1.7560    6.0380  -23.0170 N   0  0  0  0  0  0
    4.0170    5.2260  -23.1090 N   0  0  0  0  0  0
    0.4060    2.4780  -24.7730 N   0  0  0  0  0  0
    4.5670    3.0480  -23.7230 N   0  0  0  0  0  0
    6.6940    1.4230  -22.6020 N   0  0  1  0  0  0
   -3.8150    3.5080  -27.8530 O   0  0  0  0  0  0
   -5.8943    3.3371  -21.1669 H   0  0  0  0  0  0
   -6.4170    3.6155  -23.5532 H   0  0  0  0  0  0
    5.6671    4.2760  -21.4230 H   0  0  0  0  0  0
    6.9827    3.3705  -20.5535 H   0  0  0  0  0  0
    6.4196    3.0002  -24.7883 H   0  0  0  0  0  0
    6.1009    4.5267  -23.9034 H   0  0  0  0  0  0
   -5.6485    3.7036  -25.9275 H   0  0  0  0  0  0
    2.3876    1.8390  -24.7681 H   0  0  0  0  0  0
    3.2995    1.4800  -22.8817 H   0  0  0  0  0  0
    4.5228    0.8925  -24.0718 H   0  0  0  0  0  0
    5.1304    0.2685  -21.7245 H   0  0  0  0  0  0
    7.8574    3.2148  -22.7295 H   0  0  0  0  0  0
    4.2361    2.7359  -20.8895 H   0  0  0  0  0  0
    5.5801    1.8045  -20.0175 H   0  0  0  0  0  0
   -1.4991    3.4161  -26.8869 H   0  0  0  0  0  0
    0.5525    2.1659  -20.8138 H   0  0  0  0  0  0
    7.3745    0.9640  -21.9001 H   0  0  0  0  0  0
   -2.9720    3.4595  -28.2883 H   0  0  0  0  0  0
    6.5650    8.9960  -19.8590 N   0  3  0  0  0  0
    4.9650    7.3880  -21.9870 N   0  0  1  0  0  0
    6.9780    8.6240  -21.2460 C   0  0  0  0  0  0
    5.0960    9.0780  -20.1260 C   0  0  0  0  0  0
    5.4710    8.7050  -21.5800 C   0  0  0  0  0  0
    3.5710    7.5120  -22.4330 C   0  0  0  0  0  0
    6.9092    9.9214  -19.6559 H   0  0  0  0  0  0
    6.7389    8.2124  -19.2493 H   0  0  0  0  0  0
    5.5676    7.0053  -22.7974 H   0  0  0  0  0  0
    7.2422    7.5564  -21.2250 H   0  0  0  0  0  0
    7.4490    9.5149  -21.6870 H   0  0  0  0  0  0
    4.8330   10.1461  -20.1300 H   0  0  0  0  0  0
    4.6399    8.1839  -19.6759 H   0  0  0  0  0  0
    5.2320    9.4989  -22.3029 H   0  0  0  0  0  0
    3.5170    8.2184  -23.2745 H   0  0  0  0  0  0
    2.9501    7.8690  -21.5981 H   0  0  0  0  0  0
  1  2  2  0  0  0
  1  3  1  0  0  0
  1 34  1  0  0  0
  2  6  1  0  0  0
  2 35  1  0  0  0
  3  5  2  0  0  0
  3 27  1  0  0  0
  4  5  1  0  0  0
  4  6  2  0  0  0
  4 18  1  0  0  0
  5 24  1  0  0  0
  6 10  1  0  0  0
  7 10  2  0  0  0
  7 23  1  0  0  0
  7 33  1  0  0  0
  8 21  1  0  0  0
  8 22  1  0  0  0
  8 36  1  0  0  0
  8 37  1  0  0  0
  9 21  1  0  0  0
  9 31  1  0  0  0
  9 38  1  0  0  0
  9 39  1  0  0  0
 10 40  1  0  0  0
 11 12  1  0  0  0
 11 14  2  0  0  0
 11 15  1  0  0  0
 12 17  1  0  0  0
 12 28  2  0  0  0
 13 28  1  0  0  0
 13 29  2  0  0  0
 13 57  1  0  0  0
 14 29  1  0  0  0
 14 31  1  0  0  0
 15 30  2  0  0  0
 15 41  1  0  0  0
 16 17  2  0  0  0
 16 18  1  0  0  0
 16 30  1  0  0  0
 17 26  1  0  0  0
 18 23  2  0  0  0
 19 20  1  0  0  0
 19 31  1  0  0  0
 19 42  1  0  0  0
 19 43  1  0  0  0
 20 22  1  0  0  0
 20 32  1  0  0  0
 20 44  1  0  0  0
 21 32  1  0  0  0
 21 45  1  0  0  0
 22 46  1  0  0  0
 22 47  1  0  0  0
 23 48  1  0  0  0
 24 25  3  0  0  0
 25 49  1  0  0  0
 32 50  1  0  0  0
 33 51  1  0  0  0
 52 54  1  0  0  0
 52 55  1  0  0  0
 52 58  1  0  0  0
 52 59  1  0  0  0
 53 56  1  0  0  0
 53 57  1  0  0  0
 53 60  1  0  0  0
 54 56  1  0  0  0
 54 61  1  0  0  0
 54 62  1  0  0  0
 55 56  1  0  0  0
 55 63  1  0  0  0
 55 64  1  0  0  0
 56 65  1  0  0  0
 57 66  1  0  0  0
 57 67  1  0  0  0
M  CHG  1  52   1
M  END
> <s_m_entry_id>
581

> <s_m_entry_name>
000000581.1

> <s_m_Source_Path>
/Users/zaksoul/Documents/2

> <s_m_Source_File>
000000581.mol2

> <i_m_Source_File_Index>
1

$$$$
No_0_605
                    3D
 Schrodinger Suite 2022-4.
 67 73  0  0  1  0            999 V2000
   -5.2170    3.5820  -21.9230 C   0  0  0  0  0  0
   -5.4870    3.7590  -23.2590 C   0  0  0  0  0  0
   -3.9730    3.3610  -21.5800 C   0  0  0  0  0  0
   -3.0830    3.5030  -23.7460 C   0  0  0  0  0  0
   -2.9180    3.2680  -22.3240 C   0  0  0  0  0  0
   -4.4370    3.7290  -24.2690 C   0  0  0  0  0  0
   -3.6810    3.7630  -26.4660 C   0  0  0  0  0  0
    6.0600    3.2970  -21.1920 C   0  0  0  0  0  0
    5.9200    3.4270  -23.7420 C   0  0  0  0  0  0
   -4.6900    3.8460  -25.6050 C   0  0  0  0  0  0
    2.1220    3.8770  -23.7640 C   0  0  0  0  0  0
    1.2730    4.9650  -23.4690 C   0  0  0  0  0  0
    3.0390    6.2090  -22.7920 C   0  0  0  0  0  0
    3.5170    4.1050  -23.4500 C   0  0  0  0  0  0
    1.6050    2.7440  -24.4220 C   0  0  0  0  0  0
   -0.5420    3.5030  -24.3150 C   0  0  0  0  0  0
   -0.0480    4.7390  -23.7200 C   0  0  0  0  0  0
   -1.9950    3.4710  -24.6710 C   0  0  0  0  0  0
    4.1860    1.6250  -23.1500 C   0  0  0  0  0  0
    5.1280    1.2970  -22.0010 C   0  0  2  0  0  0
    6.6810    2.8760  -22.5420 C   0  0  2  0  0  0
    5.0830    2.3010  -20.8370 C   0  0  0  0  0  0
   -2.3230    3.6170  -26.0990 C   0  0  0  0  0  0
   -1.5640    2.8910  -21.7240 C   0  0  0  0  0  0
   -0.5250    2.5720  -21.2160 C   0  0  0  0  0  0
   -0.9160    5.7630  -23.3790 F   0  0  0  0  0  0
   -3.7570    3.1290  -20.1970 F   0  0  0  0  0  0
    1.7190    6.1380  -22.9410 N   0  0  0  0  0  0
    3.9600    5.2690  -23.0080 N   0  0  0  0  0  0
    0.3020    2.6200  -24.7270 N   0  0  0  0  0  0
    4.4620    3.0800  -23.6230 N   0  0  0  0  0  0
    6.5330    1.3980  -22.4830 N   0  0  1  0  0  0
   -3.8530    3.7690  -27.8560 O   0  0  0  0  0  0
   -6.0210    3.6262  -21.1973 H   0  0  0  0  0  0
   -6.5058    3.9266  -23.5892 H   0  0  0  0  0  0
    5.5634    4.2720  -21.3050 H   0  0  0  0  0  0
    6.8450    3.3293  -20.4221 H   0  0  0  0  0  0
    6.3258    2.9888  -24.6658 H   0  0  0  0  0  0
    6.0341    4.5205  -23.7783 H   0  0  0  0  0  0
   -5.7047    4.0036  -25.9523 H   0  0  0  0  0  0
    2.2656    1.9308  -24.7001 H   0  0  0  0  0  0
    3.1448    1.5423  -22.8050 H   0  0  0  0  0  0
    4.3667    0.9284  -23.9819 H   0  0  0  0  0  0
    4.9292    0.2808  -21.6297 H   0  0  0  0  0  0
    7.7425    3.1606  -22.5884 H   0  0  0  0  0  0
    4.0871    2.7662  -20.7956 H   0  0  0  0  0  0
    5.3960    1.7982  -19.9101 H   0  0  0  0  0  0
   -1.5530    3.6150  -26.8620 H   0  0  0  0  0  0
    0.3894    2.2902  -20.7693 H   0  0  0  0  0  0
    7.1928    0.9200  -21.7740 H   0  0  0  0  0  0
   -3.0063    3.7007  -28.2813 H   0  0  0  0  0  0
    7.1130    9.0540  -20.6050 N   0  3  0  0  0  0
    5.0320    7.5360  -22.3470 N   0  0  1  0  0  0
    7.0920    8.8830  -22.0890 C   0  0  0  0  0  0
    5.6320    9.0130  -20.4000 C   0  0  0  0  0  0
    5.5550    8.8440  -21.9360 C   0  0  0  0  0  0
    3.5640    7.5640  -22.3280 C   0  0  0  0  0  0
    7.4442    9.9814  -20.3899 H   0  0  0  0  0  0
    7.5188    8.2303  -20.1892 H   0  0  0  0  0  0
    5.3731    7.3089  -23.3463 H   0  0  0  0  0  0
    7.4178    7.8527  -22.2949 H   0  0  0  0  0  0
    7.3440    9.8610  -22.5250 H   0  0  0  0  0  0
    5.3142   10.0424  -20.1781 H   0  0  0  0  0  0
    5.3988    8.0323  -19.9597 H   0  0  0  0  0  0
    5.0519    9.6841  -22.4371 H   0  0  0  0  0  0
    3.2028    8.3493  -23.0083 H   0  0  0  0  0  0
    3.2151    7.7599  -21.3034 H   0  0  0  0  0  0
  1  2  2  0  0  0
  1  3  1  0  0  0
  1 34  1  0  0  0
  2  6  1  0  0  0
  2 35  1  0  0  0
  3  5  2  0  0  0
  3 27  1  0  0  0
  4  5  1  0  0  0
  4  6  2  0  0  0
  4 18  1  0  0  0
  5 24  1  0  0  0
  6 10  1  0  0  0
  7 10  2  0  0  0
  7 23  1  0  0  0
  7 33  1  0  0  0
  8 21  1  0  0  0
  8 22  1  0  0  0
  8 36  1  0  0  0
  8 37  1  0  0  0
  9 21  1  0  0  0
  9 31  1  0  0  0
  9 38  1  0  0  0
  9 39  1  0  0  0
 10 40  1  0  0  0
 11 12  1  0  0  0
 11 14  2  0  0  0
 11 15  1  0  0  0
 12 17  1  0  0  0
 12 28  2  0  0  0
 13 28  1  0  0  0
 13 29  2  0  0  0
 13 57  1  0  0  0
 14 29  1  0  0  0
 14 31  1  0  0  0
 15 30  2  0  0  0
 15 41  1  0  0  0
 16 17  2  0  0  0
 16 18  1  0  0  0
 16 30  1  0  0  0
 17 26  1  0  0  0
 18 23  2  0  0  0
 19 20  1  0  0  0
 19 31  1  0  0  0
 19 42  1  0  0  0
 19 43  1  0  0  0
 20 22  1  0  0  0
 20 32  1  0  0  0
 20 44  1  0  0  0
 21 32  1  0  0  0
 21 45  1  0  0  0
 22 46  1  0  0  0
 22 47  1  0  0  0
 23 48  1  0  0  0
 24 25  3  0  0  0
 25 49  1  0  0  0
 32 50  1  0  0  0
 33 51  1  0  0  0
 52 54  1  0  0  0
 52 55  1  0  0  0
 52 58  1  0  0  0
 52 59  1  0  0  0
 53 56  1  0  0  0
 53 57  1  0  0  0
 53 60  1  0  0  0
 54 56  1  0  0  0
 54 61  1  0  0  0
 54 62  1  0  0  0
 55 56  1  0  0  0
 55 63  1  0  0  0
 55 64  1  0  0  0
 56 65  1  0  0  0
 57 66  1  0  0  0
 57 67  1  0  0  0
M  CHG  1  52   1
M  END
> <s_m_entry_id>
582

> <s_m_entry_name>
000000582.1

> <s_m_Source_Path>
/Users/zaksoul/Documents/2

> <s_m_Source_File>
000000582.mol2

> <i_m_Source_File_Index>
1

$$$$
No_0_606
                    3D
 Schrodinger Suite 2022-4.
 67 73  0  0  1  0            999 V2000
   -5.5070    3.3520  -22.1650 C   0  0  0  0  0  0
   -5.7070    3.5660  -23.5080 C   0  0  0  0  0  0
   -4.2880    3.0810  -21.7700 C   0  0  0  0  0  0
   -3.2930    3.2370  -23.8880 C   0  0  0  0  0  0
   -3.2030    2.9660  -22.4660 C   0  0  0  0  0  0
   -4.6120    3.5210  -24.4680 C   0  0  0  0  0  0
   -3.7520    3.5730  -26.6270 C   0  0  0  0  0  0
    5.7070    2.6580  -20.9150 C   0  0  0  0  0  0
    5.6920    2.8460  -23.4650 C   0  0  0  0  0  0
   -4.7970    3.6730  -25.8110 C   0  0  0  0  0  0
    1.9170    3.4290  -23.6540 C   0  0  0  0  0  0
    1.0920    4.5400  -23.3750 C   0  0  0  0  0  0
    2.8660    5.7070  -22.5890 C   0  0  0  0  0  0
    3.3020    3.6010  -23.2710 C   0  0  0  0  0  0
    1.3940    2.3290  -24.3600 C   0  0  0  0  0  0
   -0.7290    3.1600  -24.3380 C   0  0  0  0  0  0
   -0.2220    4.3640  -23.6930 C   0  0  0  0  0  0
   -2.1640    3.1850  -24.7610 C   0  0  0  0  0  0
    3.8720    1.0930  -22.9950 C   0  0  0  0  0  0
    4.7470    0.7090  -21.8110 C   0  0  2  0  0  0
    6.3760    2.2440  -22.2430 C   0  0  2  0  0  0
    4.6810    1.6900  -20.6290 C   0  0  0  0  0  0
   -2.4190    3.3720  -26.2000 C   0  0  0  0  0  0
   -1.8920    2.5300  -21.8110 C   0  0  0  0  0  0
   -0.8900    2.1640  -21.2620 C   0  0  0  0  0  0
   -1.0700    5.4110  -23.3700 F   0  0  0  0  0  0
   -4.1470    2.8130  -20.3840 F   0  0  0  0  0  0
    1.5530    5.6850  -22.8010 N   0  0  0  0  0  0
    3.7630    4.7400  -22.7830 N   0  0  0  0  0  0
    0.1030    2.2560  -24.7290 N   0  0  0  0  0  0
    4.2190    2.5480  -23.4220 N   0  0  0  0  0  0
    6.1750    0.7720  -22.2240 N   0  0  1  0  0  0
   -3.8570    3.6140  -28.0230 O   0  0  0  0  0  0
   -6.3422    3.4102  -21.4764 H   0  0  0  0  0  0
   -6.7028    3.7758  -23.8814 H   0  0  0  0  0  0
    5.2499    3.6519  -21.0300 H   0  0  0  0  0  0
    6.4550    2.6479  -20.1085 H   0  0  0  0  0  0
    6.1270    2.4141  -24.3784 H   0  0  0  0  0  0
    5.8454    3.9352  -23.4721 H   0  0  0  0  0  0
   -5.7879    3.8736  -26.2021 H   0  0  0  0  0  0
    2.0384    1.4989  -24.6260 H   0  0  0  0  0  0
    2.8135    1.0405  -22.7004 H   0  0  0  0  0  0
    4.0689    0.4084  -23.8331 H   0  0  0  0  0  0
    4.4968   -0.3071  -21.4720 H   0  0  0  0  0  0
    7.4476    2.4922  -22.2339 H   0  0  0  0  0  0
    3.7010    2.1896  -20.6229 H   0  0  0  0  0  0
    4.9323    1.1581  -19.6995 H   0  0  0  0  0  0
   -1.6135    3.3590  -26.9253 H   0  0  0  0  0  0
   -0.0075    1.8418  -20.7797 H   0  0  0  0  0  0
    6.7844    0.2556  -21.4970 H   0  0  0  0  0  0
   -2.9936    3.5249  -28.4092 H   0  0  0  0  0  0
    7.1580    8.5380  -20.8480 N   0  3  0  0  0  0
    4.8520    7.0950  -22.3560 N   0  0  1  0  0  0
    6.8710    8.5270  -22.3150 C   0  0  0  0  0  0
    5.7430    8.3870  -20.3880 C   0  0  0  0  0  0
    5.3910    8.3800  -21.8950 C   0  0  0  0  0  0
    3.4130    7.0330  -22.0710 C   0  0  0  0  0  0
    7.4861    9.4552  -20.5889 H   0  0  0  0  0  0
    7.6659    7.7002  -20.6110 H   0  0  0  0  0  0
    5.0121    6.9979  -23.4196 H   0  0  0  0  0  0
    7.1930    7.5459  -22.6940 H   0  0  0  0  0  0
    6.9990    9.5599  -22.6710 H   0  0  0  0  0  0
    5.4310    9.3651  -19.9930 H   0  0  0  0  0  0
    5.6339    7.3524  -20.0308 H   0  0  0  0  0  0
    4.7711    9.2378  -22.1949 H   0  0  0  0  0  0
    2.9029    7.8641  -22.5801 H   0  0  0  0  0  0
    3.2520    7.0960  -20.9847 H   0  0  0  0  0  0
  1  2  2  0  0  0
  1  3  1  0  0  0
  1 34  1  0  0  0
  2  6  1  0  0  0
  2 35  1  0  0  0
  3  5  2  0  0  0
  3 27  1  0  0  0
  4  5  1  0  0  0
  4  6  2  0  0  0
  4 18  1  0  0  0
  5 24  1  0  0  0
  6 10  1  0  0  0
  7 10  2  0  0  0
  7 23  1  0  0  0
  7 33  1  0  0  0
  8 21  1  0  0  0
  8 22  1  0  0  0
  8 36  1  0  0  0
  8 37  1  0  0  0
  9 21  1  0  0  0
  9 31  1  0  0  0
  9 38  1  0  0  0
  9 39  1  0  0  0
 10 40  1  0  0  0
 11 12  1  0  0  0
 11 14  2  0  0  0
 11 15  1  0  0  0
 12 17  1  0  0  0
 12 28  2  0  0  0
 13 28  1  0  0  0
 13 29  2  0  0  0
 13 57  1  0  0  0
 14 29  1  0  0  0
 14 31  1  0  0  0
 15 30  2  0  0  0
 15 41  1  0  0  0
 16 17  2  0  0  0
 16 18  1  0  0  0
 16 30  1  0  0  0
 17 26  1  0  0  0
 18 23  2  0  0  0
 19 20  1  0  0  0
 19 31  1  0  0  0
 19 42  1  0  0  0
 19 43  1  0  0  0
 20 22  1  0  0  0
 20 32  1  0  0  0
 20 44  1  0  0  0
 21 32  1  0  0  0
 21 45  1  0  0  0
 22 46  1  0  0  0
 22 47  1  0  0  0
 23 48  1  0  0  0
 24 25  3  0  0  0
 25 49  1  0  0  0
 32 50  1  0  0  0
 33 51  1  0  0  0
 52 54  1  0  0  0
 52 55  1  0  0  0
 52 58  1  0  0  0
 52 59  1  0  0  0
 53 56  1  0  0  0
 53 57  1  0  0  0
 53 60  1  0  0  0
 54 56  1  0  0  0
 54 61  1  0  0  0
 54 62  1  0  0  0
 55 56  1  0  0  0
 55 63  1  0  0  0
 55 64  1  0  0  0
 56 65  1  0  0  0
 57 66  1  0  0  0
 57 67  1  0  0  0
M  CHG  1  52   1
M  END
> <s_m_entry_id>
583

> <s_m_entry_name>
000000583.1

> <s_m_Source_Path>
/Users/zaksoul/Documents/2

> <s_m_Source_File>
000000583.mol2

> <i_m_Source_File_Index>
1

$$$$
No_0_607
                    3D
 Schrodinger Suite 2022-4.
 67 73  0  0  1  0            999 V2000
   -5.2690    3.6270  -21.9640 C   0  0  0  0  0  0
   -5.4930    3.8450  -23.3030 C   0  0  0  0  0  0
   -4.0400    3.3770  -21.5890 C   0  0  0  0  0  0
   -3.0800    3.5640  -23.7200 C   0  0  0  0  0  0
   -2.9630    3.2870  -22.3020 C   0  0  0  0  0  0
   -4.4120    3.8260  -24.2790 C   0  0  0  0  0  0
   -3.5860    3.9070  -26.4500 C   0  0  0  0  0  0
    5.9730    3.1360  -20.8870 C   0  0  0  0  0  0
    5.9160    3.3380  -23.4360 C   0  0  0  0  0  0
   -4.6210    3.9830  -25.6190 C   0  0  0  0  0  0
    2.1290    3.8520  -23.5640 C   0  0  0  0  0  0
    1.2870    4.9450  -23.2660 C   0  0  0  0  0  0
    3.0510    6.1410  -22.4990 C   0  0  0  0  0  0
    3.5160    4.0480  -23.2010 C   0  0  0  0  0  0
    1.6150    2.7460  -24.2690 C   0  0  0  0  0  0
   -0.5230    3.5370  -24.2090 C   0  0  0  0  0  0
   -0.0280    4.7470  -23.5650 C   0  0  0  0  0  0
   -1.9630    3.5380  -24.6110 C   0  0  0  0  0  0
    4.1360    1.5490  -22.9480 C   0  0  0  0  0  0
    5.0360    1.1750  -21.7800 C   0  0  2  0  0  0
    6.6300    2.7420  -22.2280 C   0  0  2  0  0  0
    4.9700    2.1480  -20.5910 C   0  0  0  0  0  0
   -2.2440    3.7290  -26.0450 C   0  0  0  0  0  0
   -1.6350    2.8720  -21.6690 C   0  0  0  0  0  0
   -0.6180    2.5210  -21.1380 C   0  0  0  0  0  0
   -0.8910    5.7760  -23.2230 F   0  0  0  0  0  0
   -3.8730    3.1040  -20.2070 F   0  0  0  0  0  0
    1.7350    6.0960  -22.6920 N   0  0  0  0  0  0
    3.9630    5.1920  -22.7130 N   0  0  0  0  0  0
    0.3200    2.6520  -24.6190 N   0  0  0  0  0  0
    4.4500    3.0130  -23.3720 N   0  0  0  0  0  0
    6.4570    1.2660  -22.2150 N   0  0  1  0  0  0
   -3.7140    3.9540  -27.8440 O   0  0  0  0  0  0
   -6.0947    3.6661  -21.2627 H   0  0  0  0  0  0
   -6.4983    4.0386  -23.6592 H   0  0  0  0  0  0
    5.4957    4.1218  -20.9889 H   0  0  0  0  0  0
    6.7335    3.1350  -20.0922 H   0  0  0  0  0  0
    6.3449    2.9192  -24.3583 H   0  0  0  0  0  0
    6.0492    4.4299  -23.4380 H   0  0  0  0  0  0
   -5.6214    4.1676  -25.9933 H   0  0  0  0  0  0
    2.2714    1.9300  -24.5490 H   0  0  0  0  0  0
    3.0831    1.4753  -22.6381 H   0  0  0  0  0  0
    4.3327    0.8732  -23.7933 H   0  0  0  0  0  0
    4.8099    0.1523  -21.4438 H   0  0  0  0  0  0
    7.6967    3.0104  -22.2330 H   0  0  0  0  0  0
    3.9808    2.6285  -20.5678 H   0  0  0  0  0  0
    5.2445    1.6152  -19.6686 H   0  0  0  0  0  0
   -1.4494    3.7340  -26.7824 H   0  0  0  0  0  0
    0.2775    2.2128  -20.6708 H   0  0  0  0  0  0
    7.0861    0.7578  -21.4992 H   0  0  0  0  0  0
   -2.8551    3.8837  -28.2438 H   0  0  0  0  0  0
    7.3600    9.2440  -21.3740 N   0  3  0  0  0  0
    4.9250    7.6940  -22.5310 N   0  0  1  0  0  0
    6.7880    9.3090  -22.7530 C   0  0  0  0  0  0
    6.0820    8.9250  -20.6660 C   0  0  0  0  0  0
    5.4380    8.9900  -22.0710 C   0  0  0  0  0  0
    3.5810    7.4740  -21.9820 C   0  0  0  0  0  0
    7.6578   10.1684  -21.1042 H   0  0  0  0  0  0
    7.9712    8.4447  -21.3140 H   0  0  0  0  0  0
    4.8760    7.6880  -23.6099 H   0  0  0  0  0  0
    7.1059    8.3932  -23.2729 H   0  0  0  0  0  0
    6.7580   10.3716  -23.0359 H   0  0  0  0  0  0
    5.7772    9.8385  -20.1343 H   0  0  0  0  0  0
    6.1300    7.8621  -20.3870 H   0  0  0  0  0  0
    4.7039    9.8032  -22.1700 H   0  0  0  0  0  0
    2.9137    8.2854  -22.3082 H   0  0  0  0  0  0
    3.6350    7.4450  -20.8837 H   0  0  0  0  0  0
  1  2  2  0  0  0
  1  3  1  0  0  0
  1 34  1  0  0  0
  2  6  1  0  0  0
  2 35  1  0  0  0
  3  5  2  0  0  0
  3 27  1  0  0  0
  4  5  1  0  0  0
  4  6  2  0  0  0
  4 18  1  0  0  0
  5 24  1  0  0  0
  6 10  1  0  0  0
  7 10  2  0  0  0
  7 23  1  0  0  0
  7 33  1  0  0  0
  8 21  1  0  0  0
  8 22  1  0  0  0
  8 36  1  0  0  0
  8 37  1  0  0  0
  9 21  1  0  0  0
  9 31  1  0  0  0
  9 38  1  0  0  0
  9 39  1  0  0  0
 10 40  1  0  0  0
 11 12  1  0  0  0
 11 14  2  0  0  0
 11 15  1  0  0  0
 12 17  1  0  0  0
 12 28  2  0  0  0
 13 28  1  0  0  0
 13 29  2  0  0  0
 13 57  1  0  0  0
 14 29  1  0  0  0
 14 31  1  0  0  0
 15 30  2  0  0  0
 15 41  1  0  0  0
 16 17  2  0  0  0
 16 18  1  0  0  0
 16 30  1  0  0  0
 17 26  1  0  0  0
 18 23  2  0  0  0
 19 20  1  0  0  0
 19 31  1  0  0  0
 19 42  1  0  0  0
 19 43  1  0  0  0
 20 22  1  0  0  0
 20 32  1  0  0  0
 20 44  1  0  0  0
 21 32  1  0  0  0
 21 45  1  0  0  0
 22 46  1  0  0  0
 22 47  1  0  0  0
 23 48  1  0  0  0
 24 25  3  0  0  0
 25 49  1  0  0  0
 32 50  1  0  0  0
 33 51  1  0  0  0
 52 54  1  0  0  0
 52 55  1  0  0  0
 52 58  1  0  0  0
 52 59  1  0  0  0
 53 56  1  0  0  0
 53 57  1  0  0  0
 53 60  1  0  0  0
 54 56  1  0  0  0
 54 61  1  0  0  0
 54 62  1  0  0  0
 55 56  1  0  0  0
 55 63  1  0  0  0
 55 64  1  0  0  0
 56 65  1  0  0  0
 57 66  1  0  0  0
 57 67  1  0  0  0
M  CHG  1  52   1
M  END
> <s_m_entry_id>
584

> <s_m_entry_name>
000000584.1

> <s_m_Source_Path>
/Users/zaksoul/Documents/2

> <s_m_Source_File>
000000584.mol2

> <i_m_Source_File_Index>
1

$$$$
No_0_608
                    3D
 Schrodinger Suite 2022-4.
 67 73  0  0  1  0            999 V2000
   -5.5480    3.2580  -22.2010 C   0  0  0  0  0  0
   -5.7360    3.4520  -23.5490 C   0  0  0  0  0  0
   -4.3280    3.0270  -21.7870 C   0  0  0  0  0  0
   -3.3090    3.1880  -23.8940 C   0  0  0  0  0  0
   -3.2300    2.9360  -22.4670 C   0  0  0  0  0  0
   -4.6280    3.4280  -24.4940 C   0  0  0  0  0  0
   -3.7410    3.4810  -26.6420 C   0  0  0  0  0  0
    5.6630    2.9000  -20.7980 C   0  0  0  0  0  0
    5.6770    3.0600  -23.3500 C   0  0  0  0  0  0
   -4.8000    3.5600  -25.8420 C   0  0  0  0  0  0
    1.8900    3.5320  -23.5940 C   0  0  0  0  0  0
    1.0300    4.6220  -23.3390 C   0  0  0  0  0  0
    2.7590    5.8480  -22.5430 C   0  0  0  0  0  0
    3.2640    3.7480  -23.1950 C   0  0  0  0  0  0
    1.4080    2.4100  -24.2950 C   0  0  0  0  0  0
   -0.7390    3.1800  -24.3090 C   0  0  0  0  0  0
   -0.2740    4.4050  -23.6710 C   0  0  0  0  0  0
   -2.1670    3.1590  -24.7510 C   0  0  0  0  0  0
    3.9020    1.2610  -22.8830 C   0  0  0  0  0  0
    4.7710    0.9150  -21.6840 C   0  0  2  0  0  0
    6.3620    2.4910  -22.1120 C   0  0  2  0  0  0
    4.6620    1.9070  -20.5140 C   0  0  0  0  0  0
   -2.4080    3.3230  -26.1960 C   0  0  0  0  0  0
   -1.9170    2.5450  -21.7910 C   0  0  0  0  0  0
   -0.9120    2.2140  -21.2250 C   0  0  0  0  0  0
   -1.1560    5.4310  -23.3720 F   0  0  0  0  0  0
   -4.1970    2.7790  -20.3960 F   0  0  0  0  0  0
    1.4500    5.7860  -22.7720 N   0  0  0  0  0  0
    3.6860    4.9050  -22.7140 N   0  0  0  0  0  0
    0.1240    2.2960  -24.6800 N   0  0  0  0  0  0
    4.2130    2.7200  -23.3230 N   0  0  0  0  0  0
    6.2030    1.0140  -22.0790 N   0  0  1  0  0  0
   -3.8290    3.5030  -28.0390 O   0  0  0  0  0  0
   -6.3940    3.3002  -21.5246 H   0  0  0  0  0  0
   -6.7324    3.6296  -23.9373 H   0  0  0  0  0  0
    5.1798    3.8795  -20.9291 H   0  0  0  0  0  0
    6.4004    2.9202  -19.9820 H   0  0  0  0  0  0
    6.1362    2.6300  -24.2523 H   0  0  0  0  0  0
    5.7991    4.1531  -23.3672 H   0  0  0  0  0  0
   -5.7911    3.7277  -26.2477 H   0  0  0  0  0  0
    2.0795    1.5960  -24.5429 H   0  0  0  0  0  0
    2.8414    1.1813  -22.6025 H   0  0  0  0  0  0
    4.1281    0.5726  -23.7107 H   0  0  0  0  0  0
    4.5450   -0.1040  -21.3369 H   0  0  0  0  0  0
    7.4259    2.7696  -22.0918 H   0  0  0  0  0  0
    3.6677    2.3774  -20.5271 H   0  0  0  0  0  0
    4.9153    1.3923  -19.5754 H   0  0  0  0  0  0
   -1.5930    3.3250  -26.9107 H   0  0  0  0  0  0
   -0.0275    1.9222  -20.7273 H   0  0  0  0  0  0
    6.8160    0.5230  -21.3377 H   0  0  0  0  0  0
   -2.9583    3.4357  -28.4130 H   0  0  0  0  0  0
    6.9430    9.2460  -21.9030 N   0  3  0  0  0  0
    4.4810    7.5540  -22.7670 N   0  0  1  0  0  0
    6.1590    9.3280  -23.1720 C   0  0  0  0  0  0
    5.8200    8.7870  -21.0290 C   0  0  0  0  0  0
    4.9610    8.8650  -22.3130 C   0  0  0  0  0  0
    3.2610    7.1940  -22.0330 C   0  0  0  0  0  0
    7.2090   10.1780  -21.6260 H   0  0  0  0  0  0
    7.6149    8.4991  -21.9850 H   0  0  0  0  0  0
    4.2649    7.5950  -23.8244 H   0  0  0  0  0  0
    6.4600    8.4679  -23.7881 H   0  0  0  0  0  0
    6.0050   10.3967  -23.3820 H   0  0  0  0  0  0
    5.5341    9.6446  -20.4023 H   0  0  0  0  0  0
    5.9920    7.7199  -20.8250 H   0  0  0  0  0  0
    4.1604    9.6167  -22.2500 H   0  0  0  0  0  0
    2.4916    7.9614  -22.2041 H   0  0  0  0  0  0
    3.4889    7.1180  -20.9595 H   0  0  0  0  0  0
  1  2  2  0  0  0
  1  3  1  0  0  0
  1 34  1  0  0  0
  2  6  1  0  0  0
  2 35  1  0  0  0
  3  5  2  0  0  0
  3 27  1  0  0  0
  4  5  1  0  0  0
  4  6  2  0  0  0
  4 18  1  0  0  0
  5 24  1  0  0  0
  6 10  1  0  0  0
  7 10  2  0  0  0
  7 23  1  0  0  0
  7 33  1  0  0  0
  8 21  1  0  0  0
  8 22  1  0  0  0
  8 36  1  0  0  0
  8 37  1  0  0  0
  9 21  1  0  0  0
  9 31  1  0  0  0
  9 38  1  0  0  0
  9 39  1  0  0  0
 10 40  1  0  0  0
 11 12  1  0  0  0
 11 14  2  0  0  0
 11 15  1  0  0  0
 12 17  1  0  0  0
 12 28  2  0  0  0
 13 28  1  0  0  0
 13 29  2  0  0  0
 13 57  1  0  0  0
 14 29  1  0  0  0
 14 31  1  0  0  0
 15 30  2  0  0  0
 15 41  1  0  0  0
 16 17  2  0  0  0
 16 18  1  0  0  0
 16 30  1  0  0  0
 17 26  1  0  0  0
 18 23  2  0  0  0
 19 20  1  0  0  0
 19 31  1  0  0  0
 19 42  1  0  0  0
 19 43  1  0  0  0
 20 22  1  0  0  0
 20 32  1  0  0  0
 20 44  1  0  0  0
 21 32  1  0  0  0
 21 45  1  0  0  0
 22 46  1  0  0  0
 22 47  1  0  0  0
 23 48  1  0  0  0
 24 25  3  0  0  0
 25 49  1  0  0  0
 32 50  1  0  0  0
 33 51  1  0  0  0
 52 54  1  0  0  0
 52 55  1  0  0  0
 52 58  1  0  0  0
 52 59  1  0  0  0
 53 56  1  0  0  0
 53 57  1  0  0  0
 53 60  1  0  0  0
 54 56  1  0  0  0
 54 61  1  0  0  0
 54 62  1  0  0  0
 55 56  1  0  0  0
 55 63  1  0  0  0
 55 64  1  0  0  0
 56 65  1  0  0  0
 57 66  1  0  0  0
 57 67  1  0  0  0
M  CHG  1  52   1
M  END
> <s_m_entry_id>
585

> <s_m_entry_name>
000000585.1

> <s_m_Source_Path>
/Users/zaksoul/Documents/2

> <s_m_Source_File>
000000585.mol2

> <i_m_Source_File_Index>
1

$$$$
No_0_609
                    3D
 Schrodinger Suite 2022-4.
 67 73  0  0  1  0            999 V2000
   -5.3800    3.4700  -22.0150 C   0  0  0  0  0  0
   -5.6000    3.7070  -23.3510 C   0  0  0  0  0  0
   -4.1480    3.2460  -21.6340 C   0  0  0  0  0  0
   -3.1770    3.4960  -23.7550 C   0  0  0  0  0  0
   -3.0630    3.1960  -22.3400 C   0  0  0  0  0  0
   -4.5120    3.7340  -24.3190 C   0  0  0  0  0  0
   -3.6720    3.8760  -26.4820 C   0  0  0  0  0  0
    5.8630    3.2550  -20.8580 C   0  0  0  0  0  0
    5.8200    3.5020  -23.4030 C   0  0  0  0  0  0
   -4.7140    3.9100  -25.6570 C   0  0  0  0  0  0
    2.0210    3.9180  -23.5520 C   0  0  0  0  0  0
    1.1490    4.9830  -23.2410 C   0  0  0  0  0  0
    2.8740    6.2110  -22.4390 C   0  0  0  0  0  0
    3.4000    4.1440  -23.1740 C   0  0  0  0  0  0
    1.5420    2.8120  -24.2810 C   0  0  0  0  0  0
   -0.6160    3.5450  -24.2240 C   0  0  0  0  0  0
   -0.1580    4.7560  -23.5530 C   0  0  0  0  0  0
   -2.0530    3.5160  -24.6370 C   0  0  0  0  0  0
    4.0840    1.6580  -22.9620 C   0  0  0  0  0  0
    4.9850    1.2860  -21.7940 C   0  0  2  0  0  0
    6.5400    2.9030  -22.2000 C   0  0  2  0  0  0
    4.8840    2.2350  -20.5880 C   0  0  0  0  0  0
   -2.3280    3.7260  -26.0690 C   0  0  0  0  0  0
   -1.7300    2.8050  -21.7050 C   0  0  0  0  0  0
   -0.7080    2.4710  -21.1720 C   0  0  0  0  0  0
   -1.0500    5.7560  -23.2000 F   0  0  0  0  0  0
   -3.9830    2.9510  -20.2560 F   0  0  0  0  0  0
    1.5620    6.1340  -22.6420 N   0  0  0  0  0  0
    3.8130    5.2900  -22.6620 N   0  0  0  0  0  0
    0.2530    2.6900  -24.6430 N   0  0  0  0  0  0
    4.3620    3.1370  -23.3570 N   0  0  0  0  0  0
    6.4060    1.4230  -22.2150 N   0  0  1  0  0  0
   -3.7900    3.9450  -27.8750 O   0  0  0  0  0  0
   -6.2113    3.4740  -21.3193 H   0  0  0  0  0  0
   -6.6072    3.8797  -23.7125 H   0  0  0  0  0  0
    5.3614    4.2300  -20.9458 H   0  0  0  0  0  0
    6.6172    3.2590  -20.0573 H   0  0  0  0  0  0
    6.2661    3.1114  -24.3295 H   0  0  0  0  0  0
    5.9239    4.5969  -23.3848 H   0  0  0  0  0  0
   -5.7161    4.0745  -26.0362 H   0  0  0  0  0  0
    2.2216    2.0189  -24.5711 H   0  0  0  0  0  0
    3.0311    1.5510  -22.6622 H   0  0  0  0  0  0
    4.3050    1.0031  -23.8177 H   0  0  0  0  0  0
    4.7833    0.2521  -21.4773 H   0  0  0  0  0  0
    7.5995    3.1987  -22.1929 H   0  0  0  0  0  0
    3.8825    2.6893  -20.5638 H   0  0  0  0  0  0
    5.1666    1.6930  -19.6735 H   0  0  0  0  0  0
   -1.5282    3.7651  -26.7996 H   0  0  0  0  0  0
    0.1917    2.1781  -20.7031 H   0  0  0  0  0  0
    7.0430    0.9175  -21.5043 H   0  0  0  0  0  0
   -2.9269    3.9044  -28.2699 H   0  0  0  0  0  0
    6.7580   10.0030  -22.3870 N   0  3  0  0  0  0
    4.3210    8.1260  -22.8460 N   0  0  1  0  0  0
    5.6720   10.1220  -23.4080 C   0  0  0  0  0  0
    5.9400    9.3230  -21.3360 C   0  0  0  0  0  0
    4.7790    9.4300  -22.3530 C   0  0  0  0  0  0
    3.3660    7.5470  -21.8930 C   0  0  0  0  0  0
    6.9988   10.9264  -22.0622 H   0  0  0  0  0  0
    7.4515    9.3555  -22.7273 H   0  0  0  0  0  0
    3.8401    8.2510  -23.8049 H   0  0  0  0  0  0
    5.8840    9.3739  -24.1861 H   0  0  0  0  0  0
    5.3741   11.1806  -23.4320 H   0  0  0  0  0  0
    5.7460   10.0699  -20.5521 H   0  0  0  0  0  0
    6.2540    8.2689  -21.3220 H   0  0  0  0  0  0
    3.9565   10.0696  -22.0002 H   0  0  0  0  0  0
    2.5114    8.2287  -21.7711 H   0  0  0  0  0  0
    3.8643    7.3869  -20.9255 H   0  0  0  0  0  0
  1  2  2  0  0  0
  1  3  1  0  0  0
  1 34  1  0  0  0
  2  6  1  0  0  0
  2 35  1  0  0  0
  3  5  2  0  0  0
  3 27  1  0  0  0
  4  5  1  0  0  0
  4  6  2  0  0  0
  4 18  1  0  0  0
  5 24  1  0  0  0
  6 10  1  0  0  0
  7 10  2  0  0  0
  7 23  1  0  0  0
  7 33  1  0  0  0
  8 21  1  0  0  0
  8 22  1  0  0  0
  8 36  1  0  0  0
  8 37  1  0  0  0
  9 21  1  0  0  0
  9 31  1  0  0  0
  9 38  1  0  0  0
  9 39  1  0  0  0
 10 40  1  0  0  0
 11 12  1  0  0  0
 11 14  2  0  0  0
 11 15  1  0  0  0
 12 17  1  0  0  0
 12 28  2  0  0  0
 13 28  1  0  0  0
 13 29  2  0  0  0
 13 57  1  0  0  0
 14 29  1  0  0  0
 14 31  1  0  0  0
 15 30  2  0  0  0
 15 41  1  0  0  0
 16 17  2  0  0  0
 16 18  1  0  0  0
 16 30  1  0  0  0
 17 26  1  0  0  0
 18 23  2  0  0  0
 19 20  1  0  0  0
 19 31  1  0  0  0
 19 42  1  0  0  0
 19 43  1  0  0  0
 20 22  1  0  0  0
 20 32  1  0  0  0
 20 44  1  0  0  0
 21 32  1  0  0  0
 21 45  1  0  0  0
 22 46  1  0  0  0
 22 47  1  0  0  0
 23 48  1  0  0  0
 24 25  3  0  0  0
 25 49  1  0  0  0
 32 50  1  0  0  0
 33 51  1  0  0  0
 52 54  1  0  0  0
 52 55  1  0  0  0
 52 58  1  0  0  0
 52 59  1  0  0  0
 53 56  1  0  0  0
 53 57  1  0  0  0
 53 60  1  0  0  0
 54 56  1  0  0  0
 54 61  1  0  0  0
 54 62  1  0  0  0
 55 56  1  0  0  0
 55 63  1  0  0  0
 55 64  1  0  0  0
 56 65  1  0  0  0
 57 66  1  0  0  0
 57 67  1  0  0  0
M  CHG  1  52   1
M  END
> <s_m_entry_id>
586

> <s_m_entry_name>
000000586.1

> <s_m_Source_Path>
/Users/zaksoul/Documents/2

> <s_m_Source_File>
000000586.mol2

> <i_m_Source_File_Index>
1

$$$$
No_0_610
                    3D
 Schrodinger Suite 2022-4.
 67 73  0  0  1  0            999 V2000
   -5.2540    3.1790  -22.1280 C   0  0  0  0  0  0
   -5.4680    3.4210  -23.4640 C   0  0  0  0  0  0
   -4.0250    2.9450  -21.7440 C   0  0  0  0  0  0
   -3.0450    3.1950  -23.8600 C   0  0  0  0  0  0
   -2.9380    2.8910  -22.4460 C   0  0  0  0  0  0
   -4.3760    3.4440  -24.4280 C   0  0  0  0  0  0
   -3.5280    3.5880  -26.5880 C   0  0  0  0  0  0
    5.9830    2.8830  -20.9330 C   0  0  0  0  0  0
    5.9500    3.1380  -23.4770 C   0  0  0  0  0  0
   -4.5730    3.6260  -25.7670 C   0  0  0  0  0  0
    2.1550    3.5810  -23.6380 C   0  0  0  0  0  0
    1.2890    4.6510  -23.3270 C   0  0  0  0  0  0
    3.0200    5.8640  -22.5150 C   0  0  0  0  0  0
    3.5340    3.7960  -23.2550 C   0  0  0  0  0  0
    1.6710    2.4810  -24.3720 C   0  0  0  0  0  0
   -0.4820    3.2290  -24.3200 C   0  0  0  0  0  0
   -0.0180    4.4340  -23.6450 C   0  0  0  0  0  0
   -1.9180    3.2110  -24.7380 C   0  0  0  0  0  0
    4.2010    1.3050  -23.0480 C   0  0  0  0  0  0
    5.0940    0.9230  -21.8780 C   0  0  2  0  0  0
    6.6620    2.5310  -22.2740 C   0  0  2  0  0  0
    4.9960    1.8690  -20.6700 C   0  0  0  0  0  0
   -2.1860    3.4270  -26.1710 C   0  0  0  0  0  0
   -1.6090    2.4880  -21.8080 C   0  0  0  0  0  0
   -0.5920    2.1460  -21.2730 C   0  0  0  0  0  0
   -0.9050    5.4390  -23.2910 F   0  0  0  0  0  0
   -3.8670    2.6450  -20.3660 F   0  0  0  0  0  0
    1.7080    5.7980  -22.7230 N   0  0  0  0  0  0
    3.9540    4.9380  -22.7380 N   0  0  0  0  0  0
    0.3830    2.3690  -24.7390 N   0  0  0  0  0  0
    4.4900    2.7830  -23.4380 N   0  0  0  0  0  0
    6.5180    1.0510  -22.2940 N   0  0  1  0  0  0
   -3.6410    3.6610  -27.9820 O   0  0  0  0  0  0
   -6.0880    3.1870  -21.4355 H   0  0  0  0  0  0
   -6.4727    3.6027  -23.8283 H   0  0  0  0  0  0
    5.4886    3.8618  -21.0198 H   0  0  0  0  0  0
    6.7347    2.8800  -20.1299 H   0  0  0  0  0  0
    6.3969    2.7476  -24.4032 H   0  0  0  0  0  0
    6.0620    4.2321  -23.4548 H   0  0  0  0  0  0
   -5.5729    3.7987  -26.1485 H   0  0  0  0  0  0
    2.3464    1.6842  -24.6620 H   0  0  0  0  0  0
    3.1463    1.2041  -22.7523 H   0  0  0  0  0  0
    4.4200    0.6510  -23.9049 H   0  0  0  0  0  0
    4.8850   -0.1109  -21.5660 H   0  0  0  0  0  0
    7.7234    2.8196  -22.2619 H   0  0  0  0  0  0
    3.9977    2.3303  -20.6478 H   0  0  0  0  0  0
    5.2714    1.3223  -19.7561 H   0  0  0  0  0  0
   -1.3837    3.4632  -26.8990 H   0  0  0  0  0  0
    0.3040    1.8450  -20.8020 H   0  0  0  0  0  0
    7.1493    0.5395  -21.5825 H   0  0  0  0  0  0
   -2.7763    3.6165  -28.3728 H   0  0  0  0  0  0
    5.9590   10.3580  -23.3160 N   0  3  0  0  0  0
    3.8560    8.0780  -23.0870 N   0  0  1  0  0  0
    4.5260   10.3700  -23.7390 C   0  0  0  0  0  0
    5.8020    9.3940  -22.1840 C   0  0  0  0  0  0
    4.3050    9.3780  -22.5750 C   0  0  0  0  0  0
    3.5190    7.1960  -21.9630 C   0  0  0  0  0  0
    6.1941   11.2632  -22.9399 H   0  0  0  0  0  0
    6.5060    9.9190  -24.0400 H   0  0  0  0  0  0
    2.9833    8.2170  -23.7078 H   0  0  0  0  0  0
    4.4640    9.7871  -24.6698 H   0  0  0  0  0  0
    4.1082   11.3356  -23.4181 H   0  0  0  0  0  0
    5.8820    9.9779  -21.2552 H   0  0  0  0  0  0
    6.2280    8.4371  -22.5200 H   0  0  0  0  0  0
    3.6509    9.7791  -21.7868 H   0  0  0  0  0  0
    2.7269    7.6600  -21.3569 H   0  0  0  0  0  0
    4.4161    7.0250  -21.3499 H   0  0  0  0  0  0
  1  2  2  0  0  0
  1  3  1  0  0  0
  1 34  1  0  0  0
  2  6  1  0  0  0
  2 35  1  0  0  0
  3  5  2  0  0  0
  3 27  1  0  0  0
  4  5  1  0  0  0
  4  6  2  0  0  0
  4 18  1  0  0  0
  5 24  1  0  0  0
  6 10  1  0  0  0
  7 10  2  0  0  0
  7 23  1  0  0  0
  7 33  1  0  0  0
  8 21  1  0  0  0
  8 22  1  0  0  0
  8 36  1  0  0  0
  8 37  1  0  0  0
  9 21  1  0  0  0
  9 31  1  0  0  0
  9 38  1  0  0  0
  9 39  1  0  0  0
 10 40  1  0  0  0
 11 12  1  0  0  0
 11 14  2  0  0  0
 11 15  1  0  0  0
 12 17  1  0  0  0
 12 28  2  0  0  0
 13 28  1  0  0  0
 13 29  2  0  0  0
 13 57  1  0  0  0
 14 29  1  0  0  0
 14 31  1  0  0  0
 15 30  2  0  0  0
 15 41  1  0  0  0
 16 17  2  0  0  0
 16 18  1  0  0  0
 16 30  1  0  0  0
 17 26  1  0  0  0
 18 23  2  0  0  0
 19 20  1  0  0  0
 19 31  1  0  0  0
 19 42  1  0  0  0
 19 43  1  0  0  0
 20 22  1  0  0  0
 20 32  1  0  0  0
 20 44  1  0  0  0
 21 32  1  0  0  0
 21 45  1  0  0  0
 22 46  1  0  0  0
 22 47  1  0  0  0
 23 48  1  0  0  0
 24 25  3  0  0  0
 25 49  1  0  0  0
 32 50  1  0  0  0
 33 51  1  0  0  0
 52 54  1  0  0  0
 52 55  1  0  0  0
 52 58  1  0  0  0
 52 59  1  0  0  0
 53 56  1  0  0  0
 53 57  1  0  0  0
 53 60  1  0  0  0
 54 56  1  0  0  0
 54 61  1  0  0  0
 54 62  1  0  0  0
 55 56  1  0  0  0
 55 63  1  0  0  0
 55 64  1  0  0  0
 56 65  1  0  0  0
 57 66  1  0  0  0
 57 67  1  0  0  0
M  CHG  1  52   1
M  END
> <s_m_entry_id>
587

> <s_m_entry_name>
000000587.1

> <s_m_Source_Path>
/Users/zaksoul/Documents/2

> <s_m_Source_File>
000000587.mol2

> <i_m_Source_File_Index>
1

$$$$
No_0_611
                    3D
 Schrodinger Suite 2022-4.
 67 73  0  0  1  0            999 V2000
   -5.5320    3.3680  -21.8450 C   0  0  0  0  0  0
   -5.7770    3.5930  -23.1780 C   0  0  0  0  0  0
   -4.3010    3.0990  -21.4920 C   0  0  0  0  0  0
   -3.3760    3.2780  -23.6400 C   0  0  0  0  0  0
   -3.2380    2.9950  -22.2240 C   0  0  0  0  0  0
   -4.7140    3.5620  -24.1740 C   0  0  0  0  0  0
   -3.9260    3.6380  -26.3590 C   0  0  0  0  0  0
    5.7190    2.7110  -20.9710 C   0  0  0  0  0  0
    5.6190    2.9220  -23.5170 C   0  0  0  0  0  0
   -4.9450    3.7260  -25.5090 C   0  0  0  0  0  0
    1.8380    3.4910  -23.5760 C   0  0  0  0  0  0
    1.0180    4.5950  -23.2600 C   0  0  0  0  0  0
    2.8120    5.7630  -22.5210 C   0  0  0  0  0  0
    3.2350    3.6660  -23.2370 C   0  0  0  0  0  0
    1.2960    2.3950  -24.2750 C   0  0  0  0  0  0
   -0.8280    3.2160  -24.1750 C   0  0  0  0  0  0
   -0.3050    4.4170  -23.5350 C   0  0  0  0  0  0
   -2.2760    3.2400  -24.5500 C   0  0  0  0  0  0
    3.8230    1.1580  -23.0030 C   0  0  0  0  0  0
    4.7380    0.7660  -21.8530 C   0  0  2  0  0  0
    6.3460    2.3120  -22.3240 C   0  0  2  0  0  0
    4.7070    1.7360  -20.6600 C   0  0  0  0  0  0
   -2.5790    3.4390  -25.9780 C   0  0  0  0  0  0
   -1.9050    2.5580  -21.6170 C   0  0  0  0  0  0
   -0.8840    2.1920  -21.1050 C   0  0  0  0  0  0
   -1.1460    5.4570  -23.1760 F   0  0  0  0  0  0
   -4.1120    2.8180  -20.1140 F   0  0  0  0  0  0
    1.4930    5.7370  -22.6900 N   0  0  0  0  0  0
    3.7070    4.8010  -22.7540 N   0  0  0  0  0  0
   -0.0060    2.3200  -24.6020 N   0  0  0  0  0  0
    4.1500    2.6180  -23.4290 N   0  0  0  0  0  0
    6.1520    0.8390  -22.3120 N   0  0  1  0  0  0
   -4.0780    3.6910  -27.7500 O   0  0  0  0  0  0
   -6.3444    3.4151  -21.1289 H   0  0  0  0  0  0
   -6.7853    3.8027  -23.5161 H   0  0  0  0  0  0
    5.2547    3.7042  -21.0608 H   0  0  0  0  0  0
    6.4932    2.6969  -20.1897 H   0  0  0  0  0  0
    6.0255    2.5003  -24.4481 H   0  0  0  0  0  0
    5.7683    4.0118  -23.5190 H   0  0  0  0  0  0
   -5.9490    3.9258  -25.8654 H   0  0  0  0  0  0
    1.9350    1.5705  -24.5699 H   0  0  0  0  0  0
    2.7748    1.0974  -22.6748 H   0  0  0  0  0  0
    3.9944    0.4813  -23.8531 H   0  0  0  0  0  0
    4.5029   -0.2540  -21.5150 H   0  0  0  0  0  0
    7.4164    2.5642  -22.3482 H   0  0  0  0  0  0
    3.7255    2.2308  -20.6176 H   0  0  0  0  0  0
    4.9906    1.1960  -19.7446 H   0  0  0  0  0  0
   -1.7981    3.4350  -26.7298 H   0  0  0  0  0  0
    0.0150    1.8690  -20.6550 H   0  0  0  0  0  0
    6.7860    0.3183  -21.6096 H   0  0  0  0  0  0
   -3.2275    3.6099  -28.1654 H   0  0  0  0  0  0
    5.2290   10.4840  -23.6780 N   0  3  0  0  0  0
    3.3660    8.0600  -23.1080 N   0  0  1  0  0  0
    3.7360   10.4280  -23.7250 C   0  0  0  0  0  0
    5.4140    9.4410  -22.6230 C   0  0  0  0  0  0
    3.8690    9.3510  -22.6240 C   0  0  0  0  0  0
    3.3710    7.0860  -22.0090 C   0  0  0  0  0  0
    5.5080   11.3771  -23.3030 H   0  0  0  0  0  0
    5.5926   10.1304  -24.5491 H   0  0  0  0  0  0
    2.3578    8.1800  -23.4761 H   0  0  0  0  0  0
    3.4660    9.9029  -24.6531 H   0  0  0  0  0  0
    3.3690   11.3409  -23.2331 H   0  0  0  0  0  0
    5.7012    9.9684  -21.7014 H   0  0  0  0  0  0
    5.7850    8.5380  -23.1300 H   0  0  0  0  0  0
    3.4197    9.6562  -21.6674 H   0  0  0  0  0  0
    2.7400    7.4570  -21.1879 H   0  0  0  0  0  0
    4.4023    6.9360  -21.6569 H   0  0  0  0  0  0
  1  2  2  0  0  0
  1  3  1  0  0  0
  1 34  1  0  0  0
  2  6  1  0  0  0
  2 35  1  0  0  0
  3  5  2  0  0  0
  3 27  1  0  0  0
  4  5  1  0  0  0
  4  6  2  0  0  0
  4 18  1  0  0  0
  5 24  1  0  0  0
  6 10  1  0  0  0
  7 10  2  0  0  0
  7 23  1  0  0  0
  7 33  1  0  0  0
  8 21  1  0  0  0
  8 22  1  0  0  0
  8 36  1  0  0  0
  8 37  1  0  0  0
  9 21  1  0  0  0
  9 31  1  0  0  0
  9 38  1  0  0  0
  9 39  1  0  0  0
 10 40  1  0  0  0
 11 12  1  0  0  0
 11 14  2  0  0  0
 11 15  1  0  0  0
 12 17  1  0  0  0
 12 28  2  0  0  0
 13 28  1  0  0  0
 13 29  2  0  0  0
 13 57  1  0  0  0
 14 29  1  0  0  0
 14 31  1  0  0  0
 15 30  2  0  0  0
 15 41  1  0  0  0
 16 17  2  0  0  0
 16 18  1  0  0  0
 16 30  1  0  0  0
 17 26  1  0  0  0
 18 23  2  0  0  0
 19 20  1  0  0  0
 19 31  1  0  0  0
 19 42  1  0  0  0
 19 43  1  0  0  0
 20 22  1  0  0  0
 20 32  1  0  0  0
 20 44  1  0  0  0
 21 32  1  0  0  0
 21 45  1  0  0  0
 22 46  1  0  0  0
 22 47  1  0  0  0
 23 48  1  0  0  0
 24 25  3  0  0  0
 25 49  1  0  0  0
 32 50  1  0  0  0
 33 51  1  0  0  0
 52 54  1  0  0  0
 52 55  1  0  0  0
 52 58  1  0  0  0
 52 59  1  0  0  0
 53 56  1  0  0  0
 53 57  1  0  0  0
 53 60  1  0  0  0
 54 56  1  0  0  0
 54 61  1  0  0  0
 54 62  1  0  0  0
 55 56  1  0  0  0
 55 63  1  0  0  0
 55 64  1  0  0  0
 56 65  1  0  0  0
 57 66  1  0  0  0
 57 67  1  0  0  0
M  CHG  1  52   1
M  END
> <s_m_entry_id>
588

> <s_m_entry_name>
000000588.1

> <s_m_Source_Path>
/Users/zaksoul/Documents/2

> <s_m_Source_File>
000000588.mol2

> <i_m_Source_File_Index>
1

$$$$
No_0_612
                    3D
 Schrodinger Suite 2022-4.
 67 73  0  0  1  0            999 V2000
   -5.3170    3.3230  -22.0800 C   0  0  0  0  0  0
   -5.5330    3.5280  -23.4220 C   0  0  0  0  0  0
   -4.0890    3.0810  -21.6950 C   0  0  0  0  0  0
   -3.1160    3.2520  -23.8220 C   0  0  0  0  0  0
   -3.0070    2.9890  -22.4000 C   0  0  0  0  0  0
   -4.4460    3.5040  -24.3910 C   0  0  0  0  0  0
   -3.6070    3.5690  -26.5580 C   0  0  0  0  0  0
    5.9200    2.8880  -20.9280 C   0  0  0  0  0  0
    5.8790    3.0660  -23.4790 C   0  0  0  0  0  0
   -4.6470    3.6480  -25.7340 C   0  0  0  0  0  0
    2.0900    3.5630  -23.6360 C   0  0  0  0  0  0
    1.2430    4.6560  -23.3530 C   0  0  0  0  0  0
    2.9960    5.8660  -22.5860 C   0  0  0  0  0  0
    3.4740    3.7680  -23.2650 C   0  0  0  0  0  0
    1.5860    2.4490  -24.3340 C   0  0  0  0  0  0
   -0.5560    3.2320  -24.2950 C   0  0  0  0  0  0
   -0.0700    4.4500  -23.6580 C   0  0  0  0  0  0
   -1.9940    3.2230  -24.7050 C   0  0  0  0  0  0
    4.1030    1.2750  -22.9860 C   0  0  0  0  0  0
    4.9970    0.9140  -21.8090 C   0  0  2  0  0  0
    6.5870    2.4840  -22.2610 C   0  0  2  0  0  0
    4.9190    1.8980  -20.6300 C   0  0  0  0  0  0
   -2.2660    3.4000  -26.1420 C   0  0  0  0  0  0
   -1.6820    2.5850  -21.7560 C   0  0  0  0  0  0
   -0.6670    2.2430  -21.2150 C   0  0  0  0  0  0
   -0.9390    5.4780  -23.3310 F   0  0  0  0  0  0
   -3.9290    2.8210  -20.3090 F   0  0  0  0  0  0
    1.6820    5.8130  -22.7860 N   0  0  0  0  0  0
    3.9140    4.9190  -22.7850 N   0  0  0  0  0  0
    0.2930    2.3460  -24.6910 N   0  0  0  0  0  0
    4.4130    2.7360  -23.4220 N   0  0  0  0  0  0
    6.4200    1.0080  -22.2360 N   0  0  1  0  0  0
   -3.7260    3.6030  -27.9530 O   0  0  0  0  0  0
   -6.1473    3.3642  -21.3843 H   0  0  0  0  0  0
   -6.5369    3.7137  -23.7864 H   0  0  0  0  0  0
    5.4396    3.8710  -21.0420 H   0  0  0  0  0  0
    6.6758    2.8971  -20.1288 H   0  0  0  0  0  0
    6.3153    2.6409  -24.3949 H   0  0  0  0  0  0
    6.0071    4.1585  -23.4901 H   0  0  0  0  0  0
   -5.6458    3.8247  -26.1164 H   0  0  0  0  0  0
    2.2466    1.6328  -24.6031 H   0  0  0  0  0  0
    3.0485    1.1993  -22.6823 H   0  0  0  0  0  0
    4.3078    0.5919  -23.8235 H   0  0  0  0  0  0
    4.7729   -0.1065  -21.4648 H   0  0  0  0  0  0
    7.6527    2.7565  -22.2620 H   0  0  0  0  0  0
    3.9276    2.3745  -20.6169 H   0  0  0  0  0  0
    5.1903    1.3746  -19.7013 H   0  0  0  0  0  0
   -1.4671    3.4020  -26.8747 H   0  0  0  0  0  0
    0.2267    1.9431  -20.7391 H   0  0  0  0  0  0
    7.0464    0.5077  -21.5123 H   0  0  0  0  0  0
   -2.8643    3.5328  -28.3468 H   0  0  0  0  0  0
    4.6530   10.8980  -23.7670 N   0  3  0  0  0  0
    3.1920    8.2450  -23.0610 N   0  0  1  0  0  0
    3.1950   10.6780  -23.5210 C   0  0  0  0  0  0
    5.1520    9.8130  -22.8680 C   0  0  0  0  0  0
    3.6560    9.5490  -22.5710 C   0  0  0  0  0  0
    3.5180    7.2050  -22.0770 C   0  0  0  0  0  0
    4.9159   11.7887  -23.3751 H   0  0  0  0  0  0
    4.8611   10.6499  -24.7216 H   0  0  0  0  0  0
    2.1226    8.2760  -23.2089 H   0  0  0  0  0  0
    2.7911   10.1911  -24.4209 H   0  0  0  0  0  0
    2.8508   11.5074  -22.8857 H   0  0  0  0  0  0
    5.5699   10.3049  -21.9772 H   0  0  0  0  0  0
    5.4960    8.9950  -23.5180 H   0  0  0  0  0  0
    3.3869    9.7341  -21.5206 H   0  0  0  0  0  0
    3.0371    7.4449  -21.1172 H   0  0  0  0  0  0
    4.6093    7.1490  -21.9510 H   0  0  0  0  0  0
  1  2  2  0  0  0
  1  3  1  0  0  0
  1 34  1  0  0  0
  2  6  1  0  0  0
  2 35  1  0  0  0
  3  5  2  0  0  0
  3 27  1  0  0  0
  4  5  1  0  0  0
  4  6  2  0  0  0
  4 18  1  0  0  0
  5 24  1  0  0  0
  6 10  1  0  0  0
  7 10  2  0  0  0
  7 23  1  0  0  0
  7 33  1  0  0  0
  8 21  1  0  0  0
  8 22  1  0  0  0
  8 36  1  0  0  0
  8 37  1  0  0  0
  9 21  1  0  0  0
  9 31  1  0  0  0
  9 38  1  0  0  0
  9 39  1  0  0  0
 10 40  1  0  0  0
 11 12  1  0  0  0
 11 14  2  0  0  0
 11 15  1  0  0  0
 12 17  1  0  0  0
 12 28  2  0  0  0
 13 28  1  0  0  0
 13 29  2  0  0  0
 13 57  1  0  0  0
 14 29  1  0  0  0
 14 31  1  0  0  0
 15 30  2  0  0  0
 15 41  1  0  0  0
 16 17  2  0  0  0
 16 18  1  0  0  0
 16 30  1  0  0  0
 17 26  1  0  0  0
 18 23  2  0  0  0
 19 20  1  0  0  0
 19 31  1  0  0  0
 19 42  1  0  0  0
 19 43  1  0  0  0
 20 22  1  0  0  0
 20 32  1  0  0  0
 20 44  1  0  0  0
 21 32  1  0  0  0
 21 45  1  0  0  0
 22 46  1  0  0  0
 22 47  1  0  0  0
 23 48  1  0  0  0
 24 25  3  0  0  0
 25 49  1  0  0  0
 32 50  1  0  0  0
 33 51  1  0  0  0
 52 54  1  0  0  0
 52 55  1  0  0  0
 52 58  1  0  0  0
 52 59  1  0  0  0
 53 56  1  0  0  0
 53 57  1  0  0  0
 53 60  1  0  0  0
 54 56  1  0  0  0
 54 61  1  0  0  0
 54 62  1  0  0  0
 55 56  1  0  0  0
 55 63  1  0  0  0
 55 64  1  0  0  0
 56 65  1  0  0  0
 57 66  1  0  0  0
 57 67  1  0  0  0
M  CHG  1  52   1
M  END
> <s_m_entry_id>
589

> <s_m_entry_name>
000000589.1

> <s_m_Source_Path>
/Users/zaksoul/Documents/2

> <s_m_Source_File>
000000589.mol2

> <i_m_Source_File_Index>
1

$$$$
No_0_613
                    3D
 Schrodinger Suite 2022-4.
 64 69  0  0  1  0            999 V2000
   -5.3620    3.2310  -22.2160 C   0  0  0  0  0  0
   -5.6170    3.3720  -23.5590 C   0  0  0  0  0  0
   -4.1190    3.0370  -21.8530 C   0  0  0  0  0  0
   -3.2040    3.1420  -24.0090 C   0  0  0  0  0  0
   -3.0530    2.9420  -22.5810 C   0  0  0  0  0  0
   -4.5540    3.3350  -24.5540 C   0  0  0  0  0  0
   -3.7700    3.3280  -26.7430 C   0  0  0  0  0  0
    5.9080    3.1320  -21.3370 C   0  0  0  0  0  0
    5.7980    3.2000  -23.8910 C   0  0  0  0  0  0
   -4.7910    3.4160  -25.8960 C   0  0  0  0  0  0
    1.9950    3.5930  -23.9710 C   0  0  0  0  0  0
    1.1260    4.6750  -23.7120 C   0  0  0  0  0  0
    2.8650    5.9600  -23.0430 C   0  0  0  0  0  0
    3.3830    3.8490  -23.6450 C   0  0  0  0  0  0
    1.5040    2.4370  -24.6080 C   0  0  0  0  0  0
   -0.6560    3.1660  -24.5470 C   0  0  0  0  0  0
   -0.1870    4.4220  -23.9750 C   0  0  0  0  0  0
   -2.1030    3.1040  -24.9190 C   0  0  0  0  0  0
    4.0840    1.3860  -23.2770 C   0  0  0  0  0  0
    5.0160    1.1000  -22.1100 C   0  0  2  0  0  0
    6.5520    2.6890  -22.6680 C   0  0  2  0  0  0
    4.9410    2.1300  -20.9710 C   0  0  0  0  0  0
   -2.4150    3.2110  -26.3550 C   0  0  0  0  0  0
   -1.7010    2.6000  -21.9540 C   0  0  0  0  0  0
   -0.6650    2.3080  -21.4260 C   0  0  0  0  0  0
   -1.0750    5.4410  -23.6690 F   0  0  0  0  0  0
   -3.9180    2.8410  -20.4620 F   0  0  0  0  0  0
    1.5490    5.8660  -23.2070 N   0  0  0  0  0  0
    3.8030    5.0290  -23.2250 N   0  0  0  0  0  0
    0.2060    2.2860  -24.9270 N   0  0  0  0  0  0
    4.3440    2.8350  -23.7820 N   0  0  0  0  0  0
    6.4250    1.2110  -22.5760 N   0  0  1  0  0  0
   -3.9240    3.2990  -28.1340 O   0  0  0  0  0  0
   -6.1753    3.2802  -21.5011 H   0  0  0  0  0  0
   -6.6338    3.5175  -23.9053 H   0  0  0  0  0  0
    5.3993    4.0969  -21.4793 H   0  0  0  0  0  0
    6.6820    3.1946  -20.5579 H   0  0  0  0  0  0
    6.2231    2.7467  -24.7987 H   0  0  0  0  0  0
    5.8979    4.2938  -23.9515 H   0  0  0  0  0  0
   -5.8034    3.5505  -26.2592 H   0  0  0  0  0  0
    2.1799    1.6276  -24.8591 H   0  0  0  0  0  0
    3.0394    1.2972  -22.9439 H   0  0  0  0  0  0
    4.2858    0.6735  -24.0904 H   0  0  0  0  0  0
    4.8274    0.0902  -21.7166 H   0  0  0  0  0  0
    7.6099    2.9875  -22.7083 H   0  0  0  0  0  0
    3.9383    2.5819  -20.9528 H   0  0  0  0  0  0
    5.2498    1.6546  -20.0283 H   0  0  0  0  0  0
   -1.6351    3.2020  -27.1078 H   0  0  0  0  0  0
    0.2477    2.0511  -20.9611 H   0  0  0  0  0  0
    7.0824    0.7589  -21.8481 H   0  0  0  0  0  0
   -3.0708    3.2337  -28.5467 H   0  0  0  0  0  0
    4.9060    8.6100  -21.0460 N   0  3  0  0  0  0
    4.4040    7.2610  -21.4680 C   0  0  0  0  0  0
    5.9580    8.5390  -19.9770 C   0  0  0  0  0  0
    3.3640    7.3330  -22.6040 C   0  0  0  0  0  0
    4.1329    9.1681  -20.7190 H   0  0  0  0  0  0
    5.2770    9.0950  -21.8480 H   0  0  0  0  0  0
    3.9620    6.7480  -20.6011 H   0  0  0  0  0  0
    5.2523    6.6388  -21.7891 H   0  0  0  0  0  0
    6.2828    9.5565  -19.7141 H   0  0  0  0  0  0
    5.5430    8.0450  -19.0861 H   0  0  0  0  0  0
    6.8194    7.9637  -20.3472 H   0  0  0  0  0  0
    3.8017    7.8556  -23.4673 H   0  0  0  0  0  0
    2.5100    7.9460  -22.2800 H   0  0  0  0  0  0
  1  2  2  0  0  0
  1  3  1  0  0  0
  1 34  1  0  0  0
  2  6  1  0  0  0
  2 35  1  0  0  0
  3  5  2  0  0  0
  3 27  1  0  0  0
  4  5  1  0  0  0
  4  6  2  0  0  0
  4 18  1  0  0  0
  5 24  1  0  0  0
  6 10  1  0  0  0
  7 10  2  0  0  0
  7 23  1  0  0  0
  7 33  1  0  0  0
  8 21  1  0  0  0
  8 22  1  0  0  0
  8 36  1  0  0  0
  8 37  1  0  0  0
  9 21  1  0  0  0
  9 31  1  0  0  0
  9 38  1  0  0  0
  9 39  1  0  0  0
 10 40  1  0  0  0
 11 12  1  0  0  0
 11 14  2  0  0  0
 11 15  1  0  0  0
 12 17  1  0  0  0
 12 28  2  0  0  0
 13 28  1  0  0  0
 13 29  2  0  0  0
 13 55  1  0  0  0
 14 29  1  0  0  0
 14 31  1  0  0  0
 15 30  2  0  0  0
 15 41  1  0  0  0
 16 17  2  0  0  0
 16 18  1  0  0  0
 16 30  1  0  0  0
 17 26  1  0  0  0
 18 23  2  0  0  0
 19 20  1  0  0  0
 19 31  1  0  0  0
 19 42  1  0  0  0
 19 43  1  0  0  0
 20 22  1  0  0  0
 20 32  1  0  0  0
 20 44  1  0  0  0
 21 32  1  0  0  0
 21 45  1  0  0  0
 22 46  1  0  0  0
 22 47  1  0  0  0
 23 48  1  0  0  0
 24 25  3  0  0  0
 25 49  1  0  0  0
 32 50  1  0  0  0
 33 51  1  0  0  0
 52 53  1  0  0  0
 52 54  1  0  0  0
 52 56  1  0  0  0
 52 57  1  0  0  0
 53 55  1  0  0  0
 53 58  1  0  0  0
 53 59  1  0  0  0
 54 60  1  0  0  0
 54 61  1  0  0  0
 54 62  1  0  0  0
 55 63  1  0  0  0
 55 64  1  0  0  0
M  CHG  1  52   1
M  END
> <s_m_entry_id>
590

> <s_m_entry_name>
000000590.1

> <s_m_Source_Path>
/Users/zaksoul/Documents/2

> <s_m_Source_File>
000000590.mol2

> <i_m_Source_File_Index>
1

$$$$
No_0_614
                    3D
 Schrodinger Suite 2022-4.
 64 69  0  0  1  0            999 V2000
   -5.3640    3.5190  -21.9770 C   0  0  0  0  0  0
   -5.6300    3.7180  -23.3110 C   0  0  0  0  0  0
   -4.1250    3.2660  -21.6380 C   0  0  0  0  0  0
   -3.2330    3.4120  -23.8020 C   0  0  0  0  0  0
   -3.0720    3.1560  -22.3830 C   0  0  0  0  0  0
   -4.5810    3.6750  -24.3210 C   0  0  0  0  0  0
   -3.8250    3.7170  -26.5190 C   0  0  0  0  0  0
    5.9040    2.9620  -21.2550 C   0  0  0  0  0  0
    5.7660    3.1250  -23.8030 C   0  0  0  0  0  0
   -4.8320    3.8130  -25.6560 C   0  0  0  0  0  0
    1.9800    3.6640  -23.8180 C   0  0  0  0  0  0
    1.1560    4.7680  -23.5100 C   0  0  0  0  0  0
    2.9510    5.9620  -22.8190 C   0  0  0  0  0  0
    3.3800    3.8550  -23.5020 C   0  0  0  0  0  0
    1.4370    2.5510  -24.4880 C   0  0  0  0  0  0
   -0.6930    3.3590  -24.3720 C   0  0  0  0  0  0
   -0.1690    4.5750  -23.7630 C   0  0  0  0  0  0
   -2.1450    3.3640  -24.7270 C   0  0  0  0  0  0
    3.9910    1.3570  -23.2310 C   0  0  0  0  0  0
    4.9250    0.9940  -22.0860 C   0  0  2  0  0  0
    6.5140    2.5420  -22.6090 C   0  0  2  0  0  0
    4.9040    1.9850  -20.9110 C   0  0  0  0  0  0
   -2.4710    3.5350  -26.1540 C   0  0  0  0  0  0
   -1.7270    2.7410  -21.7880 C   0  0  0  0  0  0
   -0.6960    2.3910  -21.2840 C   0  0  0  0  0  0
   -1.0130    5.6160  -23.4100 F   0  0  0  0  0  0
   -3.9150    3.0120  -20.2580 F   0  0  0  0  0  0
    1.6300    5.9240  -22.9690 N   0  0  0  0  0  0
    3.8500    5.0040  -23.0470 N   0  0  0  0  0  0
    0.1310    2.4610  -24.7950 N   0  0  0  0  0  0
    4.3000    2.8110  -23.6880 N   0  0  0  0  0  0
    6.3320    1.0680  -22.5680 N   0  0  1  0  0  0
   -3.9970    3.7430  -27.9090 O   0  0  0  0  0  0
   -6.1662    3.5742  -21.2501 H   0  0  0  0  0  0
   -6.6449    3.9127  -23.6383 H   0  0  0  0  0  0
    5.4304    3.9496  -21.3570 H   0  0  0  0  0  0
    6.6893    2.9670  -20.4848 H   0  0  0  0  0  0
    6.1615    2.6891  -24.7323 H   0  0  0  0  0  0
    5.9064    4.2157  -23.8272 H   0  0  0  0  0  0
   -5.8426    3.9987  -26.0012 H   0  0  0  0  0  0
    2.0776    1.7257  -24.7772 H   0  0  0  0  0  0
    2.9484    1.2954  -22.8858 H   0  0  0  0  0  0
    4.1555    0.6657  -24.0707 H   0  0  0  0  0  0
    4.7031   -0.0218  -21.7269 H   0  0  0  0  0  0
    7.5819    2.8022  -22.6534 H   0  0  0  0  0  0
    3.9194    2.4732  -20.8636 H   0  0  0  0  0  0
    5.2047    1.4644  -19.9898 H   0  0  0  0  0  0
   -1.7005    3.5230  -26.9164 H   0  0  0  0  0  0
    0.2121    2.0840  -20.8410 H   0  0  0  0  0  0
    6.9797    0.5657  -21.8647 H   0  0  0  0  0  0
   -3.1517    3.6599  -28.3346 H   0  0  0  0  0  0
    5.3520    8.4650  -21.0460 N   0  3  0  0  0  0
    4.7950    7.1500  -21.5050 C   0  0  0  0  0  0
    6.6350    8.3260  -20.2780 C   0  0  0  0  0  0
    3.5080    7.2990  -22.3400 C   0  0  0  0  0  0
    4.6692    8.9359  -20.4732 H   0  0  0  0  0  0
    5.5020    9.0621  -21.8441 H   0  0  0  0  0  0
    4.5930    6.5131  -20.6312 H   0  0  0  0  0  0
    5.5547    6.6182  -22.0967 H   0  0  0  0  0  0
    6.9891    9.3212  -19.9709 H   0  0  0  0  0  0
    6.4630    7.7070  -19.3851 H   0  0  0  0  0  0
    7.3939    7.8481  -20.9149 H   0  0  0  0  0  0
    3.7080    7.9441  -23.2082 H   0  0  0  0  0  0
    2.7445    7.8197  -21.7434 H   0  0  0  0  0  0
  1  2  2  0  0  0
  1  3  1  0  0  0
  1 34  1  0  0  0
  2  6  1  0  0  0
  2 35  1  0  0  0
  3  5  2  0  0  0
  3 27  1  0  0  0
  4  5  1  0  0  0
  4  6  2  0  0  0
  4 18  1  0  0  0
  5 24  1  0  0  0
  6 10  1  0  0  0
  7 10  2  0  0  0
  7 23  1  0  0  0
  7 33  1  0  0  0
  8 21  1  0  0  0
  8 22  1  0  0  0
  8 36  1  0  0  0
  8 37  1  0  0  0
  9 21  1  0  0  0
  9 31  1  0  0  0
  9 38  1  0  0  0
  9 39  1  0  0  0
 10 40  1  0  0  0
 11 12  1  0  0  0
 11 14  2  0  0  0
 11 15  1  0  0  0
 12 17  1  0  0  0
 12 28  2  0  0  0
 13 28  1  0  0  0
 13 29  2  0  0  0
 13 55  1  0  0  0
 14 29  1  0  0  0
 14 31  1  0  0  0
 15 30  2  0  0  0
 15 41  1  0  0  0
 16 17  2  0  0  0
 16 18  1  0  0  0
 16 30  1  0  0  0
 17 26  1  0  0  0
 18 23  2  0  0  0
 19 20  1  0  0  0
 19 31  1  0  0  0
 19 42  1  0  0  0
 19 43  1  0  0  0
 20 22  1  0  0  0
 20 32  1  0  0  0
 20 44  1  0  0  0
 21 32  1  0  0  0
 21 45  1  0  0  0
 22 46  1  0  0  0
 22 47  1  0  0  0
 23 48  1  0  0  0
 24 25  3  0  0  0
 25 49  1  0  0  0
 32 50  1  0  0  0
 33 51  1  0  0  0
 52 53  1  0  0  0
 52 54  1  0  0  0
 52 56  1  0  0  0
 52 57  1  0  0  0
 53 55  1  0  0  0
 53 58  1  0  0  0
 53 59  1  0  0  0
 54 60  1  0  0  0
 54 61  1  0  0  0
 54 62  1  0  0  0
 55 63  1  0  0  0
 55 64  1  0  0  0
M  CHG  1  52   1
M  END
> <s_m_entry_id>
591

> <s_m_entry_name>
000000591.1

> <s_m_Source_Path>
/Users/zaksoul/Documents/2

> <s_m_Source_File>
000000591.mol2

> <i_m_Source_File_Index>
1

$$$$
No_0_615
                    3D
 Schrodinger Suite 2022-4.
 64 69  0  0  1  0            999 V2000
   -5.3210    3.2450  -22.0620 C   0  0  0  0  0  0
   -5.5650    3.4290  -23.4020 C   0  0  0  0  0  0
   -4.0820    3.0320  -21.6950 C   0  0  0  0  0  0
   -3.1510    3.1950  -23.8420 C   0  0  0  0  0  0
   -3.0120    2.9520  -22.4190 C   0  0  0  0  0  0
   -4.4950    3.4140  -24.3900 C   0  0  0  0  0  0
   -3.6950    3.4680  -26.5720 C   0  0  0  0  0  0
    5.9410    3.0420  -21.1050 C   0  0  0  0  0  0
    5.8510    3.1870  -23.6570 C   0  0  0  0  0  0
   -4.7220    3.5370  -25.7300 C   0  0  0  0  0  0
    2.0510    3.6090  -23.7520 C   0  0  0  0  0  0
    1.1880    4.6880  -23.4680 C   0  0  0  0  0  0
    2.9300    5.9410  -22.7470 C   0  0  0  0  0  0
    3.4370    3.8450  -23.4090 C   0  0  0  0  0  0
    1.5560    2.4760  -24.4270 C   0  0  0  0  0  0
   -0.5990    3.2180  -24.3590 C   0  0  0  0  0  0
   -0.1260    4.4530  -23.7470 C   0  0  0  0  0  0
   -2.0430    3.1770  -24.7440 C   0  0  0  0  0  0
    4.1200    1.3680  -23.1100 C   0  0  0  0  0  0
    5.0410    1.0400  -21.9450 C   0  0  2  0  0  0
    6.5920    2.6340  -22.4450 C   0  0  2  0  0  0
    4.9650    2.0370  -20.7760 C   0  0  0  0  0  0
   -2.3440    3.3290  -26.1780 C   0  0  0  0  0  0
   -1.6670    2.5810  -21.7930 C   0  0  0  0  0  0
   -0.6360    2.2670  -21.2660 C   0  0  0  0  0  0
   -1.0090    5.4690  -23.4170 F   0  0  0  0  0  0
   -3.8930    2.7930  -20.3100 F   0  0  0  0  0  0
    1.6140    5.8610  -22.9230 N   0  0  0  0  0  0
    3.8630    5.0100  -22.9510 N   0  0  0  0  0  0
    0.2600    2.3440  -24.7600 N   0  0  0  0  0  0
    4.3940    2.8290  -23.5690 N   0  0  0  0  0  0
    6.4540    1.1550  -22.3980 N   0  0  1  0  0  0
   -3.8390    3.4810  -27.9650 O   0  0  0  0  0  0
   -6.1389    3.2791  -21.3515 H   0  0  0  0  0  0
   -6.5784    3.5905  -23.7512 H   0  0  0  0  0  0
    5.4394    4.0139  -21.2221 H   0  0  0  0  0  0
    6.7103    3.0763  -20.3195 H   0  0  0  0  0  0
    6.2793    2.7587  -24.5752 H   0  0  0  0  0  0
    5.9579    4.2815  -23.6842 H   0  0  0  0  0  0
   -5.7304    3.6895  -26.0972 H   0  0  0  0  0  0
    2.2284    1.6701  -24.6980 H   0  0  0  0  0  0
    3.0725    1.2762  -22.7871 H   0  0  0  0  0  0
    4.3229    0.6786  -23.9428 H   0  0  0  0  0  0
    4.8423    0.0202  -21.5839 H   0  0  0  0  0  0
    7.6519    2.9275  -22.4682 H   0  0  0  0  0  0
    3.9648    2.4942  -20.7528 H   0  0  0  0  0  0
    5.2628    1.5302  -19.8462 H   0  0  0  0  0  0
   -1.5582    3.3380  -26.9247 H   0  0  0  0  0  0
    0.2716    1.9898  -20.8027 H   0  0  0  0  0  0
    7.1032    0.6770  -21.6793 H   0  0  0  0  0  0
   -2.9829    3.4226  -28.3727 H   0  0  0  0  0  0
    5.3820    8.5800  -21.2660 N   0  3  0  0  0  0
    4.8790    7.2450  -21.7280 C   0  0  0  0  0  0
    6.8060    8.5430  -20.7930 C   0  0  0  0  0  0
    3.4350    7.2970  -22.2640 C   0  0  0  0  0  0
    4.7919    8.9221  -20.5238 H   0  0  0  0  0  0
    5.2961    9.2475  -22.0164 H   0  0  0  0  0  0
    4.9339    6.5267  -20.8968 H   0  0  0  0  0  0
    5.5458    6.8541  -22.5107 H   0  0  0  0  0  0
    7.1129    9.5487  -20.4701 H   0  0  0  0  0  0
    6.8940    7.8441  -19.9481 H   0  0  0  0  0  0
    7.4570    8.2080  -21.6140 H   0  0  0  0  0  0
    3.3770    8.0227  -23.0886 H   0  0  0  0  0  0
    2.7659    7.6770  -21.4779 H   0  0  0  0  0  0
  1  2  2  0  0  0
  1  3  1  0  0  0
  1 34  1  0  0  0
  2  6  1  0  0  0
  2 35  1  0  0  0
  3  5  2  0  0  0
  3 27  1  0  0  0
  4  5  1  0  0  0
  4  6  2  0  0  0
  4 18  1  0  0  0
  5 24  1  0  0  0
  6 10  1  0  0  0
  7 10  2  0  0  0
  7 23  1  0  0  0
  7 33  1  0  0  0
  8 21  1  0  0  0
  8 22  1  0  0  0
  8 36  1  0  0  0
  8 37  1  0  0  0
  9 21  1  0  0  0
  9 31  1  0  0  0
  9 38  1  0  0  0
  9 39  1  0  0  0
 10 40  1  0  0  0
 11 12  1  0  0  0
 11 14  2  0  0  0
 11 15  1  0  0  0
 12 17  1  0  0  0
 12 28  2  0  0  0
 13 28  1  0  0  0
 13 29  2  0  0  0
 13 55  1  0  0  0
 14 29  1  0  0  0
 14 31  1  0  0  0
 15 30  2  0  0  0
 15 41  1  0  0  0
 16 17  2  0  0  0
 16 18  1  0  0  0
 16 30  1  0  0  0
 17 26  1  0  0  0
 18 23  2  0  0  0
 19 20  1  0  0  0
 19 31  1  0  0  0
 19 42  1  0  0  0
 19 43  1  0  0  0
 20 22  1  0  0  0
 20 32  1  0  0  0
 20 44  1  0  0  0
 21 32  1  0  0  0
 21 45  1  0  0  0
 22 46  1  0  0  0
 22 47  1  0  0  0
 23 48  1  0  0  0
 24 25  3  0  0  0
 25 49  1  0  0  0
 32 50  1  0  0  0
 33 51  1  0  0  0
 52 53  1  0  0  0
 52 54  1  0  0  0
 52 56  1  0  0  0
 52 57  1  0  0  0
 53 55  1  0  0  0
 53 58  1  0  0  0
 53 59  1  0  0  0
 54 60  1  0  0  0
 54 61  1  0  0  0
 54 62  1  0  0  0
 55 63  1  0  0  0
 55 64  1  0  0  0
M  CHG  1  52   1
M  END
> <s_m_entry_id>
592

> <s_m_entry_name>
000000592.1

> <s_m_Source_Path>
/Users/zaksoul/Documents/2

> <s_m_Source_File>
000000592.mol2

> <i_m_Source_File_Index>
1

$$$$
No_0_616
                    3D
 Schrodinger Suite 2022-4.
 64 69  0  0  1  0            999 V2000
   -5.4490    3.5870  -22.0610 C   0  0  0  0  0  0
   -5.6820    3.7760  -23.4020 C   0  0  0  0  0  0
   -4.2190    3.3370  -21.6890 C   0  0  0  0  0  0
   -3.2740    3.4670  -23.8310 C   0  0  0  0  0  0
   -3.1480    3.2220  -22.4070 C   0  0  0  0  0  0
   -4.6080    3.7260  -24.3860 C   0  0  0  0  0  0
   -3.7980    3.7510  -26.5640 C   0  0  0  0  0  0
    5.7970    3.0390  -21.0560 C   0  0  0  0  0  0
    5.7220    3.1820  -23.6080 C   0  0  0  0  0  0
   -4.8260    3.8530  -25.7270 C   0  0  0  0  0  0
    1.9380    3.7200  -23.7210 C   0  0  0  0  0  0
    1.1070    4.8260  -23.4420 C   0  0  0  0  0  0
    2.8840    6.0260  -22.7160 C   0  0  0  0  0  0
    3.3290    3.9140  -23.3720 C   0  0  0  0  0  0
    1.4110    2.6020  -24.3960 C   0  0  0  0  0  0
   -0.7200    3.4100  -24.3380 C   0  0  0  0  0  0
   -0.2120    4.6310  -23.7260 C   0  0  0  0  0  0
   -2.1640    3.4120  -24.7290 C   0  0  0  0  0  0
    3.9340    1.4180  -23.0660 C   0  0  0  0  0  0
    4.8390    1.0640  -21.8960 C   0  0  2  0  0  0
    6.4410    2.6090  -22.3920 C   0  0  2  0  0  0
    4.7890    2.0650  -20.7300 C   0  0  0  0  0  0
   -2.4540    3.5720  -26.1650 C   0  0  0  0  0  0
   -1.8180    2.8120  -21.7750 C   0  0  0  0  0  0
   -0.8000    2.4660  -21.2440 C   0  0  0  0  0  0
   -1.0650    5.6740  -23.4020 F   0  0  0  0  0  0
   -4.0430    3.0940  -20.3020 F   0  0  0  0  0  0
    1.5670    5.9860  -22.8980 N   0  0  0  0  0  0
    3.7880    5.0660  -22.9140 N   0  0  0  0  0  0
    0.1130    2.5090  -24.7340 N   0  0  0  0  0  0
    4.2540    2.8690  -23.5270 N   0  0  0  0  0  0
    6.2570    1.1350  -22.3430 N   0  0  1  0  0  0
   -3.9360    3.7660  -27.9580 O   0  0  0  0  0  0
   -6.2689    3.6482  -21.3545 H   0  0  0  0  0  0
   -6.6886    3.9687  -23.7552 H   0  0  0  0  0  0
    5.3263    4.0258  -21.1772 H   0  0  0  0  0  0
    6.5641    3.0501  -20.2677 H   0  0  0  0  0  0
    6.1406    2.7392  -24.5238 H   0  0  0  0  0  0
    5.8634    4.2725  -23.6373 H   0  0  0  0  0  0
   -5.8280    4.0355  -26.0981 H   0  0  0  0  0  0
    2.0594    1.7750  -24.6620 H   0  0  0  0  0  0
    2.8829    1.3585  -22.7472 H   0  0  0  0  0  0
    4.1187    0.7207  -23.8965 H   0  0  0  0  0  0
    4.6089    0.0508  -21.5347 H   0  0  0  0  0  0
    7.5098    2.8684  -22.4122 H   0  0  0  0  0  0
    3.8033    2.5528  -20.7108 H   0  0  0  0  0  0
    5.0674    1.5515  -19.7979 H   0  0  0  0  0  0
   -1.6654    3.5539  -26.9085 H   0  0  0  0  0  0
    0.0966    2.1621  -20.7762 H   0  0  0  0  0  0
    6.8879    0.6377  -21.6212 H   0  0  0  0  0  0
   -3.0805    3.6799  -28.3620 H   0  0  0  0  0  0
    5.4960    8.6820  -21.5790 N   0  3  0  0  0  0
    4.9580    7.3600  -22.0390 C   0  0  0  0  0  0
    6.9910    8.6940  -21.4400 C   0  0  0  0  0  0
    3.4280    7.3670  -22.2340 C   0  0  0  0  0  0
    5.0759    8.9261  -20.6958 H   0  0  0  0  0  0
    5.2150    9.4020  -22.2260 H   0  0  0  0  0  0
    5.2301    6.5808  -21.3118 H   0  0  0  0  0  0
    5.4448    7.0761  -22.9837 H   0  0  0  0  0  0
    7.3210    9.6871  -21.1010 H   0  0  0  0  0  0
    7.2979    7.9362  -20.7042 H   0  0  0  0  0  0
    7.4519    8.4680  -22.4129 H   0  0  0  0  0  0
    3.1549    8.1532  -22.9532 H   0  0  0  0  0  0
    2.9410    7.6390  -21.2859 H   0  0  0  0  0  0
  1  2  2  0  0  0
  1  3  1  0  0  0
  1 34  1  0  0  0
  2  6  1  0  0  0
  2 35  1  0  0  0
  3  5  2  0  0  0
  3 27  1  0  0  0
  4  5  1  0  0  0
  4  6  2  0  0  0
  4 18  1  0  0  0
  5 24  1  0  0  0
  6 10  1  0  0  0
  7 10  2  0  0  0
  7 23  1  0  0  0
  7 33  1  0  0  0
  8 21  1  0  0  0
  8 22  1  0  0  0
  8 36  1  0  0  0
  8 37  1  0  0  0
  9 21  1  0  0  0
  9 31  1  0  0  0
  9 38  1  0  0  0
  9 39  1  0  0  0
 10 40  1  0  0  0
 11 12  1  0  0  0
 11 14  2  0  0  0
 11 15  1  0  0  0
 12 17  1  0  0  0
 12 28  2  0  0  0
 13 28  1  0  0  0
 13 29  2  0  0  0
 13 55  1  0  0  0
 14 29  1  0  0  0
 14 31  1  0  0  0
 15 30  2  0  0  0
 15 41  1  0  0  0
 16 17  2  0  0  0
 16 18  1  0  0  0
 16 30  1  0  0  0
 17 26  1  0  0  0
 18 23  2  0  0  0
 19 20  1  0  0  0
 19 31  1  0  0  0
 19 42  1  0  0  0
 19 43  1  0  0  0
 20 22  1  0  0  0
 20 32  1  0  0  0
 20 44  1  0  0  0
 21 32  1  0  0  0
 21 45  1  0  0  0
 22 46  1  0  0  0
 22 47  1  0  0  0
 23 48  1  0  0  0
 24 25  3  0  0  0
 25 49  1  0  0  0
 32 50  1  0  0  0
 33 51  1  0  0  0
 52 53  1  0  0  0
 52 54  1  0  0  0
 52 56  1  0  0  0
 52 57  1  0  0  0
 53 55  1  0  0  0
 53 58  1  0  0  0
 53 59  1  0  0  0
 54 60  1  0  0  0
 54 61  1  0  0  0
 54 62  1  0  0  0
 55 63  1  0  0  0
 55 64  1  0  0  0
M  CHG  1  52   1
M  END
> <s_m_entry_id>
593

> <s_m_entry_name>
000000593.1

> <s_m_Source_Path>
/Users/zaksoul/Documents/2

> <s_m_Source_File>
000000593.mol2

> <i_m_Source_File_Index>
1

$$$$
No_0_617
                    3D
 Schrodinger Suite 2022-4.
 64 69  0  0  1  0            999 V2000
   -5.2250    3.5810  -21.9220 C   0  0  0  0  0  0
   -5.4750    3.7960  -23.2570 C   0  0  0  0  0  0
   -3.9910    3.3220  -21.5710 C   0  0  0  0  0  0
   -3.0730    3.4940  -23.7220 C   0  0  0  0  0  0
   -2.9300    3.2200  -22.3050 C   0  0  0  0  0  0
   -4.4140    3.7650  -24.2550 C   0  0  0  0  0  0
   -3.6320    3.8330  -26.4420 C   0  0  0  0  0  0
    6.0320    3.0020  -21.0720 C   0  0  0  0  0  0
    5.9250    3.1960  -23.6190 C   0  0  0  0  0  0
   -4.6490    3.9200  -25.5900 C   0  0  0  0  0  0
    2.1400    3.7400  -23.6730 C   0  0  0  0  0  0
    1.3140    4.8410  -23.3610 C   0  0  0  0  0  0
    3.1020    6.0250  -22.6350 C   0  0  0  0  0  0
    3.5360    3.9260  -23.3380 C   0  0  0  0  0  0
    1.6030    2.6360  -24.3630 C   0  0  0  0  0  0
   -0.5260    3.4450  -24.2630 C   0  0  0  0  0  0
   -0.0090    4.6530  -23.6330 C   0  0  0  0  0  0
   -1.9750    3.4560  -24.6350 C   0  0  0  0  0  0
    4.1410    1.4230  -23.0900 C   0  0  0  0  0  0
    5.0610    1.0450  -21.9390 C   0  0  2  0  0  0
    6.6580    2.5980  -22.4240 C   0  0  2  0  0  0
    5.0270    2.0230  -20.7520 C   0  0  0  0  0  0
   -2.2830    3.6450  -26.0630 C   0  0  0  0  0  0
   -1.5920    2.7960  -21.6980 C   0  0  0  0  0  0
   -0.5680    2.4400  -21.1870 C   0  0  0  0  0  0
   -0.8560    5.6900  -23.2770 F   0  0  0  0  0  0
   -3.7980    3.0520  -20.1920 F   0  0  0  0  0  0
    1.7820    5.9900  -22.8000 N   0  0  0  0  0  0
    4.0020    5.0680  -22.8630 N   0  0  0  0  0  0
    0.3010    2.5510  -24.6870 N   0  0  0  0  0  0
    4.4580    2.8830  -23.5250 N   0  0  0  0  0  0
    6.4740    1.1240  -22.4020 N   0  0  1  0  0  0
   -3.7870    3.8750  -27.8330 O   0  0  0  0  0  0
   -6.0360    3.6282  -21.2043 H   0  0  0  0  0  0
   -6.4858    3.9968  -23.5933 H   0  0  0  0  0  0
    5.5610    3.9915  -21.1668 H   0  0  0  0  0  0
    6.8083    2.9980  -20.2927 H   0  0  0  0  0  0
    6.3317    2.7711  -24.5485 H   0  0  0  0  0  0
    6.0663    4.2869  -23.6281 H   0  0  0  0  0  0
   -5.6553    4.1106  -25.9452 H   0  0  0  0  0  0
    2.2472    1.8142  -24.6540 H   0  0  0  0  0  0
    3.0943    1.3584  -22.7579 H   0  0  0  0  0  0
    4.3146    0.7427  -23.9368 H   0  0  0  0  0  0
    4.8339    0.0256  -21.5938 H   0  0  0  0  0  0
    7.7266    2.8573  -22.4523 H   0  0  0  0  0  0
    4.0424    2.5118  -20.7106 H   0  0  0  0  0  0
    5.3165    1.4904  -19.8341 H   0  0  0  0  0  0
   -1.5036    3.6410  -26.8163 H   0  0  0  0  0  0
    0.3342    2.1259  -20.7369 H   0  0  0  0  0  0
    7.1138    0.6126  -21.6980 H   0  0  0  0  0  0
   -2.9372    3.7968  -28.2505 H   0  0  0  0  0  0
    5.7230    8.7890  -21.8240 N   0  3  0  0  0  0
    5.1810    7.4750  -22.3040 C   0  0  0  0  0  0
    7.2020    8.9300  -22.0380 C   0  0  0  0  0  0
    3.6530    7.3550  -22.1320 C   0  0  0  0  0  0
    5.5150    8.9000  -20.8440 H   0  0  0  0  0  0
    5.2432    9.5407  -22.2938 H   0  0  0  0  0  0
    5.6751    6.6559  -21.7609 H   0  0  0  0  0  0
    5.4419    7.3380  -23.3638 H   0  0  0  0  0  0
    7.5349    9.9106  -21.6671 H   0  0  0  0  0  0
    7.7301    8.1338  -21.4929 H   0  0  0  0  0  0
    7.4270    8.8500  -23.1118 H   0  0  0  0  0  0
    3.1598    8.1804  -22.6663 H   0  0  0  0  0  0
    3.3939    7.4811  -21.0704 H   0  0  0  0  0  0
  1  2  2  0  0  0
  1  3  1  0  0  0
  1 34  1  0  0  0
  2  6  1  0  0  0
  2 35  1  0  0  0
  3  5  2  0  0  0
  3 27  1  0  0  0
  4  5  1  0  0  0
  4  6  2  0  0  0
  4 18  1  0  0  0
  5 24  1  0  0  0
  6 10  1  0  0  0
  7 10  2  0  0  0
  7 23  1  0  0  0
  7 33  1  0  0  0
  8 21  1  0  0  0
  8 22  1  0  0  0
  8 36  1  0  0  0
  8 37  1  0  0  0
  9 21  1  0  0  0
  9 31  1  0  0  0
  9 38  1  0  0  0
  9 39  1  0  0  0
 10 40  1  0  0  0
 11 12  1  0  0  0
 11 14  2  0  0  0
 11 15  1  0  0  0
 12 17  1  0  0  0
 12 28  2  0  0  0
 13 28  1  0  0  0
 13 29  2  0  0  0
 13 55  1  0  0  0
 14 29  1  0  0  0
 14 31  1  0  0  0
 15 30  2  0  0  0
 15 41  1  0  0  0
 16 17  2  0  0  0
 16 18  1  0  0  0
 16 30  1  0  0  0
 17 26  1  0  0  0
 18 23  2  0  0  0
 19 20  1  0  0  0
 19 31  1  0  0  0
 19 42  1  0  0  0
 19 43  1  0  0  0
 20 22  1  0  0  0
 20 32  1  0  0  0
 20 44  1  0  0  0
 21 32  1  0  0  0
 21 45  1  0  0  0
 22 46  1  0  0  0
 22 47  1  0  0  0
 23 48  1  0  0  0
 24 25  3  0  0  0
 25 49  1  0  0  0
 32 50  1  0  0  0
 33 51  1  0  0  0
 52 53  1  0  0  0
 52 54  1  0  0  0
 52 56  1  0  0  0
 52 57  1  0  0  0
 53 55  1  0  0  0
 53 58  1  0  0  0
 53 59  1  0  0  0
 54 60  1  0  0  0
 54 61  1  0  0  0
 54 62  1  0  0  0
 55 63  1  0  0  0
 55 64  1  0  0  0
M  CHG  1  52   1
M  END
> <s_m_entry_id>
594

> <s_m_entry_name>
000000594.1

> <s_m_Source_Path>
/Users/zaksoul/Documents/2

> <s_m_Source_File>
000000594.mol2

> <i_m_Source_File_Index>
1

$$$$
No_0_618
                    3D
 Schrodinger Suite 2022-4.
 64 69  0  0  1  0            999 V2000
   -5.4260    3.3830  -21.9130 C   0  0  0  0  0  0
   -5.6580    3.6160  -23.2480 C   0  0  0  0  0  0
   -4.1950    3.1240  -21.5490 C   0  0  0  0  0  0
   -3.2490    3.3290  -23.6850 C   0  0  0  0  0  0
   -3.1240    3.0370  -22.2700 C   0  0  0  0  0  0
   -4.5840    3.6030  -24.2310 C   0  0  0  0  0  0
   -3.7730    3.7040  -26.4070 C   0  0  0  0  0  0
    5.8210    2.8360  -20.9190 C   0  0  0  0  0  0
    5.7480    3.0660  -23.4640 C   0  0  0  0  0  0
   -4.8020    3.7750  -25.5680 C   0  0  0  0  0  0
    1.9620    3.5960  -23.5610 C   0  0  0  0  0  0
    1.1270    4.6890  -23.2460 C   0  0  0  0  0  0
    2.9000    5.8690  -22.4790 C   0  0  0  0  0  0
    3.3520    3.7820  -23.2050 C   0  0  0  0  0  0
    1.4390    2.4990  -24.2750 C   0  0  0  0  0  0
   -0.6950    3.2980  -24.1920 C   0  0  0  0  0  0
   -0.1910    4.4990  -23.5370 C   0  0  0  0  0  0
   -2.1390    3.3090  -24.5830 C   0  0  0  0  0  0
    3.9650    1.2790  -22.9840 C   0  0  0  0  0  0
    4.8700    0.8880  -21.8260 C   0  0  2  0  0  0
    6.4680    2.4540  -22.2680 C   0  0  2  0  0  0
    4.8160    1.8490  -20.6260 C   0  0  0  0  0  0
   -2.4280    3.5160  -26.0130 C   0  0  0  0  0  0
   -1.7930    2.6090  -21.6510 C   0  0  0  0  0  0
   -0.7740    2.2500  -21.1310 C   0  0  0  0  0  0
   -1.0480    5.5280  -23.1790 F   0  0  0  0  0  0
   -4.0190    2.8350  -20.1710 F   0  0  0  0  0  0
    1.5830    5.8310  -22.6620 N   0  0  0  0  0  0
    3.8070    4.9190  -22.7080 N   0  0  0  0  0  0
    0.1410    2.4140  -24.6170 N   0  0  0  0  0  0
    4.2810    2.7460  -23.3950 N   0  0  0  0  0  0
    6.2890    0.9790  -22.2690 N   0  0  1  0  0  0
   -3.9100    3.7660  -27.8000 O   0  0  0  0  0  0
   -6.2467    3.4161  -21.2056 H   0  0  0  0  0  0
   -6.6651    3.8166  -23.5951 H   0  0  0  0  0  0
    5.3477    3.8251  -21.0068 H   0  0  0  0  0  0
    6.5866    2.8239  -20.1292 H   0  0  0  0  0  0
    6.1686    2.6555  -24.3939 H   0  0  0  0  0  0
    5.8853    4.1574  -23.4559 H   0  0  0  0  0  0
   -5.8043    3.9668  -25.9336 H   0  0  0  0  0  0
    2.0906    1.6838  -24.5682 H   0  0  0  0  0  0
    2.9139    1.2054  -22.6683 H   0  0  0  0  0  0
    4.1527    0.6111  -23.8376 H   0  0  0  0  0  0
    4.6429   -0.1374  -21.4990 H   0  0  0  0  0  0
    7.5357    2.7184  -22.2781 H   0  0  0  0  0  0
    3.8286    2.3326  -20.5917 H   0  0  0  0  0  0
    5.0955    1.3051  -19.7117 H   0  0  0  0  0  0
   -1.6388    3.5270  -26.7560 H   0  0  0  0  0  0
    0.1231    1.9330  -20.6729 H   0  0  0  0  0  0
    6.9214    0.4601  -21.5639 H   0  0  0  0  0  0
   -3.0538    3.6967  -28.2058 H   0  0  0  0  0  0
    5.3760    8.8330  -21.9710 N   0  3  0  0  0  0
    4.8500    7.5230  -22.4780 C   0  0  0  0  0  0
    6.7270    9.1800  -22.5250 C   0  0  0  0  0  0
    3.4390    7.1940  -21.9500 C   0  0  0  0  0  0
    5.4230    8.8080  -20.9644 H   0  0  0  0  0  0
    4.7222    9.5658  -22.1979 H   0  0  0  0  0  0
    5.5424    6.7167  -22.1943 H   0  0  0  0  0  0
    4.8350    7.5360  -23.5778 H   0  0  0  0  0  0
    7.0538   10.1475  -22.1162 H   0  0  0  0  0  0
    7.4512    8.4008  -22.2449 H   0  0  0  0  0  0
    6.6680    9.2470  -23.6214 H   0  0  0  0  0  0
    2.7491    8.0058  -22.2239 H   0  0  0  0  0  0
    3.4570    7.1690  -20.8504 H   0  0  0  0  0  0
  1  2  2  0  0  0
  1  3  1  0  0  0
  1 34  1  0  0  0
  2  6  1  0  0  0
  2 35  1  0  0  0
  3  5  2  0  0  0
  3 27  1  0  0  0
  4  5  1  0  0  0
  4  6  2  0  0  0
  4 18  1  0  0  0
  5 24  1  0  0  0
  6 10  1  0  0  0
  7 10  2  0  0  0
  7 23  1  0  0  0
  7 33  1  0  0  0
  8 21  1  0  0  0
  8 22  1  0  0  0
  8 36  1  0  0  0
  8 37  1  0  0  0
  9 21  1  0  0  0
  9 31  1  0  0  0
  9 38  1  0  0  0
  9 39  1  0  0  0
 10 40  1  0  0  0
 11 12  1  0  0  0
 11 14  2  0  0  0
 11 15  1  0  0  0
 12 17  1  0  0  0
 12 28  2  0  0  0
 13 28  1  0  0  0
 13 29  2  0  0  0
 13 55  1  0  0  0
 14 29  1  0  0  0
 14 31  1  0  0  0
 15 30  2  0  0  0
 15 41  1  0  0  0
 16 17  2  0  0  0
 16 18  1  0  0  0
 16 30  1  0  0  0
 17 26  1  0  0  0
 18 23  2  0  0  0
 19 20  1  0  0  0
 19 31  1  0  0  0
 19 42  1  0  0  0
 19 43  1  0  0  0
 20 22  1  0  0  0
 20 32  1  0  0  0
 20 44  1  0  0  0
 21 32  1  0  0  0
 21 45  1  0  0  0
 22 46  1  0  0  0
 22 47  1  0  0  0
 23 48  1  0  0  0
 24 25  3  0  0  0
 25 49  1  0  0  0
 32 50  1  0  0  0
 33 51  1  0  0  0
 52 53  1  0  0  0
 52 54  1  0  0  0
 52 56  1  0  0  0
 52 57  1  0  0  0
 53 55  1  0  0  0
 53 58  1  0  0  0
 53 59  1  0  0  0
 54 60  1  0  0  0
 54 61  1  0  0  0
 54 62  1  0  0  0
 55 63  1  0  0  0
 55 64  1  0  0  0
M  CHG  1  52   1
M  END
> <s_m_entry_id>
595

> <s_m_entry_name>
000000595.1

> <s_m_Source_Path>
/Users/zaksoul/Documents/2

> <s_m_Source_File>
000000595.mol2

> <i_m_Source_File_Index>
1

$$$$
No_0_619
                    3D
 Schrodinger Suite 2022-4.
 64 69  0  0  1  0            999 V2000
   -5.4800    3.3930  -22.0910 C   0  0  0  0  0  0
   -5.6880    3.6100  -23.4320 C   0  0  0  0  0  0
   -4.2530    3.1630  -21.6980 C   0  0  0  0  0  0
   -3.2650    3.3710  -23.8150 C   0  0  0  0  0  0
   -3.1640    3.0930  -22.3950 C   0  0  0  0  0  0
   -4.5930    3.6120  -24.3930 C   0  0  0  0  0  0
   -3.7370    3.7130  -26.5510 C   0  0  0  0  0  0
    5.7520    3.0920  -20.8500 C   0  0  0  0  0  0
    5.7290    3.2990  -23.3980 C   0  0  0  0  0  0
   -4.7850    3.7690  -25.7350 C   0  0  0  0  0  0
    1.9350    3.7480  -23.5820 C   0  0  0  0  0  0
    1.0710    4.8260  -23.2930 C   0  0  0  0  0  0
    2.8020    6.0500  -22.4980 C   0  0  0  0  0  0
    3.3140    3.9670  -23.1970 C   0  0  0  0  0  0
    1.4510    2.6350  -24.2970 C   0  0  0  0  0  0
   -0.7000    3.3890  -24.2660 C   0  0  0  0  0  0
   -0.2360    4.6070  -23.6120 C   0  0  0  0  0  0
   -2.1350    3.3670  -24.6890 C   0  0  0  0  0  0
    3.9730    1.4790  -22.9410 C   0  0  0  0  0  0
    4.8620    1.1170  -21.7610 C   0  0  2  0  0  0
    6.4350    2.7130  -22.1820 C   0  0  2  0  0  0
    4.7620    2.0860  -20.5710 C   0  0  0  0  0  0
   -2.3970    3.5560  -26.1260 C   0  0  0  0  0  0
   -1.8380    2.6990  -21.7440 C   0  0  0  0  0  0
   -0.8230    2.3650  -21.1990 C   0  0  0  0  0  0
   -1.1210    5.6200  -23.2810 F   0  0  0  0  0  0
   -4.1010    2.8890  -20.3140 F   0  0  0  0  0  0
    1.4910    5.9830  -22.7100 N   0  0  0  0  0  0
    3.7340    5.1180  -22.7000 N   0  0  0  0  0  0
    0.1640    2.5200  -24.6660 N   0  0  0  0  0  0
    4.2680    2.9490  -23.3580 N   0  0  0  0  0  0
    6.2870    1.2340  -22.1740 N   0  0  1  0  0  0
   -3.8450    3.7600  -27.9470 O   0  0  0  0  0  0
   -6.3161    3.4151  -21.4014 H   0  0  0  0  0  0
   -6.6909    3.7875  -23.8031 H   0  0  0  0  0  0
    5.2595    4.0699  -20.9560 H   0  0  0  0  0  0
    6.5005    3.1021  -20.0440 H   0  0  0  0  0  0
    6.1780    2.8903  -24.3153 H   0  0  0  0  0  0
    5.8431    4.3931  -23.3970 H   0  0  0  0  0  0
   -5.7830    3.9367  -26.1236 H   0  0  0  0  0  0
    2.1254    1.8311  -24.5690 H   0  0  0  0  0  0
    2.9170    1.3861  -22.6472 H   0  0  0  0  0  0
    4.1939    0.8082  -23.7843 H   0  0  0  0  0  0
    4.6481    0.0900  -21.4301 H   0  0  0  0  0  0
    7.4970    2.9994  -22.1709 H   0  0  0  0  0  0
    3.7643    2.5491  -20.5619 H   0  0  0  0  0  0
    5.0323    1.5555  -19.6461 H   0  0  0  0  0  0
   -1.5925    3.5771  -26.8522 H   0  0  0  0  0  0
    0.0701    2.0700  -20.7189 H   0  0  0  0  0  0
    6.9148    0.7345  -21.4510 H   0  0  0  0  0  0
   -2.9790    3.7066  -28.3340 H   0  0  0  0  0  0
    5.0580    9.2090  -22.1800 N   0  3  0  0  0  0
    4.5730    7.8840  -22.6890 C   0  0  0  0  0  0
    6.2650    9.7170  -22.9150 C   0  0  0  0  0  0
    3.3020    7.3900  -21.9700 C   0  0  0  0  0  0
    5.2711    9.1340  -21.1976 H   0  0  0  0  0  0
    4.3147    9.8864  -22.2489 H   0  0  0  0  0  0
    5.3707    7.1352  -22.5750 H   0  0  0  0  0  0
    4.3770    7.9560  -23.7690 H   0  0  0  0  0  0
    6.5680   10.6879  -22.4960 H   0  0  0  0  0  0
    7.0903    8.9978  -22.8070 H   0  0  0  0  0  0
    6.0220    9.8390  -23.9809 H   0  0  0  0  0  0
    2.5074    8.1436  -22.0739 H   0  0  0  0  0  0
    3.5019    7.3060  -20.8916 H   0  0  0  0  0  0
  1  2  2  0  0  0
  1  3  1  0  0  0
  1 34  1  0  0  0
  2  6  1  0  0  0
  2 35  1  0  0  0
  3  5  2  0  0  0
  3 27  1  0  0  0
  4  5  1  0  0  0
  4  6  2  0  0  0
  4 18  1  0  0  0
  5 24  1  0  0  0
  6 10  1  0  0  0
  7 10  2  0  0  0
  7 23  1  0  0  0
  7 33  1  0  0  0
  8 21  1  0  0  0
  8 22  1  0  0  0
  8 36  1  0  0  0
  8 37  1  0  0  0
  9 21  1  0  0  0
  9 31  1  0  0  0
  9 38  1  0  0  0
  9 39  1  0  0  0
 10 40  1  0  0  0
 11 12  1  0  0  0
 11 14  2  0  0  0
 11 15  1  0  0  0
 12 17  1  0  0  0
 12 28  2  0  0  0
 13 28  1  0  0  0
 13 29  2  0  0  0
 13 55  1  0  0  0
 14 29  1  0  0  0
 14 31  1  0  0  0
 15 30  2  0  0  0
 15 41  1  0  0  0
 16 17  2  0  0  0
 16 18  1  0  0  0
 16 30  1  0  0  0
 17 26  1  0  0  0
 18 23  2  0  0  0
 19 20  1  0  0  0
 19 31  1  0  0  0
 19 42  1  0  0  0
 19 43  1  0  0  0
 20 22  1  0  0  0
 20 32  1  0  0  0
 20 44  1  0  0  0
 21 32  1  0  0  0
 21 45  1  0  0  0
 22 46  1  0  0  0
 22 47  1  0  0  0
 23 48  1  0  0  0
 24 25  3  0  0  0
 25 49  1  0  0  0
 32 50  1  0  0  0
 33 51  1  0  0  0
 52 53  1  0  0  0
 52 54  1  0  0  0
 52 56  1  0  0  0
 52 57  1  0  0  0
 53 55  1  0  0  0
 53 58  1  0  0  0
 53 59  1  0  0  0
 54 60  1  0  0  0
 54 61  1  0  0  0
 54 62  1  0  0  0
 55 63  1  0  0  0
 55 64  1  0  0  0
M  CHG  1  52   1
M  END
> <s_m_entry_id>
596

> <s_m_entry_name>
000000596.1

> <s_m_Source_Path>
/Users/zaksoul/Documents/2

> <s_m_Source_File>
000000596.mol2

> <i_m_Source_File_Index>
1

$$$$
No_0_620
                    3D
 Schrodinger Suite 2022-4.
 68 74  0  0  1  0            999 V2000
   -5.0740    3.4830  -22.1620 C   0  0  0  0  0  0
   -5.3320    3.6240  -23.5050 C   0  0  0  0  0  0
   -3.8320    3.2840  -21.8010 C   0  0  0  0  0  0
   -2.9210    3.3810  -23.9600 C   0  0  0  0  0  0
   -2.7680    3.1830  -22.5310 C   0  0  0  0  0  0
   -4.2710    3.5800  -24.5020 C   0  0  0  0  0  0
   -3.4910    3.5660  -26.6920 C   0  0  0  0  0  0
    6.1960    3.3320  -21.3050 C   0  0  0  0  0  0
    6.0820    3.3960  -23.8590 C   0  0  0  0  0  0
   -4.5110    3.6600  -25.8430 C   0  0  0  0  0  0
    2.2810    3.8070  -23.9320 C   0  0  0  0  0  0
    1.4170    4.8940  -23.6740 C   0  0  0  0  0  0
    3.1640    6.1720  -23.0100 C   0  0  0  0  0  0
    3.6700    4.0570  -23.6100 C   0  0  0  0  0  0
    1.7820    2.6530  -24.5660 C   0  0  0  0  0  0
   -0.3740    3.3920  -24.5020 C   0  0  0  0  0  0
    0.1020    4.6470  -23.9330 C   0  0  0  0  0  0
   -1.8220    3.3360  -24.8720 C   0  0  0  0  0  0
    4.3600    1.5920  -23.2390 C   0  0  0  0  0  0
    5.2930    1.3030  -22.0730 C   0  0  2  0  0  0
    6.8360    2.8840  -22.6370 C   0  0  2  0  0  0
    5.2260    2.3360  -20.9360 C   0  0  0  0  0  0
   -2.1360    3.4430  -26.3070 C   0  0  0  0  0  0
   -1.4170    2.8350  -21.9070 C   0  0  0  0  0  0
   -0.3800    2.5390  -21.3800 C   0  0  0  0  0  0
   -0.7800    5.6710  -23.6280 F   0  0  0  0  0  0
   -3.6290    3.0890  -20.4100 F   0  0  0  0  0  0
    1.8470    6.0840  -23.1710 N   0  0  0  0  0  0
    4.0970    5.2360  -23.1920 N   0  0  0  0  0  0
    0.4830    2.5080  -24.8830 N   0  0  0  0  0  0
    4.6270    3.0380  -23.7470 N   0  0  0  0  0  0
    6.7020    1.4060  -22.5420 N   0  0  1  0  0  0
   -3.6480    3.5350  -28.0830 O   0  0  0  0  0  0
   -5.8862    3.5382  -21.4462 H   0  0  0  0  0  0
   -6.3489    3.7736  -23.8493 H   0  0  0  0  0  0
    5.6914    4.2989  -21.4483 H   0  0  0  0  0  0
    6.9721    3.3926  -20.5279 H   0  0  0  0  0  0
    6.5028    2.9399  -24.7672 H   0  0  0  0  0  0
    6.1869    4.4892  -23.9215 H   0  0  0  0  0  0
   -5.5230    3.7996  -26.2054 H   0  0  0  0  0  0
    2.4534    1.8401  -24.8179 H   0  0  0  0  0  0
    3.3160    1.5082  -22.9028 H   0  0  0  0  0  0
    4.5567    0.8767  -24.0512 H   0  0  0  0  0  0
    5.1004    0.2944  -21.6786 H   0  0  0  0  0  0
    7.8951    3.1778  -22.6804 H   0  0  0  0  0  0
    4.2252    2.7920  -20.9168 H   0  0  0  0  0  0
    5.5329    1.8596  -19.9932 H   0  0  0  0  0  0
   -1.3571    3.4289  -27.0608 H   0  0  0  0  0  0
    0.5326    2.2788  -20.9167 H   0  0  0  0  0  0
    7.3589    0.9524  -21.8145 H   0  0  0  0  0  0
   -2.7961    3.4657  -28.4976 H   0  0  0  0  0  0
    6.0850    9.3530  -21.4470 N   0  3  0  0  0  0
    6.8560   10.4420  -20.8130 C   0  0  0  0  0  0
    7.3770    8.9390  -20.8610 C   0  0  0  0  0  0
    4.8220    8.9300  -20.7510 C   0  0  0  0  0  0
    4.3500    7.5320  -21.1910 C   0  0  0  0  0  0
    3.6700    7.5430  -22.5740 C   0  0  0  0  0  0
    6.0460    9.3720  -22.4541 H   0  0  0  0  0  0
    6.3820   10.4090  -19.8209 H   0  0  0  0  0  0
    7.3690   10.8120  -21.7130 H   0  0  0  0  0  0
    7.9911    9.0180  -21.7702 H   0  0  0  0  0  0
    7.0032    8.6152  -19.8785 H   0  0  0  0  0  0
    4.0292    9.6648  -20.9549 H   0  0  0  0  0  0
    4.9840    8.9360  -19.6630 H   0  0  0  0  0  0
    3.6509    7.1300  -20.4429 H   0  0  0  0  0  0
    5.2098    6.8462  -21.2120 H   0  0  0  0  0  0
    4.3760    7.9270  -23.3250 H   0  0  0  0  0  0
    2.8318    8.2552  -22.5630 H   0  0  0  0  0  0
  1  2  2  0  0  0
  1  3  1  0  0  0
  1 34  1  0  0  0
  2  6  1  0  0  0
  2 35  1  0  0  0
  3  5  2  0  0  0
  3 27  1  0  0  0
  4  5  1  0  0  0
  4  6  2  0  0  0
  4 18  1  0  0  0
  5 24  1  0  0  0
  6 10  1  0  0  0
  7 10  2  0  0  0
  7 23  1  0  0  0
  7 33  1  0  0  0
  8 21  1  0  0  0
  8 22  1  0  0  0
  8 36  1  0  0  0
  8 37  1  0  0  0
  9 21  1  0  0  0
  9 31  1  0  0  0
  9 38  1  0  0  0
  9 39  1  0  0  0
 10 40  1  0  0  0
 11 12  1  0  0  0
 11 14  2  0  0  0
 11 15  1  0  0  0
 12 17  1  0  0  0
 12 28  2  0  0  0
 13 28  1  0  0  0
 13 29  2  0  0  0
 13 57  1  0  0  0
 14 29  1  0  0  0
 14 31  1  0  0  0
 15 30  2  0  0  0
 15 41  1  0  0  0
 16 17  2  0  0  0
 16 18  1  0  0  0
 16 30  1  0  0  0
 17 26  1  0  0  0
 18 23  2  0  0  0
 19 20  1  0  0  0
 19 31  1  0  0  0
 19 42  1  0  0  0
 19 43  1  0  0  0
 20 22  1  0  0  0
 20 32  1  0  0  0
 20 44  1  0  0  0
 21 32  1  0  0  0
 21 45  1  0  0  0
 22 46  1  0  0  0
 22 47  1  0  0  0
 23 48  1  0  0  0
 24 25  3  0  0  0
 25 49  1  0  0  0
 32 50  1  0  0  0
 33 51  1  0  0  0
 52 53  1  0  0  0
 52 54  1  0  0  0
 52 55  1  0  0  0
 52 58  1  0  0  0
 53 54  1  0  0  0
 53 59  1  0  0  0
 53 60  1  0  0  0
 54 61  1  0  0  0
 54 62  1  0  0  0
 55 56  1  0  0  0
 55 63  1  0  0  0
 55 64  1  0  0  0
 56 57  1  0  0  0
 56 65  1  0  0  0
 56 66  1  0  0  0
 57 67  1  0  0  0
 57 68  1  0  0  0
M  CHG  1  52   1
M  END
> <s_m_entry_id>
597

> <s_m_entry_name>
000000597.1

> <s_m_Source_Path>
/Users/zaksoul/Documents/2

> <s_m_Source_File>
000000597.mol2

> <i_m_Source_File_Index>
1

$$$$
No_0_621
                    3D
 Schrodinger Suite 2022-4.
 68 74  0  0  1  0            999 V2000
   -5.2720    3.3410  -22.1570 C   0  0  0  0  0  0
   -5.5150    3.5030  -23.5000 C   0  0  0  0  0  0
   -4.0340    3.1290  -21.7860 C   0  0  0  0  0  0
   -3.1010    3.2520  -23.9340 C   0  0  0  0  0  0
   -2.9630    3.0320  -22.5070 C   0  0  0  0  0  0
   -4.4440    3.4680  -24.4870 C   0  0  0  0  0  0
   -3.6420    3.4810  -26.6690 C   0  0  0  0  0  0
    5.9880    3.1080  -21.1890 C   0  0  0  0  0  0
    5.9010    3.2110  -23.7420 C   0  0  0  0  0  0
   -4.6700    3.5690  -25.8290 C   0  0  0  0  0  0
    2.1030    3.6460  -23.8480 C   0  0  0  0  0  0
    1.2430    4.7340  -23.5820 C   0  0  0  0  0  0
    2.9910    5.9920  -22.8810 C   0  0  0  0  0  0
    3.4900    3.8830  -23.5080 C   0  0  0  0  0  0
    1.6040    2.5050  -24.5040 C   0  0  0  0  0  0
   -0.5480    3.2560  -24.4500 C   0  0  0  0  0  0
   -0.0710    4.4990  -23.8580 C   0  0  0  0  0  0
   -1.9930    3.2140  -24.8350 C   0  0  0  0  0  0
    4.1620    1.4080  -23.1670 C   0  0  0  0  0  0
    5.0810    1.0960  -21.9960 C   0  0  2  0  0  0
    6.6390    2.6760  -22.5210 C   0  0  2  0  0  0
    5.0080    2.1120  -20.8440 C   0  0  0  0  0  0
   -2.2920    3.3440  -26.2720 C   0  0  0  0  0  0
   -1.6210    2.6670  -21.8740 C   0  0  0  0  0  0
   -0.5920    2.3570  -21.3420 C   0  0  0  0  0  0
   -0.9500    5.5240  -23.5460 F   0  0  0  0  0  0
   -3.8470    2.9120  -20.3970 F   0  0  0  0  0  0
    1.6750    5.9140  -23.0570 N   0  0  0  0  0  0
    3.9190    5.0530  -23.0690 N   0  0  0  0  0  0
    0.3070    2.3720  -24.8360 N   0  0  0  0  0  0
    4.4420    2.8600  -23.6500 N   0  0  0  0  0  0
    6.4950    1.1980  -22.4490 N   0  0  1  0  0  0
   -3.7850    3.4720  -28.0620 O   0  0  0  0  0  0
   -6.0909    3.3902  -21.4485 H   0  0  0  0  0  0
   -6.5274    3.6637  -23.8525 H   0  0  0  0  0  0
    5.4912    4.0803  -21.3223 H   0  0  0  0  0  0
    6.7566    3.1524  -20.4033 H   0  0  0  0  0  0
    6.3278    2.7661  -24.6530 H   0  0  0  0  0  0
    6.0121    4.3044  -23.7884 H   0  0  0  0  0  0
   -5.6776    3.7195  -26.1993 H   0  0  0  0  0  0
    2.2723    1.6911  -24.7609 H   0  0  0  0  0  0
    3.1141    1.3252  -22.8429 H   0  0  0  0  0  0
    4.3629    0.7035  -23.9876 H   0  0  0  0  0  0
    4.8782    0.0832  -21.6177 H   0  0  0  0  0  0
    7.7004    2.9635  -22.5482 H   0  0  0  0  0  0
    4.0099    2.5742  -20.8279 H   0  0  0  0  0  0
    5.3037    1.6205  -19.9054 H   0  0  0  0  0  0
   -1.5062    3.3370  -27.0187 H   0  0  0  0  0  0
    0.3139    2.0840  -20.8730 H   0  0  0  0  0  0
    7.1412    0.7294  -21.7215 H   0  0  0  0  0  0
   -2.9292    3.4027  -28.4686 H   0  0  0  0  0  0
    6.0010    9.2680  -21.7420 N   0  3  0  0  0  0
    6.8380   10.3550  -21.1970 C   0  0  0  0  0  0
    7.4280    8.9270  -21.5730 C   0  0  0  0  0  0
    5.0070    8.6490  -20.7990 C   0  0  0  0  0  0
    4.5310    7.2640  -21.2770 C   0  0  0  0  0  0
    3.5000    7.3530  -22.4210 C   0  0  0  0  0  0
    5.6879    9.3891  -22.6924 H   0  0  0  0  0  0
    6.6550   10.1710  -20.1280 H   0  0  0  0  0  0
    7.0600   10.8689  -22.1439 H   0  0  0  0  0  0
    7.7650    9.1630  -22.5931 H   0  0  0  0  0  0
    7.3600    8.4650  -20.5770 H   0  0  0  0  0  0
    4.1389    9.3161  -20.6920 H   0  0  0  0  0  0
    5.4584    8.5559  -19.8002 H   0  0  0  0  0  0
    4.0912    6.7163  -20.4305 H   0  0  0  0  0  0
    5.3979    6.6750  -21.6110 H   0  0  0  0  0  0
    3.9471    7.8841  -23.2742 H   0  0  0  0  0  0
    2.6500    7.9720  -22.0980 H   0  0  0  0  0  0
  1  2  2  0  0  0
  1  3  1  0  0  0
  1 34  1  0  0  0
  2  6  1  0  0  0
  2 35  1  0  0  0
  3  5  2  0  0  0
  3 27  1  0  0  0
  4  5  1  0  0  0
  4  6  2  0  0  0
  4 18  1  0  0  0
  5 24  1  0  0  0
  6 10  1  0  0  0
  7 10  2  0  0  0
  7 23  1  0  0  0
  7 33  1  0  0  0
  8 21  1  0  0  0
  8 22  1  0  0  0
  8 36  1  0  0  0
  8 37  1  0  0  0
  9 21  1  0  0  0
  9 31  1  0  0  0
  9 38  1  0  0  0
  9 39  1  0  0  0
 10 40  1  0  0  0
 11 12  1  0  0  0
 11 14  2  0  0  0
 11 15  1  0  0  0
 12 17  1  0  0  0
 12 28  2  0  0  0
 13 28  1  0  0  0
 13 29  2  0  0  0
 13 57  1  0  0  0
 14 29  1  0  0  0
 14 31  1  0  0  0
 15 30  2  0  0  0
 15 41  1  0  0  0
 16 17  2  0  0  0
 16 18  1  0  0  0
 16 30  1  0  0  0
 17 26  1  0  0  0
 18 23  2  0  0  0
 19 20  1  0  0  0
 19 31  1  0  0  0
 19 42  1  0  0  0
 19 43  1  0  0  0
 20 22  1  0  0  0
 20 32  1  0  0  0
 20 44  1  0  0  0
 21 32  1  0  0  0
 21 45  1  0  0  0
 22 46  1  0  0  0
 22 47  1  0  0  0
 23 48  1  0  0  0
 24 25  3  0  0  0
 25 49  1  0  0  0
 32 50  1  0  0  0
 33 51  1  0  0  0
 52 53  1  0  0  0
 52 54  1  0  0  0
 52 55  1  0  0  0
 52 58  1  0  0  0
 53 54  1  0  0  0
 53 59  1  0  0  0
 53 60  1  0  0  0
 54 61  1  0  0  0
 54 62  1  0  0  0
 55 56  1  0  0  0
 55 63  1  0  0  0
 55 64  1  0  0  0
 56 57  1  0  0  0
 56 65  1  0  0  0
 56 66  1  0  0  0
 57 67  1  0  0  0
 57 68  1  0  0  0
M  CHG  1  52   1
M  END
> <s_m_entry_id>
598

> <s_m_entry_name>
000000598.1

> <s_m_Source_Path>
/Users/zaksoul/Documents/2

> <s_m_Source_File>
000000598.mol2

> <i_m_Source_File_Index>
1

$$$$
No_0_622
                    3D
 Schrodinger Suite 2022-4.
 68 74  0  0  1  0            999 V2000
   -5.3670    3.3720  -22.4060 C   0  0  0  0  0  0
   -5.5690    3.5390  -23.7560 C   0  0  0  0  0  0
   -4.1410    3.1570  -21.9990 C   0  0  0  0  0  0
   -3.1430    3.2830  -24.1170 C   0  0  0  0  0  0
   -3.0500    3.0590  -22.6880 C   0  0  0  0  0  0
   -4.4690    3.5030  -24.7100 C   0  0  0  0  0  0
   -3.6020    3.5200  -26.8670 C   0  0  0  0  0  0
    5.8590    3.1120  -21.1010 C   0  0  0  0  0  0
    5.8480    3.2210  -23.6560 C   0  0  0  0  0  0
   -4.6540    3.6080  -26.0580 C   0  0  0  0  0  0
    2.0560    3.6650  -23.8740 C   0  0  0  0  0  0
    1.1910    4.7540  -23.6310 C   0  0  0  0  0  0
    2.9200    6.0060  -22.8760 C   0  0  0  0  0  0
    3.4330    3.8980  -23.4920 C   0  0  0  0  0  0
    1.5740    2.5260  -24.5480 C   0  0  0  0  0  0
   -0.5770    3.2820  -24.5570 C   0  0  0  0  0  0
   -0.1140    4.5230  -23.9470 C   0  0  0  0  0  0
   -2.0090    3.2450  -24.9850 C   0  0  0  0  0  0
    4.0890    1.4210  -23.1370 C   0  0  0  0  0  0
    4.9710    1.1040  -21.9400 C   0  0  2  0  0  0
    6.5480    2.6810  -22.4140 C   0  0  2  0  0  0
    4.8670    2.1170  -20.7880 C   0  0  0  0  0  0
   -2.2650    3.3790  -26.4300 C   0  0  0  0  0  0
   -1.7270    2.6900  -22.0160 C   0  0  0  0  0  0
   -0.7150    2.3760  -21.4530 C   0  0  0  0  0  0
   -1.0000    5.5490  -23.6600 F   0  0  0  0  0  0
   -3.9960    2.9360  -20.6050 F   0  0  0  0  0  0
    1.6090    5.9320  -23.0910 N   0  0  0  0  0  0
    3.8520    5.0660  -23.0370 N   0  0  0  0  0  0
    0.2880    2.3980  -24.9190 N   0  0  0  0  0  0
    4.3860    2.8730  -23.6080 N   0  0  0  0  0  0
    6.3990    1.2040  -22.3510 N   0  0  1  0  0  0
   -3.7030    3.5140  -28.2640 O   0  0  0  0  0  0
   -6.2065    3.4222  -21.7221 H   0  0  0  0  0  0
   -6.5704    3.7017  -24.1377 H   0  0  0  0  0  0
    5.3682    4.0855  -21.2474 H   0  0  0  0  0  0
    6.6039    3.1524  -20.2926 H   0  0  0  0  0  0
    6.3013    2.7768  -24.5545 H   0  0  0  0  0  0
    5.9631    4.3143  -23.6954 H   0  0  0  0  0  0
   -5.6496    3.7615  -26.4584 H   0  0  0  0  0  0
    2.2494    1.7121  -24.7858 H   0  0  0  0  0  0
    3.0314    1.3403  -22.8454 H   0  0  0  0  0  0
    4.3121    0.7185  -23.9535 H   0  0  0  0  0  0
    4.7562    0.0903  -21.5708 H   0  0  0  0  0  0
    7.6103    2.9665  -22.4090 H   0  0  0  0  0  0
    3.8697    2.5809  -20.8011 H   0  0  0  0  0  0
    5.1325    1.6223  -19.8421 H   0  0  0  0  0  0
   -1.4566    3.3720  -27.1521 H   0  0  0  0  0  0
    0.1760    2.1000  -20.9580 H   0  0  0  0  0  0
    7.0221    0.7316  -21.6060 H   0  0  0  0  0  0
   -2.8352    3.4447  -28.6444 H   0  0  0  0  0  0
    5.8670    9.4290  -22.0460 N   0  3  0  0  0  0
    6.7210   10.5380  -21.5760 C   0  0  0  0  0  0
    7.3190    9.2010  -22.1970 C   0  0  0  0  0  0
    5.1330    8.6520  -20.9890 C   0  0  0  0  0  0
    4.6650    7.2750  -21.4940 C   0  0  0  0  0  0
    3.4180    7.3660  -22.3960 C   0  0  0  0  0  0
    5.3579    9.5990  -22.8992 H   0  0  0  0  0  0
    6.7750   10.2530  -20.5149 H   0  0  0  0  0  0
    6.7090   11.1433  -22.4944 H   0  0  0  0  0  0
    7.4220    9.5461  -23.2364 H   0  0  0  0  0  0
    7.4879    8.6562  -21.2564 H   0  0  0  0  0  0
    4.2625    9.2317  -20.6482 H   0  0  0  0  0  0
    5.7850    8.5190  -20.1131 H   0  0  0  0  0  0
    4.4471    6.6254  -20.6335 H   0  0  0  0  0  0
    5.4829    6.7911  -22.0479 H   0  0  0  0  0  0
    3.6429    7.9997  -23.2666 H   0  0  0  0  0  0
    2.6107    7.8802  -21.8538 H   0  0  0  0  0  0
  1  2  2  0  0  0
  1  3  1  0  0  0
  1 34  1  0  0  0
  2  6  1  0  0  0
  2 35  1  0  0  0
  3  5  2  0  0  0
  3 27  1  0  0  0
  4  5  1  0  0  0
  4  6  2  0  0  0
  4 18  1  0  0  0
  5 24  1  0  0  0
  6 10  1  0  0  0
  7 10  2  0  0  0
  7 23  1  0  0  0
  7 33  1  0  0  0
  8 21  1  0  0  0
  8 22  1  0  0  0
  8 36  1  0  0  0
  8 37  1  0  0  0
  9 21  1  0  0  0
  9 31  1  0  0  0
  9 38  1  0  0  0
  9 39  1  0  0  0
 10 40  1  0  0  0
 11 12  1  0  0  0
 11 14  2  0  0  0
 11 15  1  0  0  0
 12 17  1  0  0  0
 12 28  2  0  0  0
 13 28  1  0  0  0
 13 29  2  0  0  0
 13 57  1  0  0  0
 14 29  1  0  0  0
 14 31  1  0  0  0
 15 30  2  0  0  0
 15 41  1  0  0  0
 16 17  2  0  0  0
 16 18  1  0  0  0
 16 30  1  0  0  0
 17 26  1  0  0  0
 18 23  2  0  0  0
 19 20  1  0  0  0
 19 31  1  0  0  0
 19 42  1  0  0  0
 19 43  1  0  0  0
 20 22  1  0  0  0
 20 32  1  0  0  0
 20 44  1  0  0  0
 21 32  1  0  0  0
 21 45  1  0  0  0
 22 46  1  0  0  0
 22 47  1  0  0  0
 23 48  1  0  0  0
 24 25  3  0  0  0
 25 49  1  0  0  0
 32 50  1  0  0  0
 33 51  1  0  0  0
 52 53  1  0  0  0
 52 54  1  0  0  0
 52 55  1  0  0  0
 52 58  1  0  0  0
 53 54  1  0  0  0
 53 59  1  0  0  0
 53 60  1  0  0  0
 54 61  1  0  0  0
 54 62  1  0  0  0
 55 56  1  0  0  0
 55 63  1  0  0  0
 55 64  1  0  0  0
 56 57  1  0  0  0
 56 65  1  0  0  0
 56 66  1  0  0  0
 57 67  1  0  0  0
 57 68  1  0  0  0
M  CHG  1  52   1
M  END
> <s_m_entry_id>
599

> <s_m_entry_name>
000000599.1

> <s_m_Source_Path>
/Users/zaksoul/Documents/2

> <s_m_Source_File>
000000599.mol2

> <i_m_Source_File_Index>
1

$$$$
No_0_623
                    3D
 Schrodinger Suite 2022-4.
 68 74  0  0  1  0            999 V2000
   -5.2780    3.4460  -22.1980 C   0  0  0  0  0  0
   -5.5110    3.6580  -23.5360 C   0  0  0  0  0  0
   -4.0460    3.2070  -21.8280 C   0  0  0  0  0  0
   -3.0970    3.3950  -23.9640 C   0  0  0  0  0  0
   -2.9710    3.1230  -22.5450 C   0  0  0  0  0  0
   -4.4340    3.6450  -24.5180 C   0  0  0  0  0  0
   -3.6190    3.7260  -26.6930 C   0  0  0  0  0  0
    5.9720    3.0520  -21.1730 C   0  0  0  0  0  0
    5.9020    3.2460  -23.7210 C   0  0  0  0  0  0
   -4.6510    3.7960  -25.8570 C   0  0  0  0  0  0
    2.1100    3.7270  -23.8340 C   0  0  0  0  0  0
    1.2610    4.8150  -23.5350 C   0  0  0  0  0  0
    3.0170    6.0270  -22.7800 C   0  0  0  0  0  0
    3.4970    3.9360  -23.4770 C   0  0  0  0  0  0
    1.6020    2.6150  -24.5330 C   0  0  0  0  0  0
   -0.5420    3.3880  -24.4650 C   0  0  0  0  0  0
   -0.0540    4.6050  -23.8270 C   0  0  0  0  0  0
   -1.9840    3.3760  -24.8600 C   0  0  0  0  0  0
    4.1400    1.4430  -23.2200 C   0  0  0  0  0  0
    5.0480    1.0800  -22.0550 C   0  0  2  0  0  0
    6.6270    2.6590  -22.5150 C   0  0  2  0  0  0
    4.9790    2.0560  -20.8690 C   0  0  0  0  0  0
   -2.2730    3.5600  -26.2930 C   0  0  0  0  0  0
   -1.6370    2.7210  -21.9180 C   0  0  0  0  0  0
   -0.6140    2.3810  -21.3910 C   0  0  0  0  0  0
   -0.9240    5.6270  -23.4840 F   0  0  0  0  0  0
   -3.8690    2.9390  -20.4460 F   0  0  0  0  0  0
    1.7020    5.9700  -22.9660 N   0  0  0  0  0  0
    3.9370    5.0850  -22.9950 N   0  0  0  0  0  0
    0.3070    2.5090  -24.8760 N   0  0  0  0  0  0
    4.4390    2.9080  -23.6500 N   0  0  0  0  0  0
    6.4660    1.1820  -22.4970 N   0  0  1  0  0  0
   -3.7540    3.7670  -28.0860 O   0  0  0  0  0  0
   -6.1011    3.4791  -21.4934 H   0  0  0  0  0  0
   -6.5195    3.8418  -23.8886 H   0  0  0  0  0  0
    5.4866    4.0338  -21.2749 H   0  0  0  0  0  0
    6.7366    3.0601  -20.3822 H   0  0  0  0  0  0
    6.3298    2.8283  -24.6443 H   0  0  0  0  0  0
    6.0261    4.3390  -23.7281 H   0  0  0  0  0  0
   -5.6547    3.9706  -26.2274 H   0  0  0  0  0  0
    2.2632    1.8033  -24.8139 H   0  0  0  0  0  0
    3.0891    1.3613  -22.9053 H   0  0  0  0  0  0
    4.3377    0.7662  -24.0643 H   0  0  0  0  0  0
    4.8320    0.0565  -21.7148 H   0  0  0  0  0  0
    7.6913    2.9367  -22.5271 H   0  0  0  0  0  0
    3.9859    2.5283  -20.8428 H   0  0  0  0  0  0
    5.2626    1.5282  -19.9465 H   0  0  0  0  0  0
   -1.4823    3.5700  -27.0345 H   0  0  0  0  0  0
    0.2859    2.0810  -20.9270 H   0  0  0  0  0  0
    7.1022    0.6805  -21.7827 H   0  0  0  0  0  0
   -2.8964    3.7027  -28.4896 H   0  0  0  0  0  0
    5.8670    9.5930  -22.2730 N   0  3  0  0  0  0
    6.7450   10.7170  -21.8900 C   0  0  0  0  0  0
    7.2430    9.5150  -22.8060 C   0  0  0  0  0  0
    5.4760    8.6420  -21.1760 C   0  0  0  0  0  0
    4.9790    7.2910  -21.7220 C   0  0  0  0  0  0
    3.5390    7.3660  -22.2690 C   0  0  0  0  0  0
    5.1471    9.8080  -22.9450 H   0  0  0  0  0  0
    7.0860   10.3239  -20.9209 H   0  0  0  0  0  0
    6.4602   11.4145  -22.6915 H   0  0  0  0  0  0
    7.0542    9.9795  -23.7851 H   0  0  0  0  0  0
    7.6803    8.8886  -22.0145 H   0  0  0  0  0  0
    4.6886    9.0992  -20.5587 H   0  0  0  0  0  0
    6.3377    8.4741  -20.5132 H   0  0  0  0  0  0
    5.0280    6.5342  -20.9252 H   0  0  0  0  0  0
    5.6553    6.9468  -22.5184 H   0  0  0  0  0  0
    3.4950    8.1084  -23.0795 H   0  0  0  0  0  0
    2.8691    7.7429  -21.4821 H   0  0  0  0  0  0
  1  2  2  0  0  0
  1  3  1  0  0  0
  1 34  1  0  0  0
  2  6  1  0  0  0
  2 35  1  0  0  0
  3  5  2  0  0  0
  3 27  1  0  0  0
  4  5  1  0  0  0
  4  6  2  0  0  0
  4 18  1  0  0  0
  5 24  1  0  0  0
  6 10  1  0  0  0
  7 10  2  0  0  0
  7 23  1  0  0  0
  7 33  1  0  0  0
  8 21  1  0  0  0
  8 22  1  0  0  0
  8 36  1  0  0  0
  8 37  1  0  0  0
  9 21  1  0  0  0
  9 31  1  0  0  0
  9 38  1  0  0  0
  9 39  1  0  0  0
 10 40  1  0  0  0
 11 12  1  0  0  0
 11 14  2  0  0  0
 11 15  1  0  0  0
 12 17  1  0  0  0
 12 28  2  0  0  0
 13 28  1  0  0  0
 13 29  2  0  0  0
 13 57  1  0  0  0
 14 29  1  0  0  0
 14 31  1  0  0  0
 15 30  2  0  0  0
 15 41  1  0  0  0
 16 17  2  0  0  0
 16 18  1  0  0  0
 16 30  1  0  0  0
 17 26  1  0  0  0
 18 23  2  0  0  0
 19 20  1  0  0  0
 19 31  1  0  0  0
 19 42  1  0  0  0
 19 43  1  0  0  0
 20 22  1  0  0  0
 20 32  1  0  0  0
 20 44  1  0  0  0
 21 32  1  0  0  0
 21 45  1  0  0  0
 22 46  1  0  0  0
 22 47  1  0  0  0
 23 48  1  0  0  0
 24 25  3  0  0  0
 25 49  1  0  0  0
 32 50  1  0  0  0
 33 51  1  0  0  0
 52 53  1  0  0  0
 52 54  1  0  0  0
 52 55  1  0  0  0
 52 58  1  0  0  0
 53 54  1  0  0  0
 53 59  1  0  0  0
 53 60  1  0  0  0
 54 61  1  0  0  0
 54 62  1  0  0  0
 55 56  1  0  0  0
 55 63  1  0  0  0
 55 64  1  0  0  0
 56 57  1  0  0  0
 56 65  1  0  0  0
 56 66  1  0  0  0
 57 67  1  0  0  0
 57 68  1  0  0  0
M  CHG  1  52   1
M  END
> <s_m_entry_id>
600

> <s_m_entry_name>
000000600.1

> <s_m_Source_Path>
/Users/zaksoul/Documents/2

> <s_m_Source_File>
000000600.mol2

> <i_m_Source_File_Index>
1

$$$$
No_0_624
                    3D
 Schrodinger Suite 2022-4.
 68 74  0  0  1  0            999 V2000
   -5.4220    3.4410  -22.0740 C   0  0  0  0  0  0
   -5.6520    3.6790  -23.4090 C   0  0  0  0  0  0
   -4.1930    3.1820  -21.7090 C   0  0  0  0  0  0
   -3.2420    3.3950  -23.8420 C   0  0  0  0  0  0
   -3.1190    3.0980  -22.4270 C   0  0  0  0  0  0
   -4.5760    3.6700  -24.3900 C   0  0  0  0  0  0
   -3.7590    3.7800  -26.5640 C   0  0  0  0  0  0
    5.8230    2.8980  -21.0570 C   0  0  0  0  0  0
    5.7550    3.1370  -23.6020 C   0  0  0  0  0  0
   -4.7900    3.8470  -25.7270 C   0  0  0  0  0  0
    1.9690    3.6650  -23.7050 C   0  0  0  0  0  0
    1.1320    4.7570  -23.3880 C   0  0  0  0  0  0
    2.9030    5.9350  -22.6130 C   0  0  0  0  0  0
    3.3580    3.8510  -23.3460 C   0  0  0  0  0  0
    1.4480    2.5710  -24.4240 C   0  0  0  0  0  0
   -0.6860    3.3680  -24.3430 C   0  0  0  0  0  0
   -0.1850    4.5670  -23.6830 C   0  0  0  0  0  0
   -2.1290    3.3790  -24.7380 C   0  0  0  0  0  0
    3.9720    1.3470  -23.1320 C   0  0  0  0  0  0
    4.8750    0.9530  -21.9730 C   0  0  2  0  0  0
    6.4730    2.5220  -22.4060 C   0  0  2  0  0  0
    4.8180    1.9090  -20.7700 C   0  0  0  0  0  0
   -2.4150    3.5910  -26.1670 C   0  0  0  0  0  0
   -1.7900    2.6700  -21.8070 C   0  0  0  0  0  0
   -0.7710    2.3080  -21.2860 C   0  0  0  0  0  0
   -1.0430    5.5940  -23.3230 F   0  0  0  0  0  0
   -4.0190    2.8880  -20.3310 F   0  0  0  0  0  0
    1.5870    5.8970  -22.7990 N   0  0  0  0  0  0
    3.8110    4.9870  -22.8440 N   0  0  0  0  0  0
    0.1520    2.4860  -24.7690 N   0  0  0  0  0  0
    4.2880    2.8160  -23.5360 N   0  0  0  0  0  0
    6.2940    1.0460  -22.4130 N   0  0  1  0  0  0
   -3.8930    3.8470  -27.9560 O   0  0  0  0  0  0
   -6.2451    3.4721  -21.3693 H   0  0  0  0  0  0
   -6.6582    3.8806  -23.7581 H   0  0  0  0  0  0
    5.3487    3.8869  -21.1418 H   0  0  0  0  0  0
    6.5870    2.8839  -20.2657 H   0  0  0  0  0  0
    6.1779    2.7303  -24.5325 H   0  0  0  0  0  0
    5.8913    4.2284  -23.5889 H   0  0  0  0  0  0
   -5.7915    4.0397  -26.0943 H   0  0  0  0  0  0
    2.0999    1.7566  -24.7189 H   0  0  0  0  0  0
    2.9204    1.2723  -22.8181 H   0  0  0  0  0  0
    4.1618    0.6817  -23.9872 H   0  0  0  0  0  0
    4.6469   -0.0735  -21.6500 H   0  0  0  0  0  0
    7.5407    2.7866  -22.4131 H   0  0  0  0  0  0
    3.8304    2.3922  -20.7357 H   0  0  0  0  0  0
    5.0955    1.3621  -19.8568 H   0  0  0  0  0  0
   -1.6244    3.6050  -26.9085 H   0  0  0  0  0  0
    0.1252    1.9899  -20.8269 H   0  0  0  0  0  0
    6.9247    0.5254  -21.7075 H   0  0  0  0  0  0
   -3.0361    3.7797  -28.3607 H   0  0  0  0  0  0
    5.5550    9.6750  -22.3400 N   0  3  0  0  0  0
    6.4220   10.8300  -22.0340 C   0  0  0  0  0  0
    6.7730    9.7740  -23.1710 C   0  0  0  0  0  0
    5.4900    8.5900  -21.3020 C   0  0  0  0  0  0
    4.9690    7.2600  -21.8760 C   0  0  0  0  0  0
    3.4400    7.2590  -22.0780 C   0  0  0  0  0  0
    4.6871    9.8890  -22.8059 H   0  0  0  0  0  0
    7.0020   10.3760  -21.2170 H   0  0  0  0  0  0
    5.9161   11.5749  -22.6659 H   0  0  0  0  0  0
    6.3347   10.3134  -24.0236 H   0  0  0  0  0  0
    7.4198    9.1142  -22.5742 H   0  0  0  0  0  0
    4.8372    8.9119  -20.4772 H   0  0  0  0  0  0
    6.4899    8.4360  -20.8701 H   0  0  0  0  0  0
    5.2490    6.4361  -21.2031 H   0  0  0  0  0  0
    5.4649    7.0580  -22.8369 H   0  0  0  0  0  0
    3.1620    8.0701  -22.7671 H   0  0  0  0  0  0
    2.9456    7.4952  -21.1242 H   0  0  0  0  0  0
  1  2  2  0  0  0
  1  3  1  0  0  0
  1 34  1  0  0  0
  2  6  1  0  0  0
  2 35  1  0  0  0
  3  5  2  0  0  0
  3 27  1  0  0  0
  4  5  1  0  0  0
  4  6  2  0  0  0
  4 18  1  0  0  0
  5 24  1  0  0  0
  6 10  1  0  0  0
  7 10  2  0  0  0
  7 23  1  0  0  0
  7 33  1  0  0  0
  8 21  1  0  0  0
  8 22  1  0  0  0
  8 36  1  0  0  0
  8 37  1  0  0  0
  9 21  1  0  0  0
  9 31  1  0  0  0
  9 38  1  0  0  0
  9 39  1  0  0  0
 10 40  1  0  0  0
 11 12  1  0  0  0
 11 14  2  0  0  0
 11 15  1  0  0  0
 12 17  1  0  0  0
 12 28  2  0  0  0
 13 28  1  0  0  0
 13 29  2  0  0  0
 13 57  1  0  0  0
 14 29  1  0  0  0
 14 31  1  0  0  0
 15 30  2  0  0  0
 15 41  1  0  0  0
 16 17  2  0  0  0
 16 18  1  0  0  0
 16 30  1  0  0  0
 17 26  1  0  0  0
 18 23  2  0  0  0
 19 20  1  0  0  0
 19 31  1  0  0  0
 19 42  1  0  0  0
 19 43  1  0  0  0
 20 22  1  0  0  0
 20 32  1  0  0  0
 20 44  1  0  0  0
 21 32  1  0  0  0
 21 45  1  0  0  0
 22 46  1  0  0  0
 22 47  1  0  0  0
 23 48  1  0  0  0
 24 25  3  0  0  0
 25 49  1  0  0  0
 32 50  1  0  0  0
 33 51  1  0  0  0
 52 53  1  0  0  0
 52 54  1  0  0  0
 52 55  1  0  0  0
 52 58  1  0  0  0
 53 54  1  0  0  0
 53 59  1  0  0  0
 53 60  1  0  0  0
 54 61  1  0  0  0
 54 62  1  0  0  0
 55 56  1  0  0  0
 55 63  1  0  0  0
 55 64  1  0  0  0
 56 57  1  0  0  0
 56 65  1  0  0  0
 56 66  1  0  0  0
 57 67  1  0  0  0
 57 68  1  0  0  0
M  CHG  1  52   1
M  END
> <s_m_entry_id>
601

> <s_m_entry_name>
000000601.1

> <s_m_Source_Path>
/Users/zaksoul/Documents/2

> <s_m_Source_File>
000000601.mol2

> <i_m_Source_File_Index>
1

$$$$
No_0_625
                    3D
 Schrodinger Suite 2022-4.
 68 74  0  0  1  0            999 V2000
   -5.6120    3.2040  -21.9760 C   0  0  0  0  0  0
   -5.8440    3.4270  -23.3130 C   0  0  0  0  0  0
   -4.3810    2.9540  -21.6080 C   0  0  0  0  0  0
   -3.4330    3.1500  -23.7450 C   0  0  0  0  0  0
   -3.3080    2.8680  -22.3270 C   0  0  0  0  0  0
   -4.7690    3.4120  -24.2950 C   0  0  0  0  0  0
   -3.9550    3.5030  -26.4700 C   0  0  0  0  0  0
    5.6360    2.7240  -20.9630 C   0  0  0  0  0  0
    5.5650    2.9350  -23.5100 C   0  0  0  0  0  0
   -4.9850    3.5740  -25.6330 C   0  0  0  0  0  0
    1.7760    3.4440  -23.6160 C   0  0  0  0  0  0
    0.9350    4.5350  -23.3090 C   0  0  0  0  0  0
    2.7010    5.7300  -22.5480 C   0  0  0  0  0  0
    3.1650    3.6410  -23.2600 C   0  0  0  0  0  0
    1.2600    2.3400  -24.3220 C   0  0  0  0  0  0
   -0.8780    3.1280  -24.2480 C   0  0  0  0  0  0
   -0.3810    4.3370  -23.6010 C   0  0  0  0  0  0
   -2.3210    3.1290  -24.6410 C   0  0  0  0  0  0
    3.7900    1.1420  -23.0200 C   0  0  0  0  0  0
    4.6960    0.7640  -21.8580 C   0  0  2  0  0  0
    6.2860    2.3360  -22.3080 C   0  0  2  0  0  0
    4.6360    1.7330  -20.6650 C   0  0  0  0  0  0
   -2.6090    3.3240  -26.0730 C   0  0  0  0  0  0
   -1.9760    2.4520  -21.7040 C   0  0  0  0  0  0
   -0.9560    2.1010  -21.1800 C   0  0  0  0  0  0
   -1.2440    5.3630  -23.2510 F   0  0  0  0  0  0
   -4.2050    2.6760  -20.2280 F   0  0  0  0  0  0
    1.3850    5.6840  -22.7330 N   0  0  0  0  0  0
    3.6130    4.7830  -22.7700 N   0  0  0  0  0  0
   -0.0360    2.2460  -24.6650 N   0  0  0  0  0  0
    4.0990    2.6070  -23.4400 N   0  0  0  0  0  0
    6.1150    0.8590  -22.3000 N   0  0  1  0  0  0
   -4.0900    3.5540  -27.8630 O   0  0  0  0  0  0
   -6.4341    3.2391  -21.2703 H   0  0  0  0  0  0
   -6.8516    3.6197  -23.6632 H   0  0  0  0  0  0
    5.1572    3.7098  -21.0579 H   0  0  0  0  0  0
    6.4006    2.7210  -20.1722 H   0  0  0  0  0  0
    5.9889    2.5202  -24.4364 H   0  0  0  0  0  0
    5.6962    4.0271  -23.5090 H   0  0  0  0  0  0
   -5.9876    3.7587  -26.0013 H   0  0  0  0  0  0
    1.9156    1.5258  -24.6091 H   0  0  0  0  0  0
    2.7392    1.0653  -22.7040 H   0  0  0  0  0  0
    3.9828    0.4686  -23.8681 H   0  0  0  0  0  0
    4.4740   -0.2603  -21.5240 H   0  0  0  0  0  0
    7.3527    2.6044  -22.3191 H   0  0  0  0  0  0
    3.6463    2.2122  -20.6347 H   0  0  0  0  0  0
    4.9166    1.1970  -19.7464 H   0  0  0  0  0  0
   -1.8188    3.3340  -26.8150 H   0  0  0  0  0  0
   -0.0578    1.7923  -20.7184 H   0  0  0  0  0  0
    6.7491    0.3489  -21.5900 H   0  0  0  0  0  0
   -3.2331    3.4867  -28.2677 H   0  0  0  0  0  0
    5.0180    9.6960  -22.5320 N   0  3  0  0  0  0
    5.8310   10.9100  -22.3230 C   0  0  0  0  0  0
    5.9990    9.9770  -23.6000 C   0  0  0  0  0  0
    5.2850    8.5410  -21.6090 C   0  0  0  0  0  0
    4.7610    7.2060  -22.1720 C   0  0  0  0  0  0
    3.2330    7.0620  -22.0280 C   0  0  0  0  0  0
    4.0513    9.8510  -22.7719 H   0  0  0  0  0  0
    6.6194   10.4628  -21.6997 H   0  0  0  0  0  0
    5.1321   11.6409  -22.7559 H   0  0  0  0  0  0
    5.3326   10.5263  -24.2814 H   0  0  0  0  0  0
    6.8199    9.3481  -23.2250 H   0  0  0  0  0  0
    4.8153    8.7359  -20.6336 H   0  0  0  0  0  0
    6.3667    8.4610  -21.4260 H   0  0  0  0  0  0
    5.2571    6.3708  -21.6559 H   0  0  0  0  0  0
    5.0381    7.1240  -23.2334 H   0  0  0  0  0  0
    2.7360    7.8860  -22.5610 H   0  0  0  0  0  0
    2.9529    7.1790  -20.9707 H   0  0  0  0  0  0
  1  2  2  0  0  0
  1  3  1  0  0  0
  1 34  1  0  0  0
  2  6  1  0  0  0
  2 35  1  0  0  0
  3  5  2  0  0  0
  3 27  1  0  0  0
  4  5  1  0  0  0
  4  6  2  0  0  0
  4 18  1  0  0  0
  5 24  1  0  0  0
  6 10  1  0  0  0
  7 10  2  0  0  0
  7 23  1  0  0  0
  7 33  1  0  0  0
  8 21  1  0  0  0
  8 22  1  0  0  0
  8 36  1  0  0  0
  8 37  1  0  0  0
  9 21  1  0  0  0
  9 31  1  0  0  0
  9 38  1  0  0  0
  9 39  1  0  0  0
 10 40  1  0  0  0
 11 12  1  0  0  0
 11 14  2  0  0  0
 11 15  1  0  0  0
 12 17  1  0  0  0
 12 28  2  0  0  0
 13 28  1  0  0  0
 13 29  2  0  0  0
 13 57  1  0  0  0
 14 29  1  0  0  0
 14 31  1  0  0  0
 15 30  2  0  0  0
 15 41  1  0  0  0
 16 17  2  0  0  0
 16 18  1  0  0  0
 16 30  1  0  0  0
 17 26  1  0  0  0
 18 23  2  0  0  0
 19 20  1  0  0  0
 19 31  1  0  0  0
 19 42  1  0  0  0
 19 43  1  0  0  0
 20 22  1  0  0  0
 20 32  1  0  0  0
 20 44  1  0  0  0
 21 32  1  0  0  0
 21 45  1  0  0  0
 22 46  1  0  0  0
 22 47  1  0  0  0
 23 48  1  0  0  0
 24 25  3  0  0  0
 25 49  1  0  0  0
 32 50  1  0  0  0
 33 51  1  0  0  0
 52 53  1  0  0  0
 52 54  1  0  0  0
 52 55  1  0  0  0
 52 58  1  0  0  0
 53 54  1  0  0  0
 53 59  1  0  0  0
 53 60  1  0  0  0
 54 61  1  0  0  0
 54 62  1  0  0  0
 55 56  1  0  0  0
 55 63  1  0  0  0
 55 64  1  0  0  0
 56 57  1  0  0  0
 56 65  1  0  0  0
 56 66  1  0  0  0
 57 67  1  0  0  0
 57 68  1  0  0  0
M  CHG  1  52   1
M  END
> <s_m_entry_id>
602

> <s_m_entry_name>
000000602.1

> <s_m_Source_Path>
/Users/zaksoul/Documents/2

> <s_m_Source_File>
000000602.mol2

> <i_m_Source_File_Index>
1

$$$$
No_0_626
                    3D
 Schrodinger Suite 2022-4.
 68 74  0  0  1  0            999 V2000
   -5.3710    3.2030  -22.0010 C   0  0  0  0  0  0
   -5.5960    3.4030  -23.3430 C   0  0  0  0  0  0
   -4.1390    2.9730  -21.6220 C   0  0  0  0  0  0
   -3.1780    3.1490  -23.7540 C   0  0  0  0  0  0
   -3.0600    2.8890  -22.3320 C   0  0  0  0  0  0
   -4.5130    3.3880  -24.3170 C   0  0  0  0  0  0
   -3.6850    3.4570  -26.4880 C   0  0  0  0  0  0
    5.8750    2.8720  -20.9050 C   0  0  0  0  0  0
    5.8190    3.0460  -23.4560 C   0  0  0  0  0  0
   -4.7220    3.5280  -25.6590 C   0  0  0  0  0  0
    2.0260    3.5080  -23.5950 C   0  0  0  0  0  0
    1.1700    4.5940  -23.3090 C   0  0  0  0  0  0
    2.9160    5.8210  -22.5530 C   0  0  0  0  0  0
    3.4100    3.7260  -23.2310 C   0  0  0  0  0  0
    1.5280    2.3880  -24.2880 C   0  0  0  0  0  0
   -0.6200    3.1510  -24.2400 C   0  0  0  0  0  0
   -0.1420    4.3750  -23.6070 C   0  0  0  0  0  0
   -2.0600    3.1290  -24.6430 C   0  0  0  0  0  0
    4.0630    1.2390  -22.9510 C   0  0  0  0  0  0
    4.9660    0.8890  -21.7780 C   0  0  2  0  0  0
    6.5400    2.4730  -22.2400 C   0  0  2  0  0  0
    4.8850    1.8740  -20.6000 C   0  0  0  0  0  0
   -2.3410    3.3000  -26.0790 C   0  0  0  0  0  0
   -1.7270    2.4980  -21.6940 C   0  0  0  0  0  0
   -0.7060    2.1670  -21.1580 C   0  0  0  0  0  0
   -1.0190    5.3960  -23.2780 F   0  0  0  0  0  0
   -3.9700    2.7170  -20.2370 F   0  0  0  0  0  0
    1.6020    5.7560  -22.7470 N   0  0  0  0  0  0
    3.8410    4.8820  -22.7550 N   0  0  0  0  0  0
    0.2350    2.2730  -24.6390 N   0  0  0  0  0  0
    4.3580    2.7020  -23.3910 N   0  0  0  0  0  0
    6.3860    0.9950  -22.2120 N   0  0  1  0  0  0
   -3.8110    3.4860  -27.8830 O   0  0  0  0  0  0
   -6.1982    3.2381  -21.3013 H   0  0  0  0  0  0
   -6.6033    3.5797  -23.7025 H   0  0  0  0  0  0
    5.3857    3.8507  -21.0180 H   0  0  0  0  0  0
    6.6349    2.8902  -20.1098 H   0  0  0  0  0  0
    6.2549    2.6232  -24.3732 H   0  0  0  0  0  0
    5.9380    4.1395  -23.4701 H   0  0  0  0  0  0
   -5.7245    3.6946  -26.0363 H   0  0  0  0  0  0
    2.1955    1.5780  -24.5590 H   0  0  0  0  0  0
    3.0107    1.1542  -22.6420 H   0  0  0  0  0  0
    4.2699    0.5567  -23.7887 H   0  0  0  0  0  0
    4.7530   -0.1328  -21.4307 H   0  0  0  0  0  0
    7.6033    2.7547  -22.2481 H   0  0  0  0  0  0
    3.8894    2.3415  -20.5828 H   0  0  0  0  0  0
    5.1664    1.3546  -19.6721 H   0  0  0  0  0  0
   -1.5455    3.3090  -26.8153 H   0  0  0  0  0  0
    0.1925    1.8758  -20.6857 H   0  0  0  0  0  0
    7.0209    0.5023  -21.4905 H   0  0  0  0  0  0
   -2.9506    3.4236  -28.2810 H   0  0  0  0  0  0
    4.7290   10.0370  -22.7130 N   0  3  0  0  0  0
    5.4390   11.3260  -22.5920 C   0  0  0  0  0  0
    5.3520   10.5220  -23.9620 C   0  0  0  0  0  0
    5.3540    8.8580  -22.0200 C   0  0  0  0  0  0
    4.8370    7.5150  -22.5680 C   0  0  0  0  0  0
    3.4280    7.1660  -22.0490 C   0  0  0  0  0  0
    3.7228   10.0850  -22.6760 H   0  0  0  0  0  0
    6.4083   10.9369  -22.2469 H   0  0  0  0  0  0
    4.5778   11.9921  -22.7490 H   0  0  0  0  0  0
    4.4733   11.0318  -24.3839 H   0  0  0  0  0  0
    6.3039    9.9765  -23.8819 H   0  0  0  0  0  0
    5.1470    8.9170  -20.9413 H   0  0  0  0  0  0
    6.4471    8.9040  -22.1340 H   0  0  0  0  0  0
    5.5381    6.7139  -22.2910 H   0  0  0  0  0  0
    4.8240    7.5500  -23.6674 H   0  0  0  0  0  0
    2.7238    7.9582  -22.3431 H   0  0  0  0  0  0
    3.4330    7.1650  -20.9490 H   0  0  0  0  0  0
  1  2  2  0  0  0
  1  3  1  0  0  0
  1 34  1  0  0  0
  2  6  1  0  0  0
  2 35  1  0  0  0
  3  5  2  0  0  0
  3 27  1  0  0  0
  4  5  1  0  0  0
  4  6  2  0  0  0
  4 18  1  0  0  0
  5 24  1  0  0  0
  6 10  1  0  0  0
  7 10  2  0  0  0
  7 23  1  0  0  0
  7 33  1  0  0  0
  8 21  1  0  0  0
  8 22  1  0  0  0
  8 36  1  0  0  0
  8 37  1  0  0  0
  9 21  1  0  0  0
  9 31  1  0  0  0
  9 38  1  0  0  0
  9 39  1  0  0  0
 10 40  1  0  0  0
 11 12  1  0  0  0
 11 14  2  0  0  0
 11 15  1  0  0  0
 12 17  1  0  0  0
 12 28  2  0  0  0
 13 28  1  0  0  0
 13 29  2  0  0  0
 13 57  1  0  0  0
 14 29  1  0  0  0
 14 31  1  0  0  0
 15 30  2  0  0  0
 15 41  1  0  0  0
 16 17  2  0  0  0
 16 18  1  0  0  0
 16 30  1  0  0  0
 17 26  1  0  0  0
 18 23  2  0  0  0
 19 20  1  0  0  0
 19 31  1  0  0  0
 19 42  1  0  0  0
 19 43  1  0  0  0
 20 22  1  0  0  0
 20 32  1  0  0  0
 20 44  1  0  0  0
 21 32  1  0  0  0
 21 45  1  0  0  0
 22 46  1  0  0  0
 22 47  1  0  0  0
 23 48  1  0  0  0
 24 25  3  0  0  0
 25 49  1  0  0  0
 32 50  1  0  0  0
 33 51  1  0  0  0
 52 53  1  0  0  0
 52 54  1  0  0  0
 52 55  1  0  0  0
 52 58  1  0  0  0
 53 54  1  0  0  0
 53 59  1  0  0  0
 53 60  1  0  0  0
 54 61  1  0  0  0
 54 62  1  0  0  0
 55 56  1  0  0  0
 55 63  1  0  0  0
 55 64  1  0  0  0
 56 57  1  0  0  0
 56 65  1  0  0  0
 56 66  1  0  0  0
 57 67  1  0  0  0
 57 68  1  0  0  0
M  CHG  1  52   1
M  END
> <s_m_entry_id>
603

> <s_m_entry_name>
000000603.1

> <s_m_Source_Path>
/Users/zaksoul/Documents/2

> <s_m_Source_File>
000000603.mol2

> <i_m_Source_File_Index>
1

$$$$
No_0_627
                    3D
 Schrodinger Suite 2022-4.
 68 74  0  0  1  0            999 V2000
   -5.5460    3.4110  -22.0410 C   0  0  0  0  0  0
   -5.7700    3.6560  -23.3750 C   0  0  0  0  0  0
   -4.3150    3.1620  -21.6700 C   0  0  0  0  0  0
   -3.3540    3.4000  -23.7960 C   0  0  0  0  0  0
   -3.2370    3.0940  -22.3830 C   0  0  0  0  0  0
   -4.6880    3.6650  -24.3500 C   0  0  0  0  0  0
   -3.8600    3.7970  -26.5180 C   0  0  0  0  0  0
    5.6980    2.9760  -20.9620 C   0  0  0  0  0  0
    5.6430    3.2310  -23.5050 C   0  0  0  0  0  0
   -4.8970    3.8480  -25.6870 C   0  0  0  0  0  0
    1.8520    3.7210  -23.6280 C   0  0  0  0  0  0
    1.0030    4.8020  -23.3080 C   0  0  0  0  0  0
    2.7570    5.9930  -22.5140 C   0  0  0  0  0  0
    3.2380    3.9190  -23.2590 C   0  0  0  0  0  0
    1.3470    2.6260  -24.3560 C   0  0  0  0  0  0
   -0.7960    3.4010  -24.2820 C   0  0  0  0  0  0
   -0.3100    4.6010  -23.6120 C   0  0  0  0  0  0
   -2.2360    3.4010  -24.6850 C   0  0  0  0  0  0
    3.8750    1.4200  -23.0580 C   0  0  0  0  0  0
    4.7760    1.0270  -21.8970 C   0  0  2  0  0  0
    6.3600    2.6140  -22.3090 C   0  0  2  0  0  0
    4.7020    1.9740  -20.6880 C   0  0  0  0  0  0
   -2.5170    3.6190  -26.1150 C   0  0  0  0  0  0
   -1.9070    2.6750  -21.7580 C   0  0  0  0  0  0
   -0.8880    2.3200  -21.2330 C   0  0  0  0  0  0
   -1.1810    5.6160  -23.2500 F   0  0  0  0  0  0
   -4.1470    2.8610  -20.2930 F   0  0  0  0  0  0
    1.4420    5.9430  -22.7090 N   0  0  0  0  0  0
    3.6760    5.0550  -22.7460 N   0  0  0  0  0  0
    0.0530    2.5300  -24.7090 N   0  0  0  0  0  0
    4.1790    2.8940  -23.4510 N   0  0  0  0  0  0
    6.1970    1.1370  -22.3270 N   0  0  1  0  0  0
   -3.9870    3.8720  -27.9110 O   0  0  0  0  0  0
   -6.3726    3.4291  -21.3400 H   0  0  0  0  0  0
   -6.7762    3.8498  -23.7285 H   0  0  0  0  0  0
    5.2143    3.9606  -21.0428 H   0  0  0  0  0  0
    6.4574    2.9629  -20.1663 H   0  0  0  0  0  0
    6.0750    2.8343  -24.4356 H   0  0  0  0  0  0
    5.7682    4.3237  -23.4848 H   0  0  0  0  0  0
   -5.8982    4.0338  -26.0586 H   0  0  0  0  0  0
    2.0094    1.8210  -24.6531 H   0  0  0  0  0  0
    2.8227    1.3312  -22.7503 H   0  0  0  0  0  0
    4.0768    0.7630  -23.9168 H   0  0  0  0  0  0
    4.5571   -0.0040  -21.5822 H   0  0  0  0  0  0
    7.4249    2.8896  -22.3080 H   0  0  0  0  0  0
    3.7096    2.4475  -20.6557 H   0  0  0  0  0  0
    4.9795    1.4240  -19.7767 H   0  0  0  0  0  0
   -1.7222    3.6461  -26.8516 H   0  0  0  0  0  0
    0.0089    2.0080  -20.7711 H   0  0  0  0  0  0
    6.8294    0.6181  -21.6219 H   0  0  0  0  0  0
   -3.1271    3.8156  -28.3108 H   0  0  0  0  0  0
    4.2710   10.3290  -22.5400 N   0  3  0  0  0  0
    4.9170   11.6500  -22.4100 C   0  0  0  0  0  0
    4.6220   10.9770  -23.8210 C   0  0  0  0  0  0
    5.0780    9.1400  -22.1010 C   0  0  0  0  0  0
    4.5450    7.8200  -22.6900 C   0  0  0  0  0  0
    3.2780    7.3180  -21.9680 C   0  0  0  0  0  0
    3.2880   10.2980  -22.3190 H   0  0  0  0  0  0
    5.9537   11.3031  -22.2880 H   0  0  0  0  0  0
    4.0059   12.2621  -22.3370 H   0  0  0  0  0  0
    3.6529   11.4570  -24.0220 H   0  0  0  0  0  0
    5.6011   10.4989  -23.9720 H   0  0  0  0  0  0
    5.0720    9.0790  -21.0027 H   0  0  0  0  0  0
    6.1266    9.2781  -22.4032 H   0  0  0  0  0  0
    5.3282    7.0498  -22.6310 H   0  0  0  0  0  0
    4.3250    7.9590  -23.7588 H   0  0  0  0  0  0
    2.4882    8.0798  -22.0440 H   0  0  0  0  0  0
    3.4870    7.2130  -20.8931 H   0  0  0  0  0  0
  1  2  2  0  0  0
  1  3  1  0  0  0
  1 34  1  0  0  0
  2  6  1  0  0  0
  2 35  1  0  0  0
  3  5  2  0  0  0
  3 27  1  0  0  0
  4  5  1  0  0  0
  4  6  2  0  0  0
  4 18  1  0  0  0
  5 24  1  0  0  0
  6 10  1  0  0  0
  7 10  2  0  0  0
  7 23  1  0  0  0
  7 33  1  0  0  0
  8 21  1  0  0  0
  8 22  1  0  0  0
  8 36  1  0  0  0
  8 37  1  0  0  0
  9 21  1  0  0  0
  9 31  1  0  0  0
  9 38  1  0  0  0
  9 39  1  0  0  0
 10 40  1  0  0  0
 11 12  1  0  0  0
 11 14  2  0  0  0
 11 15  1  0  0  0
 12 17  1  0  0  0
 12 28  2  0  0  0
 13 28  1  0  0  0
 13 29  2  0  0  0
 13 57  1  0  0  0
 14 29  1  0  0  0
 14 31  1  0  0  0
 15 30  2  0  0  0
 15 41  1  0  0  0
 16 17  2  0  0  0
 16 18  1  0  0  0
 16 30  1  0  0  0
 17 26  1  0  0  0
 18 23  2  0  0  0
 19 20  1  0  0  0
 19 31  1  0  0  0
 19 42  1  0  0  0
 19 43  1  0  0  0
 20 22  1  0  0  0
 20 32  1  0  0  0
 20 44  1  0  0  0
 21 32  1  0  0  0
 21 45  1  0  0  0
 22 46  1  0  0  0
 22 47  1  0  0  0
 23 48  1  0  0  0
 24 25  3  0  0  0
 25 49  1  0  0  0
 32 50  1  0  0  0
 33 51  1  0  0  0
 52 53  1  0  0  0
 52 54  1  0  0  0
 52 55  1  0  0  0
 52 58  1  0  0  0
 53 54  1  0  0  0
 53 59  1  0  0  0
 53 60  1  0  0  0
 54 61  1  0  0  0
 54 62  1  0  0  0
 55 56  1  0  0  0
 55 63  1  0  0  0
 55 64  1  0  0  0
 56 57  1  0  0  0
 56 65  1  0  0  0
 56 66  1  0  0  0
 57 67  1  0  0  0
 57 68  1  0  0  0
M  CHG  1  52   1
M  END
> <s_m_entry_id>
604

> <s_m_entry_name>
000000604.1

> <s_m_Source_Path>
/Users/zaksoul/Documents/2

> <s_m_Source_File>
000000604.mol2

> <i_m_Source_File_Index>
1

$$$$
No_0_628
                    3D
 Schrodinger Suite 2022-4.
 54 59  0  0  1  0            999 V2000
   -5.2590    3.2880  -22.1100 C   0  0  0  0  0  0
   -5.5220    3.4820  -23.4460 C   0  0  0  0  0  0
   -4.0240    3.0190  -21.7690 C   0  0  0  0  0  0
   -3.1300    3.1390  -23.9340 C   0  0  0  0  0  0
   -2.9730    2.8900  -22.5140 C   0  0  0  0  0  0
   -4.4740    3.4190  -24.4550 C   0  0  0  0  0  0
   -3.7180    3.4360  -26.6530 C   0  0  0  0  0  0
    5.9990    2.5740  -21.3840 C   0  0  0  0  0  0
    5.8640    2.7230  -23.9330 C   0  0  0  0  0  0
   -4.7230    3.5520  -25.7910 C   0  0  0  0  0  0
    2.0860    3.3170  -23.9510 C   0  0  0  0  0  0
    1.2780    4.4340  -23.6500 C   0  0  0  0  0  0
    3.0900    5.6070  -22.9670 C   0  0  0  0  0  0
    3.4880    3.4900  -23.6370 C   0  0  0  0  0  0
    1.5260    2.2070  -24.6150 C   0  0  0  0  0  0
   -0.5910    3.0460  -24.5040 C   0  0  0  0  0  0
   -0.0500    4.2590  -23.9020 C   0  0  0  0  0  0
   -2.0440    3.0700  -24.8590 C   0  0  0  0  0  0
    4.0640    0.9840  -23.3500 C   0  0  0  0  0  0
    4.9920    0.6150  -22.2040 C   0  0  2  0  0  0
    6.6040    2.1370  -22.7360 C   0  0  2  0  0  0
    4.9860    1.6140  -21.0350 C   0  0  0  0  0  0
   -2.3660    3.2370  -26.2870 C   0  0  0  0  0  0
   -1.6340    2.4590  -21.9160 C   0  0  0  0  0  0
   -0.6080    2.0980  -21.4100 C   0  0  0  0  0  0
   -0.8790    5.3130  -23.5560 F   0  0  0  0  0  0
   -3.8170    2.7710  -20.3880 F   0  0  0  0  0  0
    1.7690    5.5860  -23.1160 N   0  0  0  0  0  0
    3.9750    4.6340  -23.1890 N   0  0  0  0  0  0
    0.2190    2.1340  -24.9210 N   0  0  0  0  0  0
    4.3940    2.4310  -23.8160 N   0  0  0  0  0  0
    6.4000    0.6660  -22.6850 N   0  0  1  0  0  0
   -3.8890    3.4560  -28.0430 O   0  0  0  0  0  0
   -6.0606    3.3593  -21.3838 H   0  0  0  0  0  0
   -6.5340    3.6898  -23.7743 H   0  0  0  0  0  0
    5.5404    3.5680  -21.4921 H   0  0  0  0  0  0
    6.7848    2.5730  -20.6143 H   0  0  0  0  0  0
    6.2536    2.2759  -24.8595 H   0  0  0  0  0  0
    6.0194    3.8115  -23.9643 H   0  0  0  0  0  0
   -5.7310    3.7498  -26.1374 H   0  0  0  0  0  0
    2.1556    1.3716  -24.8992 H   0  0  0  0  0  0
    3.0204    0.9396  -23.0052 H   0  0  0  0  0  0
    4.2173    0.2860  -24.1862 H   0  0  0  0  0  0
    4.7559   -0.3950  -21.8377 H   0  0  0  0  0  0
    7.6756    2.3812  -22.7824 H   0  0  0  0  0  0
    4.0084    2.1164  -20.9906 H   0  0  0  0  0  0
    5.2796    1.0945  -20.1109 H   0  0  0  0  0  0
   -1.5962    3.2099  -27.0497 H   0  0  0  0  0  0
    0.2952    1.7799  -20.9649 H   0  0  0  0  0  0
    7.0415    0.1592  -21.9793 H   0  0  0  0  0  0
   -3.0454    3.3580  -28.4688 H   0  0  0  0  0  0
    4.6680    6.9040  -21.7680 O   0  0  0  0  0  0
    3.6600    6.9250  -22.5000 C   0  0  0  0  0  0
    3.1820    8.0060  -22.9090 O   0  5  0  0  0  0
  1  2  2  0  0  0
  1  3  1  0  0  0
  1 34  1  0  0  0
  2  6  1  0  0  0
  2 35  1  0  0  0
  3  5  2  0  0  0
  3 27  1  0  0  0
  4  5  1  0  0  0
  4  6  2  0  0  0
  4 18  1  0  0  0
  5 24  1  0  0  0
  6 10  1  0  0  0
  7 10  2  0  0  0
  7 23  1  0  0  0
  7 33  1  0  0  0
  8 21  1  0  0  0
  8 22  1  0  0  0
  8 36  1  0  0  0
  8 37  1  0  0  0
  9 21  1  0  0  0
  9 31  1  0  0  0
  9 38  1  0  0  0
  9 39  1  0  0  0
 10 40  1  0  0  0
 11 12  1  0  0  0
 11 14  2  0  0  0
 11 15  1  0  0  0
 12 17  1  0  0  0
 12 28  2  0  0  0
 13 28  1  0  0  0
 13 29  2  0  0  0
 13 53  1  0  0  0
 14 29  1  0  0  0
 14 31  1  0  0  0
 15 30  2  0  0  0
 15 41  1  0  0  0
 16 17  2  0  0  0
 16 18  1  0  0  0
 16 30  1  0  0  0
 17 26  1  0  0  0
 18 23  2  0  0  0
 19 20  1  0  0  0
 19 31  1  0  0  0
 19 42  1  0  0  0
 19 43  1  0  0  0
 20 22  1  0  0  0
 20 32  1  0  0  0
 20 44  1  0  0  0
 21 32  1  0  0  0
 21 45  1  0  0  0
 22 46  1  0  0  0
 22 47  1  0  0  0
 23 48  1  0  0  0
 24 25  3  0  0  0
 25 49  1  0  0  0
 32 50  1  0  0  0
 33 51  1  0  0  0
 52 53  2  0  0  0
 53 54  1  0  0  0
M  CHG  1  54  -1
M  END
> <s_m_entry_id>
605

> <s_m_entry_name>
000000605.1

> <s_m_Source_Path>
/Users/zaksoul/Documents/2

> <s_m_Source_File>
000000605.mol2

> <i_m_Source_File_Index>
1

$$$$
No_0_629
                    3D
 Schrodinger Suite 2022-4.
 59 64  0  0  1  0            999 V2000
   -5.3320    3.5620  -22.0560 C   0  0  0  0  0  0
   -5.5860    3.7110  -23.3990 C   0  0  0  0  0  0
   -4.0980    3.3150  -21.6960 C   0  0  0  0  0  0
   -3.1870    3.3710  -23.8560 C   0  0  0  0  0  0
   -3.0400    3.1700  -22.4280 C   0  0  0  0  0  0
   -4.5290    3.6230  -24.3970 C   0  0  0  0  0  0
   -3.7540    3.5740  -26.5880 C   0  0  0  0  0  0
    5.9250    2.9670  -21.2150 C   0  0  0  0  0  0
    5.8100    3.0310  -23.7690 C   0  0  0  0  0  0
   -4.7680    3.7100  -25.7380 C   0  0  0  0  0  0
    2.0270    3.5920  -23.8370 C   0  0  0  0  0  0
    1.2080    4.7120  -23.5800 C   0  0  0  0  0  0
    3.0050    5.9220  -22.9210 C   0  0  0  0  0  0
    3.4260    3.7870  -23.5180 C   0  0  0  0  0  0
    1.4830    2.4570  -24.4690 C   0  0  0  0  0  0
   -0.6420    3.2810  -24.4030 C   0  0  0  0  0  0
   -0.1160    4.5170  -23.8370 C   0  0  0  0  0  0
   -2.0920    3.2820  -24.7700 C   0  0  0  0  0  0
    4.0190    1.2970  -23.1440 C   0  0  0  0  0  0
    4.9410    0.9740  -21.9780 C   0  0  2  0  0  0
    6.5450    2.4910  -22.5480 C   0  0  2  0  0  0
    4.9170    2.0110  -20.8430 C   0  0  0  0  0  0
   -2.4040    3.3980  -26.2050 C   0  0  0  0  0  0
   -1.7020    2.7710  -21.8050 C   0  0  0  0  0  0
   -0.6780    2.4350  -21.2790 C   0  0  0  0  0  0
   -0.9570    5.5760  -23.5320 F   0  0  0  0  0  0
   -3.9010    3.1150  -20.3050 F   0  0  0  0  0  0
    1.6850    5.8850  -23.0800 N   0  0  0  0  0  0
    3.8990    4.9500  -23.1030 N   0  0  0  0  0  0
    0.1790    2.3630  -24.7830 N   0  0  0  0  0  0
    4.3410    2.7310  -23.6540 N   0  0  0  0  0  0
    6.3520    1.0210  -22.4500 N   0  0  1  0  0  0
   -3.9140    3.5470  -27.9790 O   0  0  0  0  0  0
   -6.1398    3.6503  -21.3385 H   0  0  0  0  0  0
   -6.5969    3.8987  -23.7423 H   0  0  0  0  0  0
    5.4588    3.9528  -21.3593 H   0  0  0  0  0  0
    6.7045    2.9983  -20.4395 H   0  0  0  0  0  0
    6.2106    2.5568  -24.6771 H   0  0  0  0  0  0
    5.9574    4.1191  -23.8346 H   0  0  0  0  0  0
   -5.7743    3.8878  -26.0996 H   0  0  0  0  0  0
    2.1215    1.6177  -24.7200 H   0  0  0  0  0  0
    2.9730    1.2556  -22.8061 H   0  0  0  0  0  0
    4.1857    0.5728  -23.9550 H   0  0  0  0  0  0
    4.7100   -0.0257  -21.5815 H   0  0  0  0  0  0
    7.6148    2.7433  -22.5924 H   0  0  0  0  0  0
    3.9347    2.5057  -20.8228 H   0  0  0  0  0  0
    5.2065    1.5247  -19.8997 H   0  0  0  0  0  0
   -1.6277    3.3518  -26.9602 H   0  0  0  0  0  0
    0.2241    2.1393  -20.8165 H   0  0  0  0  0  0
    6.9915    0.5430  -21.7228 H   0  0  0  0  0  0
   -3.0662    3.4421  -28.3945 H   0  0  0  0  0  0
    4.3980    8.5430  -20.6780 C   0  0  0  0  0  0
    3.8730    7.2980  -21.1030 O   0  0  0  0  0  0
    3.5650    7.2730  -22.4890 C   0  0  0  0  0  0
    4.6161    8.5020  -19.6006 H   0  0  0  0  0  0
    5.3243    8.7588  -21.2306 H   0  0  0  0  0  0
    3.6631    9.3379  -20.8730 H   0  0  0  0  0  0
    4.4725    7.4949  -23.0697 H   0  0  0  0  0  0
    2.8335    8.0625  -22.7161 H   0  0  0  0  0  0
  1  2  2  0  0  0
  1  3  1  0  0  0
  1 34  1  0  0  0
  2  6  1  0  0  0
  2 35  1  0  0  0
  3  5  2  0  0  0
  3 27  1  0  0  0
  4  5  1  0  0  0
  4  6  2  0  0  0
  4 18  1  0  0  0
  5 24  1  0  0  0
  6 10  1  0  0  0
  7 10  2  0  0  0
  7 23  1  0  0  0
  7 33  1  0  0  0
  8 21  1  0  0  0
  8 22  1  0  0  0
  8 36  1  0  0  0
  8 37  1  0  0  0
  9 21  1  0  0  0
  9 31  1  0  0  0
  9 38  1  0  0  0
  9 39  1  0  0  0
 10 40  1  0  0  0
 11 12  1  0  0  0
 11 14  2  0  0  0
 11 15  1  0  0  0
 12 17  1  0  0  0
 12 28  2  0  0  0
 13 28  1  0  0  0
 13 29  2  0  0  0
 13 54  1  0  0  0
 14 29  1  0  0  0
 14 31  1  0  0  0
 15 30  2  0  0  0
 15 41  1  0  0  0
 16 17  2  0  0  0
 16 18  1  0  0  0
 16 30  1  0  0  0
 17 26  1  0  0  0
 18 23  2  0  0  0
 19 20  1  0  0  0
 19 31  1  0  0  0
 19 42  1  0  0  0
 19 43  1  0  0  0
 20 22  1  0  0  0
 20 32  1  0  0  0
 20 44  1  0  0  0
 21 32  1  0  0  0
 21 45  1  0  0  0
 22 46  1  0  0  0
 22 47  1  0  0  0
 23 48  1  0  0  0
 24 25  3  0  0  0
 25 49  1  0  0  0
 32 50  1  0  0  0
 33 51  1  0  0  0
 52 53  1  0  0  0
 52 55  1  0  0  0
 52 56  1  0  0  0
 52 57  1  0  0  0
 53 54  1  0  0  0
 54 58  1  0  0  0
 54 59  1  0  0  0
M  END
> <s_m_entry_id>
606

> <s_m_entry_name>
000000606.1

> <s_m_Source_Path>
/Users/zaksoul/Documents/2

> <s_m_Source_File>
000000606.mol2

> <i_m_Source_File_Index>
1

$$$$
No_0_630
                    3D
 Schrodinger Suite 2022-4.
 59 64  0  0  1  0            999 V2000
   -5.4150    3.4400  -21.9510 C   0  0  0  0  0  0
   -5.6680    3.6580  -23.2850 C   0  0  0  0  0  0
   -4.1820    3.1660  -21.6060 C   0  0  0  0  0  0
   -3.2730    3.3240  -23.7630 C   0  0  0  0  0  0
   -3.1260    3.0490  -22.3460 C   0  0  0  0  0  0
   -4.6130    3.6130  -24.2880 C   0  0  0  0  0  0
   -3.8420    3.6680  -26.4800 C   0  0  0  0  0  0
    5.8380    2.7140  -21.1590 C   0  0  0  0  0  0
    5.7210    2.9080  -23.7060 C   0  0  0  0  0  0
   -4.8530    3.7690  -25.6230 C   0  0  0  0  0  0
    1.9430    3.5010  -23.7400 C   0  0  0  0  0  0
    1.1330    4.6140  -23.4250 C   0  0  0  0  0  0
    2.9400    5.7740  -22.7090 C   0  0  0  0  0  0
    3.3430    3.6690  -23.4130 C   0  0  0  0  0  0
    1.3880    2.4040  -24.4270 C   0  0  0  0  0  0
   -0.7300    3.2410  -24.3160 C   0  0  0  0  0  0
   -0.1930    4.4430  -23.6890 C   0  0  0  0  0  0
   -2.1800    3.2710  -24.6810 C   0  0  0  0  0  0
    3.9170    1.1590  -23.1660 C   0  0  0  0  0  0
    4.8370    0.7700  -22.0200 C   0  0  2  0  0  0
    6.4520    2.3010  -22.5140 C   0  0  2  0  0  0
    4.8230    1.7480  -20.8330 C   0  0  0  0  0  0
   -2.4930    3.4630  -26.1080 C   0  0  0  0  0  0
   -1.7910    2.6080  -21.7460 C   0  0  0  0  0  0
   -0.7690    2.2380  -21.2390 C   0  0  0  0  0  0
   -1.0250    5.4910  -23.3310 F   0  0  0  0  0  0
   -3.9850    2.8930  -20.2280 F   0  0  0  0  0  0
    1.6200    5.7560  -22.8670 N   0  0  0  0  0  0
    3.8270    4.8050  -22.9410 N   0  0  0  0  0  0
    0.0830    2.3360  -24.7440 N   0  0  0  0  0  0
    4.2500    2.6140  -23.6040 N   0  0  0  0  0  0
    6.2480    0.8290  -22.4910 N   0  0  1  0  0  0
   -4.0040    3.7120  -27.8700 O   0  0  0  0  0  0
   -6.2214    3.4982  -21.2289 H   0  0  0  0  0  0
   -6.6778    3.8718  -23.6162 H   0  0  0  0  0  0
    5.3796    3.7095  -21.2529 H   0  0  0  0  0  0
    6.6188    2.6999  -20.3843 H   0  0  0  0  0  0
    6.1166    2.4771  -24.6375 H   0  0  0  0  0  0
    5.8764    3.9969  -23.7161 H   0  0  0  0  0  0
   -5.8587    3.9728  -25.9723 H   0  0  0  0  0  0
    2.0191    1.5732  -24.7210 H   0  0  0  0  0  0
    2.8711    1.1086  -22.8291 H   0  0  0  0  0  0
    4.0765    0.4755  -24.0130 H   0  0  0  0  0  0
    4.5990   -0.2464  -21.6731 H   0  0  0  0  0  0
    7.5238    2.5460  -22.5483 H   0  0  0  0  0  0
    3.8451    2.2496  -20.7876 H   0  0  0  0  0  0
    5.1097    1.2119  -19.9163 H   0  0  0  0  0  0
   -1.7181    3.4489  -26.8659 H   0  0  0  0  0  0
    0.1319    1.9130  -20.7941 H   0  0  0  0  0  0
    6.8841    0.3094  -21.7897 H   0  0  0  0  0  0
   -3.1572    3.6230  -28.2914 H   0  0  0  0  0  0
    4.9080    8.1310  -20.6070 C   0  0  0  0  0  0
    4.3620    6.9150  -21.0870 O   0  0  0  0  0  0
    3.5120    7.0970  -22.2100 C   0  0  0  0  0  0
    5.5537    7.9261  -19.7404 H   0  0  0  0  0  0
    5.5012    8.6061  -21.4022 H   0  0  0  0  0  0
    4.0929    8.8051  -20.3050 H   0  0  0  0  0  0
    4.0760    7.5810  -23.0210 H   0  0  0  0  0  0
    2.6872    7.7729  -21.9401 H   0  0  0  0  0  0
  1  2  2  0  0  0
  1  3  1  0  0  0
  1 34  1  0  0  0
  2  6  1  0  0  0
  2 35  1  0  0  0
  3  5  2  0  0  0
  3 27  1  0  0  0
  4  5  1  0  0  0
  4  6  2  0  0  0
  4 18  1  0  0  0
  5 24  1  0  0  0
  6 10  1  0  0  0
  7 10  2  0  0  0
  7 23  1  0  0  0
  7 33  1  0  0  0
  8 21  1  0  0  0
  8 22  1  0  0  0
  8 36  1  0  0  0
  8 37  1  0  0  0
  9 21  1  0  0  0
  9 31  1  0  0  0
  9 38  1  0  0  0
  9 39  1  0  0  0
 10 40  1  0  0  0
 11 12  1  0  0  0
 11 14  2  0  0  0
 11 15  1  0  0  0
 12 17  1  0  0  0
 12 28  2  0  0  0
 13 28  1  0  0  0
 13 29  2  0  0  0
 13 54  1  0  0  0
 14 29  1  0  0  0
 14 31  1  0  0  0
 15 30  2  0  0  0
 15 41  1  0  0  0
 16 17  2  0  0  0
 16 18  1  0  0  0
 16 30  1  0  0  0
 17 26  1  0  0  0
 18 23  2  0  0  0
 19 20  1  0  0  0
 19 31  1  0  0  0
 19 42  1  0  0  0
 19 43  1  0  0  0
 20 22  1  0  0  0
 20 32  1  0  0  0
 20 44  1  0  0  0
 21 32  1  0  0  0
 21 45  1  0  0  0
 22 46  1  0  0  0
 22 47  1  0  0  0
 23 48  1  0  0  0
 24 25  3  0  0  0
 25 49  1  0  0  0
 32 50  1  0  0  0
 33 51  1  0  0  0
 52 53  1  0  0  0
 52 55  1  0  0  0
 52 56  1  0  0  0
 52 57  1  0  0  0
 53 54  1  0  0  0
 54 58  1  0  0  0
 54 59  1  0  0  0
M  END
> <s_m_entry_id>
607

> <s_m_entry_name>
000000607.1

> <s_m_Source_Path>
/Users/zaksoul/Documents/2

> <s_m_Source_File>
000000607.mol2

> <i_m_Source_File_Index>
1

$$$$
No_0_631
                    3D
 Schrodinger Suite 2022-4.
 59 64  0  0  1  0            999 V2000
   -5.3880    3.3960  -22.3220 C   0  0  0  0  0  0
   -5.6040    3.6030  -23.6640 C   0  0  0  0  0  0
   -4.1620    3.1450  -21.9370 C   0  0  0  0  0  0
   -3.1890    3.3090  -24.0640 C   0  0  0  0  0  0
   -3.0810    3.0440  -22.6430 C   0  0  0  0  0  0
   -4.5170    3.5710  -24.6330 C   0  0  0  0  0  0
   -3.6780    3.6300  -26.8000 C   0  0  0  0  0  0
    5.8460    2.8750  -21.1740 C   0  0  0  0  0  0
    5.8040    3.0540  -23.7240 C   0  0  0  0  0  0
   -4.7170    3.7170  -25.9760 C   0  0  0  0  0  0
    2.0200    3.5800  -23.8800 C   0  0  0  0  0  0
    1.1810    4.6790  -23.5970 C   0  0  0  0  0  0
    2.9440    5.8750  -22.8300 C   0  0  0  0  0  0
    3.4060    3.7740  -23.5100 C   0  0  0  0  0  0
    1.5070    2.4700  -24.5780 C   0  0  0  0  0  0
   -0.6290    3.2690  -24.5380 C   0  0  0  0  0  0
   -0.1330    4.4830  -23.9010 C   0  0  0  0  0  0
   -2.0670    3.2710  -24.9480 C   0  0  0  0  0  0
    4.0160    1.2760  -23.2310 C   0  0  0  0  0  0
    4.9070    0.9090  -22.0550 C   0  0  2  0  0  0
    6.5090    2.4670  -22.5070 C   0  0  2  0  0  0
    4.8370    1.8930  -20.8750 C   0  0  0  0  0  0
   -2.3380    3.4500  -26.3850 C   0  0  0  0  0  0
   -1.7590    2.6300  -21.9990 C   0  0  0  0  0  0
   -0.7460    2.2810  -21.4580 C   0  0  0  0  0  0
   -0.9940    5.5180  -23.5740 F   0  0  0  0  0  0
   -4.0040    2.8830  -20.5510 F   0  0  0  0  0  0
    1.6290    5.8330  -23.0300 N   0  0  0  0  0  0
    3.8540    4.9210  -23.0300 N   0  0  0  0  0  0
    0.2140    2.3770  -24.9350 N   0  0  0  0  0  0
    4.3370    2.7350  -23.6670 N   0  0  0  0  0  0
    6.3310    0.9910  -22.4810 N   0  0  1  0  0  0
   -3.7970    3.6640  -28.1950 O   0  0  0  0  0  0
   -6.2176    3.4431  -21.6258 H   0  0  0  0  0  0
   -6.6063    3.7968  -24.0286 H   0  0  0  0  0  0
    5.3729    3.8616  -21.2870 H   0  0  0  0  0  0
    6.6013    2.8780  -20.3743 H   0  0  0  0  0  0
    6.2369    2.6261  -24.6403 H   0  0  0  0  0  0
    5.9412    4.1453  -23.7361 H   0  0  0  0  0  0
   -5.7149    3.9007  -26.3575 H   0  0  0  0  0  0
    2.1615    1.6488  -24.8470 H   0  0  0  0  0  0
    2.9609    1.2084  -22.9274 H   0  0  0  0  0  0
    4.2149    0.5916  -24.0689 H   0  0  0  0  0  0
    4.6751   -0.1095  -21.7101 H   0  0  0  0  0  0
    7.5770    2.7305  -22.5080 H   0  0  0  0  0  0
    3.8492    2.3768  -20.8619 H   0  0  0  0  0  0
    5.1054    1.3673  -19.9468 H   0  0  0  0  0  0
   -1.5391    3.4460  -27.1177 H   0  0  0  0  0  0
    0.1456    1.9738  -20.9827 H   0  0  0  0  0  0
    6.9541    0.4867  -21.7572 H   0  0  0  0  0  0
   -2.9360    3.5868  -28.5889 H   0  0  0  0  0  0
    5.3140    8.3220  -21.3340 C   0  0  0  0  0  0
    4.7960    7.0930  -21.8110 O   0  0  0  0  0  0
    3.4760    7.2110  -22.3210 C   0  0  0  0  0  0
    6.3343    8.1680  -20.9529 H   0  0  0  0  0  0
    5.3360    9.0539  -22.1549 H   0  0  0  0  0  0
    4.6734    8.6998  -20.5235 H   0  0  0  0  0  0
    3.4640    7.9451  -23.1401 H   0  0  0  0  0  0
    2.8108    7.5931  -21.5327 H   0  0  0  0  0  0
  1  2  2  0  0  0
  1  3  1  0  0  0
  1 34  1  0  0  0
  2  6  1  0  0  0
  2 35  1  0  0  0
  3  5  2  0  0  0
  3 27  1  0  0  0
  4  5  1  0  0  0
  4  6  2  0  0  0
  4 18  1  0  0  0
  5 24  1  0  0  0
  6 10  1  0  0  0
  7 10  2  0  0  0
  7 23  1  0  0  0
  7 33  1  0  0  0
  8 21  1  0  0  0
  8 22  1  0  0  0
  8 36  1  0  0  0
  8 37  1  0  0  0
  9 21  1  0  0  0
  9 31  1  0  0  0
  9 38  1  0  0  0
  9 39  1  0  0  0
 10 40  1  0  0  0
 11 12  1  0  0  0
 11 14  2  0  0  0
 11 15  1  0  0  0
 12 17  1  0  0  0
 12 28  2  0  0  0
 13 28  1  0  0  0
 13 29  2  0  0  0
 13 54  1  0  0  0
 14 29  1  0  0  0
 14 31  1  0  0  0
 15 30  2  0  0  0
 15 41  1  0  0  0
 16 17  2  0  0  0
 16 18  1  0  0  0
 16 30  1  0  0  0
 17 26  1  0  0  0
 18 23  2  0  0  0
 19 20  1  0  0  0
 19 31  1  0  0  0
 19 42  1  0  0  0
 19 43  1  0  0  0
 20 22  1  0  0  0
 20 32  1  0  0  0
 20 44  1  0  0  0
 21 32  1  0  0  0
 21 45  1  0  0  0
 22 46  1  0  0  0
 22 47  1  0  0  0
 23 48  1  0  0  0
 24 25  3  0  0  0
 25 49  1  0  0  0
 32 50  1  0  0  0
 33 51  1  0  0  0
 52 53  1  0  0  0
 52 55  1  0  0  0
 52 56  1  0  0  0
 52 57  1  0  0  0
 53 54  1  0  0  0
 54 58  1  0  0  0
 54 59  1  0  0  0
M  END
> <s_m_entry_id>
608

> <s_m_entry_name>
000000608.1

> <s_m_Source_Path>
/Users/zaksoul/Documents/2

> <s_m_Source_File>
000000608.mol2

> <i_m_Source_File_Index>
1

$$$$
No_0_632
                    3D
 Schrodinger Suite 2022-4.
 59 64  0  0  1  0            999 V2000
   -5.3530    3.3160  -22.0600 C   0  0  0  0  0  0
   -5.6040    3.5490  -23.3910 C   0  0  0  0  0  0
   -4.1150    3.0740  -21.7100 C   0  0  0  0  0  0
   -3.1960    3.2970  -23.8560 C   0  0  0  0  0  0
   -3.0500    3.0030  -22.4440 C   0  0  0  0  0  0
   -4.5410    3.5530  -24.3870 C   0  0  0  0  0  0
   -3.7550    3.6700  -26.5720 C   0  0  0  0  0  0
    5.9110    2.9230  -21.1940 C   0  0  0  0  0  0
    5.8060    3.1570  -23.7390 C   0  0  0  0  0  0
   -4.7760    3.7250  -25.7210 C   0  0  0  0  0  0
    2.0120    3.6350  -23.7920 C   0  0  0  0  0  0
    1.1660    4.7160  -23.4640 C   0  0  0  0  0  0
    2.9310    5.9190  -22.7140 C   0  0  0  0  0  0
    3.4040    3.8400  -23.4510 C   0  0  0  0  0  0
    1.4960    2.5330  -24.5010 C   0  0  0  0  0  0
   -0.6480    3.3020  -24.3920 C   0  0  0  0  0  0
   -0.1530    4.5090  -23.7410 C   0  0  0  0  0  0
   -2.0950    3.2940  -24.7670 C   0  0  0  0  0  0
    4.0530    1.3450  -23.2420 C   0  0  0  0  0  0
    4.9770    0.9640  -22.0960 C   0  0  2  0  0  0
    6.5480    2.5530  -22.5520 C   0  0  2  0  0  0
    4.9240    1.9210  -20.8930 C   0  0  0  0  0  0
   -2.4040    3.5000  -26.1930 C   0  0  0  0  0  0
   -1.7070    2.5930  -21.8410 C   0  0  0  0  0  0
   -0.6770    2.2460  -21.3330 C   0  0  0  0  0  0
   -1.0190    5.5240  -23.3710 F   0  0  0  0  0  0
   -3.9190    2.7840  -20.3350 F   0  0  0  0  0  0
    1.6130    5.8630  -22.8830 N   0  0  0  0  0  0
    3.8490    4.9820  -22.9570 N   0  0  0  0  0  0
    0.1960    2.4300  -24.8290 N   0  0  0  0  0  0
    4.3440    2.8170  -23.6530 N   0  0  0  0  0  0
    6.3890    1.0750  -22.5550 N   0  0  1  0  0  0
   -3.9090    3.7330  -27.9630 O   0  0  0  0  0  0
   -6.1660    3.3381  -21.3433 H   0  0  0  0  0  0
   -6.6171    3.7378  -23.7273 H   0  0  0  0  0  0
    5.4236    3.9058  -21.2747 H   0  0  0  0  0  0
    6.6863    2.9200  -20.4137 H   0  0  0  0  0  0
    6.2217    2.7544  -24.6744 H   0  0  0  0  0  0
    5.9281    4.2502  -23.7299 H   0  0  0  0  0  0
   -5.7851    3.9037  -26.0744 H   0  0  0  0  0  0
    2.1551    1.7275  -24.8040 H   0  0  0  0  0  0
    3.0068    1.2562  -22.9141 H   0  0  0  0  0  0
    4.2397    0.6809  -24.0988 H   0  0  0  0  0  0
    4.7670   -0.0647  -21.7679 H   0  0  0  0  0  0
    7.6119    2.8316  -22.5732 H   0  0  0  0  0  0
    3.9306    2.3910  -20.8456 H   0  0  0  0  0  0
    5.2207    1.3791  -19.9828 H   0  0  0  0  0  0
   -1.6233    3.5231  -26.9446 H   0  0  0  0  0  0
    0.2299    1.9410  -20.8861 H   0  0  0  0  0  0
    7.0361    0.5637  -21.8576 H   0  0  0  0  0  0
   -3.0567    3.6766  -28.3788 H   0  0  0  0  0  0
    5.3110    8.7170  -22.1190 C   0  0  0  0  0  0
    4.7990    7.4840  -22.5930 O   0  0  0  0  0  0
    3.4580    7.2500  -22.1890 C   0  0  0  0  0  0
    6.3485    8.8401  -22.4632 H   0  0  0  0  0  0
    4.6958    9.5422  -22.5071 H   0  0  0  0  0  0
    5.2860    8.7260  -21.0193 H   0  0  0  0  0  0
    2.8183    8.0666  -22.5548 H   0  0  0  0  0  0
    3.4000    7.2590  -21.0906 H   0  0  0  0  0  0
  1  2  2  0  0  0
  1  3  1  0  0  0
  1 34  1  0  0  0
  2  6  1  0  0  0
  2 35  1  0  0  0
  3  5  2  0  0  0
  3 27  1  0  0  0
  4  5  1  0  0  0
  4  6  2  0  0  0
  4 18  1  0  0  0
  5 24  1  0  0  0
  6 10  1  0  0  0
  7 10  2  0  0  0
  7 23  1  0  0  0
  7 33  1  0  0  0
  8 21  1  0  0  0
  8 22  1  0  0  0
  8 36  1  0  0  0
  8 37  1  0  0  0
  9 21  1  0  0  0
  9 31  1  0  0  0
  9 38  1  0  0  0
  9 39  1  0  0  0
 10 40  1  0  0  0
 11 12  1  0  0  0
 11 14  2  0  0  0
 11 15  1  0  0  0
 12 17  1  0  0  0
 12 28  2  0  0  0
 13 28  1  0  0  0
 13 29  2  0  0  0
 13 54  1  0  0  0
 14 29  1  0  0  0
 14 31  1  0  0  0
 15 30  2  0  0  0
 15 41  1  0  0  0
 16 17  2  0  0  0
 16 18  1  0  0  0
 16 30  1  0  0  0
 17 26  1  0  0  0
 18 23  2  0  0  0
 19 20  1  0  0  0
 19 31  1  0  0  0
 19 42  1  0  0  0
 19 43  1  0  0  0
 20 22  1  0  0  0
 20 32  1  0  0  0
 20 44  1  0  0  0
 21 32  1  0  0  0
 21 45  1  0  0  0
 22 46  1  0  0  0
 22 47  1  0  0  0
 23 48  1  0  0  0
 24 25  3  0  0  0
 25 49  1  0  0  0
 32 50  1  0  0  0
 33 51  1  0  0  0
 52 53  1  0  0  0
 52 55  1  0  0  0
 52 56  1  0  0  0
 52 57  1  0  0  0
 53 54  1  0  0  0
 54 58  1  0  0  0
 54 59  1  0  0  0
M  END
> <s_m_entry_id>
609

> <s_m_entry_name>
000000609.1

> <s_m_Source_Path>
/Users/zaksoul/Documents/2

> <s_m_Source_File>
000000609.mol2

> <i_m_Source_File_Index>
1

$$$$
No_0_633
                    3D
 Schrodinger Suite 2022-4.
 59 64  0  0  1  0            999 V2000
   -5.3330    3.1650  -21.6640 C   0  0  0  0  0  0
   -5.5980    3.3810  -22.9960 C   0  0  0  0  0  0
   -4.0870    2.9520  -21.3220 C   0  0  0  0  0  0
   -3.1890    3.1750  -23.4760 C   0  0  0  0  0  0
   -3.0270    2.8970  -22.0620 C   0  0  0  0  0  0
   -4.5420    3.3990  -23.9990 C   0  0  0  0  0  0
   -3.7750    3.5130  -26.1910 C   0  0  0  0  0  0
    5.9430    3.0160  -20.8780 C   0  0  0  0  0  0
    5.8140    3.2250  -23.4230 C   0  0  0  0  0  0
   -4.7900    3.5540  -25.3320 C   0  0  0  0  0  0
    2.0110    3.6230  -23.4520 C   0  0  0  0  0  0
    1.1450    4.6890  -23.1280 C   0  0  0  0  0  0
    2.8900    5.9350  -22.4020 C   0  0  0  0  0  0
    3.4010    3.8600  -23.1240 C   0  0  0  0  0  0
    1.5140    2.5040  -24.1490 C   0  0  0  0  0  0
   -0.6450    3.2290  -24.0310 C   0  0  0  0  0  0
   -0.1710    4.4510  -23.3940 C   0  0  0  0  0  0
   -2.0950    3.1870  -24.3950 C   0  0  0  0  0  0
    4.1040    1.3810  -22.8980 C   0  0  0  0  0  0
    5.0440    1.0300  -21.7550 C   0  0  2  0  0  0
    6.5770    2.6470  -22.2370 C   0  0  2  0  0  0
    4.9790    1.9960  -20.5600 C   0  0  0  0  0  0
   -2.4180    3.3740  -25.8200 C   0  0  0  0  0  0
   -1.6710    2.5200  -21.4660 C   0  0  0  0  0  0
   -0.6300    2.2000  -20.9620 C   0  0  0  0  0  0
   -1.0560    5.4520  -23.0260 F   0  0  0  0  0  0
   -3.8760    2.6790  -19.9450 F   0  0  0  0  0  0
    1.5720    5.8500  -22.5610 N   0  0  0  0  0  0
    3.8250    5.0160  -22.6430 N   0  0  0  0  0  0
    0.2140    2.3710  -24.4660 N   0  0  0  0  0  0
    4.3610    2.8550  -23.3240 N   0  0  0  0  0  0
    6.4500    1.1670  -22.2250 N   0  0  1  0  0  0
   -3.9400    3.5600  -27.5810 O   0  0  0  0  0  0
   -6.1409    3.1760  -20.9414 H   0  0  0  0  0  0
   -6.6178    3.5446  -23.3252 H   0  0  0  0  0  0
    5.4344    3.9877  -20.9628 H   0  0  0  0  0  0
    6.7232    3.0362  -20.1028 H   0  0  0  0  0  0
    6.2316    2.8235  -24.3581 H   0  0  0  0  0  0
    5.9139    4.3205  -23.4240 H   0  0  0  0  0  0
   -5.8048    3.7086  -25.6803 H   0  0  0  0  0  0
    2.1873    1.7092  -24.4490 H   0  0  0  0  0  0
    3.0621    1.2731  -22.5621 H   0  0  0  0  0  0
    4.2988    0.7140  -23.7507 H   0  0  0  0  0  0
    4.8583   -0.0002  -21.4170 H   0  0  0  0  0  0
    7.6346    2.9477  -22.2683 H   0  0  0  0  0  0
    3.9766    2.4462  -20.5105 H   0  0  0  0  0  0
    5.2940    1.4690  -19.6473 H   0  0  0  0  0  0
   -1.6434    3.4071  -26.5776 H   0  0  0  0  0  0
    0.2859    1.9170  -20.5191 H   0  0  0  0  0  0
    7.1124    0.6747  -21.5284 H   0  0  0  0  0  0
   -3.0898    3.5174  -28.0027 H   0  0  0  0  0  0
    4.7710    9.1450  -22.3560 C   0  0  0  0  0  0
    4.2920    7.8910  -22.8070 O   0  0  0  0  0  0
    3.3920    7.2820  -21.8920 C   0  0  0  0  0  0
    5.4598    9.5649  -23.1038 H   0  0  0  0  0  0
    3.9235    9.8316  -22.2131 H   0  0  0  0  0  0
    5.3022    9.0140  -21.4017 H   0  0  0  0  0  0
    2.5360    7.9510  -21.7200 H   0  0  0  0  0  0
    3.8947    7.1421  -20.9236 H   0  0  0  0  0  0
  1  2  2  0  0  0
  1  3  1  0  0  0
  1 34  1  0  0  0
  2  6  1  0  0  0
  2 35  1  0  0  0
  3  5  2  0  0  0
  3 27  1  0  0  0
  4  5  1  0  0  0
  4  6  2  0  0  0
  4 18  1  0  0  0
  5 24  1  0  0  0
  6 10  1  0  0  0
  7 10  2  0  0  0
  7 23  1  0  0  0
  7 33  1  0  0  0
  8 21  1  0  0  0
  8 22  1  0  0  0
  8 36  1  0  0  0
  8 37  1  0  0  0
  9 21  1  0  0  0
  9 31  1  0  0  0
  9 38  1  0  0  0
  9 39  1  0  0  0
 10 40  1  0  0  0
 11 12  1  0  0  0
 11 14  2  0  0  0
 11 15  1  0  0  0
 12 17  1  0  0  0
 12 28  2  0  0  0
 13 28  1  0  0  0
 13 29  2  0  0  0
 13 54  1  0  0  0
 14 29  1  0  0  0
 14 31  1  0  0  0
 15 30  2  0  0  0
 15 41  1  0  0  0
 16 17  2  0  0  0
 16 18  1  0  0  0
 16 30  1  0  0  0
 17 26  1  0  0  0
 18 23  2  0  0  0
 19 20  1  0  0  0
 19 31  1  0  0  0
 19 42  1  0  0  0
 19 43  1  0  0  0
 20 22  1  0  0  0
 20 32  1  0  0  0
 20 44  1  0  0  0
 21 32  1  0  0  0
 21 45  1  0  0  0
 22 46  1  0  0  0
 22 47  1  0  0  0
 23 48  1  0  0  0
 24 25  3  0  0  0
 25 49  1  0  0  0
 32 50  1  0  0  0
 33 51  1  0  0  0
 52 53  1  0  0  0
 52 55  1  0  0  0
 52 56  1  0  0  0
 52 57  1  0  0  0
 53 54  1  0  0  0
 54 58  1  0  0  0
 54 59  1  0  0  0
M  END
> <s_m_entry_id>
610

> <s_m_entry_name>
000000610.1

> <s_m_Source_Path>
/Users/zaksoul/Documents/2

> <s_m_Source_File>
000000610.mol2

> <i_m_Source_File_Index>
1

$$$$
No_0_634
                    3D
 Schrodinger Suite 2022-4.
 59 64  0  0  1  0            999 V2000
   -5.1700    3.4800  -22.1580 C   0  0  0  0  0  0
   -5.3930    3.7100  -23.4950 C   0  0  0  0  0  0
   -3.9450    3.2080  -21.7860 C   0  0  0  0  0  0
   -2.9860    3.3900  -23.9190 C   0  0  0  0  0  0
   -2.8710    3.1030  -22.5020 C   0  0  0  0  0  0
   -4.3140    3.6780  -24.4730 C   0  0  0  0  0  0
   -3.4910    3.7580  -26.6460 C   0  0  0  0  0  0
    6.0640    2.7940  -21.1050 C   0  0  0  0  0  0
    6.0060    3.0110  -23.6530 C   0  0  0  0  0  0
   -4.5230    3.8460  -25.8120 C   0  0  0  0  0  0
    2.2270    3.5890  -23.7710 C   0  0  0  0  0  0
    1.4050    4.6950  -23.4650 C   0  0  0  0  0  0
    3.1900    5.8560  -22.6950 C   0  0  0  0  0  0
    3.6190    3.7600  -23.4090 C   0  0  0  0  0  0
    1.6940    2.4960  -24.4810 C   0  0  0  0  0  0
   -0.4300    3.3230  -24.4130 C   0  0  0  0  0  0
    0.0870    4.5210  -23.7620 C   0  0  0  0  0  0
   -1.8710    3.3510  -24.8120 C   0  0  0  0  0  0
    4.1970    1.2500  -23.1720 C   0  0  0  0  0  0
    5.0920    0.8540  -22.0080 C   0  0  2  0  0  0
    6.7120    2.3970  -22.4500 C   0  0  2  0  0  0
    5.0450    1.8210  -20.8130 C   0  0  0  0  0  0
   -2.1510    3.5540  -26.2440 C   0  0  0  0  0  0
   -1.5490    2.6620  -21.8740 C   0  0  0  0  0  0
   -0.5370    2.2910  -21.3470 C   0  0  0  0  0  0
   -0.7580    5.5620  -23.4140 F   0  0  0  0  0  0
   -3.7790    2.9240  -20.4060 F   0  0  0  0  0  0
    1.8740    5.8340  -22.8850 N   0  0  0  0  0  0
    4.0860    4.8940  -22.9160 N   0  0  0  0  0  0
    0.3970    2.4260  -24.8290 N   0  0  0  0  0  0
    4.5350    2.7100  -23.5880 N   0  0  0  0  0  0
    6.5140    0.9240  -22.4450 N   0  0  1  0  0  0
   -3.6200    3.8140  -28.0390 O   0  0  0  0  0  0
   -5.9935    3.5292  -21.4548 H   0  0  0  0  0  0
   -6.3955    3.9227  -23.8482 H   0  0  0  0  0  0
    5.6036    3.7884  -21.2009 H   0  0  0  0  0  0
    6.8264    2.7758  -20.3123 H   0  0  0  0  0  0
    6.4259    2.5901  -24.5785 H   0  0  0  0  0  0
    6.1573    4.1005  -23.6490 H   0  0  0  0  0  0
   -5.5210    4.0488  -26.1835 H   0  0  0  0  0  0
    2.3363    1.6710  -24.7670 H   0  0  0  0  0  0
    3.1438    1.1914  -22.8600 H   0  0  0  0  0  0
    4.3806    0.5753  -24.0212 H   0  0  0  0  0  0
    4.8499   -0.1668  -21.6772 H   0  0  0  0  0  0
    7.7833    2.6464  -22.4561 H   0  0  0  0  0  0
    4.0639    2.3176  -20.7857 H   0  0  0  0  0  0
    5.3125    1.2780  -19.8945 H   0  0  0  0  0  0
   -1.3579    3.5510  -26.9829 H   0  0  0  0  0  0
    0.3539    1.9650  -20.8831 H   0  0  0  0  0  0
    7.1349    0.4003  -21.7332 H   0  0  0  0  0  0
   -2.7631    3.7319  -28.4408 H   0  0  0  0  0  0
    3.9790    9.4910  -22.5930 C   0  0  0  0  0  0
    3.4760    8.2520  -23.0600 O   0  0  0  0  0  0
    3.7440    7.1770  -22.1710 C   0  0  0  0  0  0
    3.7428   10.2815  -23.3205 H   0  0  0  0  0  0
    3.5169    9.7340  -21.6248 H   0  0  0  0  0  0
    5.0699    9.4210  -22.4700 H   0  0  0  0  0  0
    3.3003    7.3959  -21.1886 H   0  0  0  0  0  0
    4.8302    7.0850  -22.0240 H   0  0  0  0  0  0
  1  2  2  0  0  0
  1  3  1  0  0  0
  1 34  1  0  0  0
  2  6  1  0  0  0
  2 35  1  0  0  0
  3  5  2  0  0  0
  3 27  1  0  0  0
  4  5  1  0  0  0
  4  6  2  0  0  0
  4 18  1  0  0  0
  5 24  1  0  0  0
  6 10  1  0  0  0
  7 10  2  0  0  0
  7 23  1  0  0  0
  7 33  1  0  0  0
  8 21  1  0  0  0
  8 22  1  0  0  0
  8 36  1  0  0  0
  8 37  1  0  0  0
  9 21  1  0  0  0
  9 31  1  0  0  0
  9 38  1  0  0  0
  9 39  1  0  0  0
 10 40  1  0  0  0
 11 12  1  0  0  0
 11 14  2  0  0  0
 11 15  1  0  0  0
 12 17  1  0  0  0
 12 28  2  0  0  0
 13 28  1  0  0  0
 13 29  2  0  0  0
 13 54  1  0  0  0
 14 29  1  0  0  0
 14 31  1  0  0  0
 15 30  2  0  0  0
 15 41  1  0  0  0
 16 17  2  0  0  0
 16 18  1  0  0  0
 16 30  1  0  0  0
 17 26  1  0  0  0
 18 23  2  0  0  0
 19 20  1  0  0  0
 19 31  1  0  0  0
 19 42  1  0  0  0
 19 43  1  0  0  0
 20 22  1  0  0  0
 20 32  1  0  0  0
 20 44  1  0  0  0
 21 32  1  0  0  0
 21 45  1  0  0  0
 22 46  1  0  0  0
 22 47  1  0  0  0
 23 48  1  0  0  0
 24 25  3  0  0  0
 25 49  1  0  0  0
 32 50  1  0  0  0
 33 51  1  0  0  0
 52 53  1  0  0  0
 52 55  1  0  0  0
 52 56  1  0  0  0
 52 57  1  0  0  0
 53 54  1  0  0  0
 54 58  1  0  0  0
 54 59  1  0  0  0
M  END
> <s_m_entry_id>
611

> <s_m_entry_name>
000000611.1

> <s_m_Source_Path>
/Users/zaksoul/Documents/2

> <s_m_Source_File>
000000611.mol2

> <i_m_Source_File_Index>
1

$$$$
No_0_635
                    3D
 Schrodinger Suite 2022-4.
 56 61  0  0  1  0            999 V2000
   -5.1460    3.2000  -22.1700 C   0  0  0  0  0  0
   -5.3830    3.4050  -23.5090 C   0  0  0  0  0  0
   -3.9110    2.9680  -21.8020 C   0  0  0  0  0  0
   -2.9690    3.1480  -23.9430 C   0  0  0  0  0  0
   -2.8390    2.8840  -22.5220 C   0  0  0  0  0  0
   -4.3090    3.3910  -24.4930 C   0  0  0  0  0  0
   -3.5000    3.4650  -26.6710 C   0  0  0  0  0  0
    6.1090    2.8480  -21.1740 C   0  0  0  0  0  0
    6.0310    3.0290  -23.7230 C   0  0  0  0  0  0
   -4.5290    3.5350  -25.8320 C   0  0  0  0  0  0
    2.2370    3.4980  -23.8270 C   0  0  0  0  0  0
    1.3850    4.5840  -23.5310 C   0  0  0  0  0  0
    3.1400    5.8060  -22.7870 C   0  0  0  0  0  0
    3.6250    3.7130  -23.4760 C   0  0  0  0  0  0
    1.7310    2.3810  -24.5200 C   0  0  0  0  0  0
   -0.4150    3.1470  -24.4500 C   0  0  0  0  0  0
    0.0700    4.3680  -23.8190 C   0  0  0  0  0  0
   -1.8590    3.1290  -24.8410 C   0  0  0  0  0  0
    4.2760    1.2240  -23.2090 C   0  0  0  0  0  0
    5.1880    0.8680  -22.0450 C   0  0  2  0  0  0
    6.7610    2.4510  -22.5160 C   0  0  2  0  0  0
    5.1200    1.8500  -20.8630 C   0  0  0  0  0  0
   -2.1520    3.3050  -26.2740 C   0  0  0  0  0  0
   -1.5010    2.4890  -21.8970 C   0  0  0  0  0  0
   -0.4760    2.1540  -21.3710 C   0  0  0  0  0  0
   -0.8020    5.3900  -23.4790 F   0  0  0  0  0  0
   -3.7300    2.7070  -20.4190 F   0  0  0  0  0  0
    1.8240    5.7440  -22.9700 N   0  0  0  0  0  0
    4.0620    4.8660  -23.0000 N   0  0  0  0  0  0
    0.4350    2.2690  -24.8600 N   0  0  0  0  0  0
    4.5690    2.6870  -23.6470 N   0  0  0  0  0  0
    6.6040    0.9730  -22.4900 N   0  0  1  0  0  0
   -3.6380    3.4990  -28.0640 O   0  0  0  0  0  0
   -5.9672    3.2351  -21.4633 H   0  0  0  0  0  0
   -6.3930    3.5847  -23.8594 H   0  0  0  0  0  0
    5.6193    3.8274  -21.2790 H   0  0  0  0  0  0
    6.8751    2.8621  -20.3847 H   0  0  0  0  0  0
    6.4579    2.6082  -24.6453 H   0  0  0  0  0  0
    6.1511    4.1224  -23.7351 H   0  0  0  0  0  0
   -5.5340    3.7045  -26.2011 H   0  0  0  0  0  0
    2.3943    1.5702  -24.7990 H   0  0  0  0  0  0
    3.2266    1.1392  -22.8902 H   0  0  0  0  0  0
    4.4738    0.5428  -24.0497 H   0  0  0  0  0  0
    4.9761   -0.1544  -21.6988 H   0  0  0  0  0  0
    7.8247    2.7308  -22.5322 H   0  0  0  0  0  0
    4.1254    2.3191  -20.8358 H   0  0  0  0  0  0
    5.4076    1.3274  -19.9388 H   0  0  0  0  0  0
   -1.3633    3.3140  -27.0176 H   0  0  0  0  0  0
    0.4263    1.8599  -20.9079 H   0  0  0  0  0  0
    7.2444    0.4769  -21.7758 H   0  0  0  0  0  0
   -2.7813    3.4357  -28.4696 H   0  0  0  0  0  0
    4.7210    7.2280  -21.6740 O   0  0  0  0  0  0
    3.6540    7.1350  -22.2890 C   0  0  0  0  0  0
    2.9340    8.2150  -22.6220 N   0  0  0  0  0  0
    3.2741    9.1533  -22.5590 H   0  0  0  0  0  0
    1.9976    8.1080  -22.9562 H   0  0  0  0  0  0
  1  2  2  0  0  0
  1  3  1  0  0  0
  1 34  1  0  0  0
  2  6  1  0  0  0
  2 35  1  0  0  0
  3  5  2  0  0  0
  3 27  1  0  0  0
  4  5  1  0  0  0
  4  6  2  0  0  0
  4 18  1  0  0  0
  5 24  1  0  0  0
  6 10  1  0  0  0
  7 10  2  0  0  0
  7 23  1  0  0  0
  7 33  1  0  0  0
  8 21  1  0  0  0
  8 22  1  0  0  0
  8 36  1  0  0  0
  8 37  1  0  0  0
  9 21  1  0  0  0
  9 31  1  0  0  0
  9 38  1  0  0  0
  9 39  1  0  0  0
 10 40  1  0  0  0
 11 12  1  0  0  0
 11 14  2  0  0  0
 11 15  1  0  0  0
 12 17  1  0  0  0
 12 28  2  0  0  0
 13 28  1  0  0  0
 13 29  2  0  0  0
 13 53  1  0  0  0
 14 29  1  0  0  0
 14 31  1  0  0  0
 15 30  2  0  0  0
 15 41  1  0  0  0
 16 17  2  0  0  0
 16 18  1  0  0  0
 16 30  1  0  0  0
 17 26  1  0  0  0
 18 23  2  0  0  0
 19 20  1  0  0  0
 19 31  1  0  0  0
 19 42  1  0  0  0
 19 43  1  0  0  0
 20 22  1  0  0  0
 20 32  1  0  0  0
 20 44  1  0  0  0
 21 32  1  0  0  0
 21 45  1  0  0  0
 22 46  1  0  0  0
 22 47  1  0  0  0
 23 48  1  0  0  0
 24 25  3  0  0  0
 25 49  1  0  0  0
 32 50  1  0  0  0
 33 51  1  0  0  0
 52 53  2  0  0  0
 53 54  1  0  0  0
 54 55  1  0  0  0
 54 56  1  0  0  0
M  END
> <s_m_entry_id>
612

> <s_m_entry_name>
000000612.1

> <s_m_Source_Path>
/Users/zaksoul/Documents/2

> <s_m_Source_File>
000000612.mol2

> <i_m_Source_File_Index>
1

$$$$
No_0_636
                    3D
 Schrodinger Suite 2022-4.
 56 61  0  0  1  0            999 V2000
   -5.0470    3.7080  -22.1950 C   0  0  0  0  0  0
   -5.2930    3.9170  -23.5320 C   0  0  0  0  0  0
   -3.8110    3.4690  -21.8370 C   0  0  0  0  0  0
   -2.8840    3.6480  -23.9840 C   0  0  0  0  0  0
   -2.7440    3.3810  -22.5650 C   0  0  0  0  0  0
   -4.2260    3.8990  -24.5240 C   0  0  0  0  0  0
   -3.4330    3.9720  -26.7080 C   0  0  0  0  0  0
    6.2130    3.2970  -21.2830 C   0  0  0  0  0  0
    6.1170    3.4830  -23.8320 C   0  0  0  0  0  0
   -4.4560    4.0460  -25.8610 C   0  0  0  0  0  0
    2.3250    3.9710  -23.9070 C   0  0  0  0  0  0
    1.4810    5.0610  -23.6030 C   0  0  0  0  0  0
    3.2470    6.2730  -22.8700 C   0  0  0  0  0  0
    3.7160    4.1790  -23.5650 C   0  0  0  0  0  0
    1.8080    2.8580  -24.5970 C   0  0  0  0  0  0
   -0.3340    3.6350  -24.5100 C   0  0  0  0  0  0
    0.1630    4.8530  -23.8800 C   0  0  0  0  0  0
   -1.7800    3.6250  -24.8910 C   0  0  0  0  0  0
    4.3570    1.6860  -23.3070 C   0  0  0  0  0  0
    5.2750    1.3240  -22.1500 C   0  0  2  0  0  0
    6.8530    2.8990  -22.6310 C   0  0  2  0  0  0
    5.2210    2.3040  -20.9660 C   0  0  0  0  0  0
   -2.0830    3.8050  -26.3210 C   0  0  0  0  0  0
   -1.4040    2.9780  -21.9500 C   0  0  0  0  0  0
   -0.3770    2.6380  -21.4320 C   0  0  0  0  0  0
   -0.7020    5.8780  -23.5330 F   0  0  0  0  0  0
   -3.6210    3.2050  -20.4560 F   0  0  0  0  0  0
    1.9290    6.2180  -23.0420 N   0  0  0  0  0  0
    4.1630    5.3290  -23.0910 N   0  0  0  0  0  0
    0.5090    2.7530  -24.9270 N   0  0  0  0  0  0
    4.6540    3.1490  -23.7450 N   0  0  0  0  0  0
    6.6890    1.4220  -22.6060 N   0  0  1  0  0  0
   -3.5810    4.0090  -28.1000 O   0  0  0  0  0  0
   -5.8625    3.7462  -21.4819 H   0  0  0  0  0  0
   -6.3047    4.1019  -23.8746 H   0  0  0  0  0  0
    5.7276    4.2789  -21.3839 H   0  0  0  0  0  0
    6.9852    3.3061  -20.4997 H   0  0  0  0  0  0
    6.5351    3.0618  -24.7582 H   0  0  0  0  0  0
    6.2421    4.5758  -23.8421 H   0  0  0  0  0  0
   -5.4628    4.2217  -26.2224 H   0  0  0  0  0  0
    2.4650    2.0445  -24.8829 H   0  0  0  0  0  0
    3.3093    1.6063  -22.9813 H   0  0  0  0  0  0
    4.5447    1.0057  -24.1508 H   0  0  0  0  0  0
    5.0609    0.3021  -21.8037 H   0  0  0  0  0  0
    7.9177    3.1745  -22.6542 H   0  0  0  0  0  0
    4.2291    2.7783  -20.9317 H   0  0  0  0  0  0
    5.5126    1.7783  -20.0448 H   0  0  0  0  0  0
   -1.3001    3.8110  -27.0708 H   0  0  0  0  0  0
    0.5270    2.3380  -20.9760 H   0  0  0  0  0  0
    7.3324    0.9218  -21.8974 H   0  0  0  0  0  0
   -2.7275    3.9427  -28.5119 H   0  0  0  0  0  0
    3.2720    8.6690  -22.7340 O   0  0  0  0  0  0
    3.7710    7.5990  -22.3730 C   0  0  0  0  0  0
    4.7480    7.5480  -21.4570 N   0  0  0  0  0  0
    5.0178    8.3236  -20.8863 H   0  0  0  0  0  0
    5.2549    6.6981  -21.3130 H   0  0  0  0  0  0
  1  2  2  0  0  0
  1  3  1  0  0  0
  1 34  1  0  0  0
  2  6  1  0  0  0
  2 35  1  0  0  0
  3  5  2  0  0  0
  3 27  1  0  0  0
  4  5  1  0  0  0
  4  6  2  0  0  0
  4 18  1  0  0  0
  5 24  1  0  0  0
  6 10  1  0  0  0
  7 10  2  0  0  0
  7 23  1  0  0  0
  7 33  1  0  0  0
  8 21  1  0  0  0
  8 22  1  0  0  0
  8 36  1  0  0  0
  8 37  1  0  0  0
  9 21  1  0  0  0
  9 31  1  0  0  0
  9 38  1  0  0  0
  9 39  1  0  0  0
 10 40  1  0  0  0
 11 12  1  0  0  0
 11 14  2  0  0  0
 11 15  1  0  0  0
 12 17  1  0  0  0
 12 28  2  0  0  0
 13 28  1  0  0  0
 13 29  2  0  0  0
 13 53  1  0  0  0
 14 29  1  0  0  0
 14 31  1  0  0  0
 15 30  2  0  0  0
 15 41  1  0  0  0
 16 17  2  0  0  0
 16 18  1  0  0  0
 16 30  1  0  0  0
 17 26  1  0  0  0
 18 23  2  0  0  0
 19 20  1  0  0  0
 19 31  1  0  0  0
 19 42  1  0  0  0
 19 43  1  0  0  0
 20 22  1  0  0  0
 20 32  1  0  0  0
 20 44  1  0  0  0
 21 32  1  0  0  0
 21 45  1  0  0  0
 22 46  1  0  0  0
 22 47  1  0  0  0
 23 48  1  0  0  0
 24 25  3  0  0  0
 25 49  1  0  0  0
 32 50  1  0  0  0
 33 51  1  0  0  0
 52 53  2  0  0  0
 53 54  1  0  0  0
 54 55  1  0  0  0
 54 56  1  0  0  0
M  END
> <s_m_entry_id>
613

> <s_m_entry_name>
000000613.1

> <s_m_Source_Path>
/Users/zaksoul/Documents/2

> <s_m_Source_File>
000000613.mol2

> <i_m_Source_File_Index>
1

$$$$
No_0_637
                    3D
 Schrodinger Suite 2022-4.
 56 61  0  0  1  0            999 V2000
   -5.0440    3.8780  -22.0790 C   0  0  0  0  0  0
   -5.3110    4.0550  -23.4160 C   0  0  0  0  0  0
   -3.8080    3.6150  -21.7380 C   0  0  0  0  0  0
   -2.9190    3.7080  -23.9060 C   0  0  0  0  0  0
   -2.7590    3.4770  -22.4830 C   0  0  0  0  0  0
   -4.2650    3.9800  -24.4280 C   0  0  0  0  0  0
   -3.5130    3.9700  -26.6270 C   0  0  0  0  0  0
    6.2160    3.1850  -21.3690 C   0  0  0  0  0  0
    6.0750    3.3020  -23.9200 C   0  0  0  0  0  0
   -4.5170    4.0960  -25.7640 C   0  0  0  0  0  0
    2.2960    3.8910  -23.9370 C   0  0  0  0  0  0
    1.4880    5.0120  -23.6490 C   0  0  0  0  0  0
    3.3000    6.1950  -22.9840 C   0  0  0  0  0  0
    3.6990    4.0700  -23.6280 C   0  0  0  0  0  0
    1.7370    2.7730  -24.5850 C   0  0  0  0  0  0
   -0.3810    3.6110  -24.4800 C   0  0  0  0  0  0
    0.1600    4.8320  -23.8950 C   0  0  0  0  0  0
   -1.8350    3.6290  -24.8320 C   0  0  0  0  0  0
    4.2780    1.5690  -23.3100 C   0  0  0  0  0  0
    5.2100    1.2150  -22.1610 C   0  0  2  0  0  0
    6.8180    2.7320  -22.7170 C   0  0  2  0  0  0
    5.2050    2.2290  -21.0050 C   0  0  0  0  0  0
   -2.1610    3.7770  -26.2610 C   0  0  0  0  0  0
   -1.4180    3.0560  -21.8820 C   0  0  0  0  0  0
   -0.3910    2.7020  -21.3740 C   0  0  0  0  0  0
   -0.6700    5.8890  -23.5610 F   0  0  0  0  0  0
   -3.5980    3.3850  -20.3530 F   0  0  0  0  0  0
    1.9790    6.1710  -23.1300 N   0  0  0  0  0  0
    4.1860    5.2200  -23.1960 N   0  0  0  0  0  0
    0.4290    2.6950  -24.8880 N   0  0  0  0  0  0
    4.6060    3.0100  -23.7950 N   0  0  0  0  0  0
    6.6160    1.2620  -22.6470 N   0  0  1  0  0  0
   -3.6880    3.9710  -28.0170 O   0  0  0  0  0  0
   -5.8442    3.9573  -21.3521 H   0  0  0  0  0  0
   -6.3237    4.2577  -23.7452 H   0  0  0  0  0  0
    5.7559    4.1769  -21.4891 H   0  0  0  0  0  0
    7.0033    3.1951  -20.6009 H   0  0  0  0  0  0
    6.4625    2.8428  -24.8414 H   0  0  0  0  0  0
    6.2294    4.3902  -23.9644 H   0  0  0  0  0  0
   -5.5261    4.2878  -26.1104 H   0  0  0  0  0  0
    2.3663    1.9340  -24.8590 H   0  0  0  0  0  0
    3.2351    1.5276  -22.9627 H   0  0  0  0  0  0
    4.4314    0.8606  -24.1374 H   0  0  0  0  0  0
    4.9748    0.2097  -21.7815 H   0  0  0  0  0  0
    7.8891    2.9771  -22.7684 H   0  0  0  0  0  0
    4.2266    2.7303  -20.9657 H   0  0  0  0  0  0
    5.5007    1.7224  -20.0745 H   0  0  0  0  0  0
   -1.3934    3.7399  -27.0255 H   0  0  0  0  0  0
    0.5138    2.3911  -20.9271 H   0  0  0  0  0  0
    7.2595    0.7650  -21.9362 H   0  0  0  0  0  0
   -2.8447    3.8700  -28.4426 H   0  0  0  0  0  0
    3.1520    8.5130  -22.3770 O   0  0  0  0  0  0
    3.8690    7.5200  -22.5360 C   0  0  0  0  0  0
    5.1760    7.5370  -22.2390 N   0  0  0  0  0  0
    5.6200    8.2681  -21.7210 H   0  0  0  0  0  0
    5.7672    6.7888  -22.5401 H   0  0  0  0  0  0
  1  2  2  0  0  0
  1  3  1  0  0  0
  1 34  1  0  0  0
  2  6  1  0  0  0
  2 35  1  0  0  0
  3  5  2  0  0  0
  3 27  1  0  0  0
  4  5  1  0  0  0
  4  6  2  0  0  0
  4 18  1  0  0  0
  5 24  1  0  0  0
  6 10  1  0  0  0
  7 10  2  0  0  0
  7 23  1  0  0  0
  7 33  1  0  0  0
  8 21  1  0  0  0
  8 22  1  0  0  0
  8 36  1  0  0  0
  8 37  1  0  0  0
  9 21  1  0  0  0
  9 31  1  0  0  0
  9 38  1  0  0  0
  9 39  1  0  0  0
 10 40  1  0  0  0
 11 12  1  0  0  0
 11 14  2  0  0  0
 11 15  1  0  0  0
 12 17  1  0  0  0
 12 28  2  0  0  0
 13 28  1  0  0  0
 13 29  2  0  0  0
 13 53  1  0  0  0
 14 29  1  0  0  0
 14 31  1  0  0  0
 15 30  2  0  0  0
 15 41  1  0  0  0
 16 17  2  0  0  0
 16 18  1  0  0  0
 16 30  1  0  0  0
 17 26  1  0  0  0
 18 23  2  0  0  0
 19 20  1  0  0  0
 19 31  1  0  0  0
 19 42  1  0  0  0
 19 43  1  0  0  0
 20 22  1  0  0  0
 20 32  1  0  0  0
 20 44  1  0  0  0
 21 32  1  0  0  0
 21 45  1  0  0  0
 22 46  1  0  0  0
 22 47  1  0  0  0
 23 48  1  0  0  0
 24 25  3  0  0  0
 25 49  1  0  0  0
 32 50  1  0  0  0
 33 51  1  0  0  0
 52 53  2  0  0  0
 53 54  1  0  0  0
 54 55  1  0  0  0
 54 56  1  0  0  0
M  END
> <s_m_entry_id>
614

> <s_m_entry_name>
000000614.1

> <s_m_Source_Path>
/Users/zaksoul/Documents/2

> <s_m_Source_File>
000000614.mol2

> <i_m_Source_File_Index>
1

$$$$
