No_0_1,No_0_2,No_0_3
     RDKit          3D

 40 46  0  0  1  0  0  0  0  0999 V2000
   -4.8750    3.6540  -22.0170 C   0  0  0  0  0  0  0  0  0  0  0  0
   -5.1450    3.8200  -23.3550 C   0  0  0  0  0  0  0  0  0  0  0  0
   -3.6410    3.3820  -21.6780 C   0  0  0  0  0  0  0  0  0  0  0  0
   -2.7600    3.4430  -23.8500 C   0  0  0  0  0  0  0  0  0  0  0  0
   -2.5960    3.2250  -22.4260 C   0  0  0  0  0  0  0  0  0  0  0  0
   -4.1040    3.7230  -24.3690 C   0  0  0  0  0  0  0  0  0  0  0  0
   -3.3620    3.6820  -26.5720 C   0  0  0  0  0  0  0  0  0  0  0  0
    6.3800    2.8510  -21.3450 C   0  0  0  0  0  0  0  0  0  0  0  0
    6.2290    2.9420  -23.8960 C   0  0  0  0  0  0  0  0  0  0  0  0
   -4.3610    3.8270  -25.7060 C   0  0  0  0  0  0  0  0  0  0  0  0
    2.4570    3.5710  -23.9040 C   0  0  0  0  0  0  0  0  0  0  0  0
    1.6620    4.7030  -23.6240 C   0  0  0  0  0  0  0  0  0  0  0  0
    3.4890    5.8740  -22.9800 C   0  0  0  0  0  0  0  0  0  0  0  0
    3.8630    3.7380  -23.6030 C   0  0  0  0  0  0  0  0  0  0  0  0
    1.8830    2.4520  -24.5390 C   0  0  0  0  0  0  0  0  0  0  0  0
   -0.2250    3.3130  -24.4340 C   0  0  0  0  0  0  0  0  0  0  0  0
    0.3310    4.5340  -23.8640 C   0  0  0  0  0  0  0  0  0  0  0  0
   -1.6800    3.3420  -24.7800 C   0  0  0  0  0  0  0  0  0  0  0  0
    4.4170    1.2340  -23.2610 C   0  0  0  0  0  0  0  0  0  0  0  0
    5.3500    0.8830  -22.1120 C   0  0  2  0  0  0  0  0  0  0  0  0
    6.9720    2.3770  -22.6900 C   0  0  2  0  0  0  0  0  0  0  0  0
    5.3600    1.9090  -20.9670 C   0  0  0  0  0  0  0  0  0  0  0  0
   -2.0100    3.4780  -26.2100 C   0  0  0  0  0  0  0  0  0  0  0  0
   -1.2570    2.7960  -21.8260 C   0  0  0  0  0  0  0  0  0  0  0  0
   -0.2310    2.4370  -21.3180 C   0  0  0  0  0  0  0  0  0  0  0  0
   -0.4860    5.6040  -23.5370 F   0  0  0  0  0  0  0  0  0  0  0  0
   -3.4270    3.1640  -20.2920 F   0  0  0  0  0  0  0  0  0  0  0  0
    2.1670    5.8620  -23.1200 N   0  0  0  0  0  0  0  0  0  0  0  0
    4.3640    4.8870  -23.1850 N   0  0  0  0  0  0  0  0  0  0  0  0
    0.5740    2.3840  -24.8350 N   0  0  0  0  0  0  0  0  0  0  0  0
    4.7580    2.6670  -23.7630 N   0  0  0  0  0  0  0  0  0  0  0  0
    6.7550    0.9100  -22.6040 N   0  0  0  0  0  0  0  0  0  0  0  0
   -3.5430    3.6710  -27.9600 O   0  0  0  0  0  0  0  0  0  0  0  0
    7.8480    8.7170  -20.8920 N   0  0  0  0  0  0  0  0  0  0  0  0
    5.8000    8.4010  -21.0530 C   0  0  0  0  0  0  0  0  0  0  0  0
    4.0800    7.2100  -22.5440 C   0  0  0  0  0  0  0  0  0  0  0  0
    6.8990    8.8610  -22.0420 C   0  0  0  0  0  0  0  0  0  0  0  0
    6.8350    8.2000  -19.9200 C   0  0  0  0  0  0  0  0  0  0  0  0
    5.1320    7.0640  -21.4280 C   0  0  0  0  0  0  0  0  0  0  0  0
    9.0240    7.8140  -21.1380 C   0  0  0  0  0  0  0  0  0  0  0  0
  1  2  2  0
  1  3  1  0
  2  6  1  0
  3  5  2  0
  3 27  1  0
  4  5  1  0
  4  6  2  0
  4 18  1  0
  5 24  1  0
  6 10  1  0
  7 10  2  0
  7 23  1  0
  7 33  1  0
 21  8  1  1
  8 22  1  0
  9 21  1  0
  9 31  1  0
 11 12  1  0
 11 14  1  0
 11 15  2  0
 12 17  2  0
 12 28  1  0
 13 28  2  0
 13 29  1  0
 13 36  1  0
 14 29  2  0
 14 31  1  0
 15 30  1  0
 16 17  1  0
 16 18  1  0
 16 30  2  0
 17 26  1  0
 18 23  2  0
 20 19  1  6
 19 31  1  0
 20 22  1  0
 20 32  1  0
 21 32  1  0
 24 25  3  0
 34 37  1  0
 34 38  1  0
 34 40  1  0
 35 37  1  0
 35 38  1  0
 35 39  1  0
 36 39  1  0
M  CHG  1  34   1
M  END
>  <s_m_entry_id>  (1) 
159

>  <s_m_entry_name>  (1) 
000000001.1

>  <s_m_Source_Path>  (1) 
/Users/zaksoul/Documents/3r_UNI/2nd_SEMESTER/BSC/FRAG_RECON/RESULTS/2

>  <s_m_Source_File>  (1) 
000000001.mol2

>  <i_m_Source_File_Index>  (1) 
1

$$$$
No_0_4,No_0_5,No_0_6,No_0_7,No_0_8,No_0_9,No_0_10
     RDKit          3D

 40 46  0  0  1  0  0  0  0  0999 V2000
   -5.0920    3.8440  -22.1130 C   0  0  0  0  0  0  0  0  0  0  0  0
   -5.3760    4.0170  -23.4470 C   0  0  0  0  0  0  0  0  0  0  0  0
   -3.8470    3.6080  -21.7850 C   0  0  0  0  0  0  0  0  0  0  0  0
   -2.9830    3.7230  -23.9620 C   0  0  0  0  0  0  0  0  0  0  0  0
   -2.8030    3.4940  -22.5410 C   0  0  0  0  0  0  0  0  0  0  0  0
   -4.3400    3.9660  -24.4690 C   0  0  0  0  0  0  0  0  0  0  0  0
   -3.6120    3.9740  -26.6770 C   0  0  0  0  0  0  0  0  0  0  0  0
    6.1880    3.3980  -21.5230 C   0  0  0  0  0  0  0  0  0  0  0  0
    6.0170    3.5140  -24.0720 C   0  0  0  0  0  0  0  0  0  0  0  0
   -4.6090    4.0770  -25.8030 C   0  0  0  0  0  0  0  0  0  0  0  0
    2.2260    4.0200  -24.0480 C   0  0  0  0  0  0  0  0  0  0  0  0
    1.3970    5.1230  -23.7500 C   0  0  0  0  0  0  0  0  0  0  0  0
    3.1900    6.3450  -23.1030 C   0  0  0  0  0  0  0  0  0  0  0  0
    3.6280    4.2300  -23.7540 C   0  0  0  0  0  0  0  0  0  0  0  0
    1.6850    2.8910  -24.6920 C   0  0  0  0  0  0  0  0  0  0  0  0
   -0.4500    3.6820  -24.5630 C   0  0  0  0  0  0  0  0  0  0  0  0
    0.0700    4.9140  -23.9830 C   0  0  0  0  0  0  0  0  0  0  0  0
   -1.9070    3.6690  -24.9000 C   0  0  0  0  0  0  0  0  0  0  0  0
    4.2650    1.7420  -23.4450 C   0  0  0  0  0  0  0  0  0  0  0  0
    5.2160    1.4070  -22.3070 C   0  0  2  0  0  0  0  0  0  0  0  0
    6.7850    2.9600  -22.8770 C   0  0  2  0  0  0  0  0  0  0  0  0
    5.2010    2.4190  -21.1490 C   0  0  0  0  0  0  0  0  0  0  0  0
   -2.2520    3.8110  -26.3260 C   0  0  0  0  0  0  0  0  0  0  0  0
   -1.4470    3.1010  -21.9550 C   0  0  0  0  0  0  0  0  0  0  0  0
   -0.4070    2.7700  -21.4590 C   0  0  0  0  0  0  0  0  0  0  0  0
   -0.7790    5.9530  -23.6380 F   0  0  0  0  0  0  0  0  0  0  0  0
   -3.6170    3.3810  -20.4030 F   0  0  0  0  0  0  0  0  0  0  0  0
    1.8670    6.2920  -23.2350 N   0  0  0  0  0  0  0  0  0  0  0  0
    4.0940    5.3900  -23.3250 N   0  0  0  0  0  0  0  0  0  0  0  0
    0.3760    2.7840  -24.9810 N   0  0  0  0  0  0  0  0  0  0  0  0
    4.5560    3.1900  -23.9320 N   0  0  0  0  0  0  0  0  0  0  0  0
    6.6160    1.4850  -22.8070 N   0  0  0  0  0  0  0  0  0  0  0  0
   -3.8010    3.9740  -28.0640 O   0  0  0  0  0  0  0  0  0  0  0  0
    7.5810    8.7100  -20.9650 N   0  0  0  0  0  0  0  0  0  0  0  0
    5.5230    8.8210  -21.1440 C   0  0  0  0  0  0  0  0  0  0  0  0
    3.7400    7.6940  -22.6550 C   0  0  0  0  0  0  0  0  0  0  0  0
    6.6970    8.9620  -22.1460 C   0  0  0  0  0  0  0  0  0  0  0  0
    6.4850    8.5720  -19.9550 C   0  0  0  0  0  0  0  0  0  0  0  0
    4.6350    7.5840  -21.4020 C   0  0  0  0  0  0  0  0  0  0  0  0
    4.7290   10.1300  -20.9690 C   0  0  0  0  0  0  0  0  0  0  0  0
  1  2  2  0
  1  3  1  0
  2  6  1  0
  3  5  2  0
  3 27  1  0
  4  5  1  0
  4  6  2  0
  4 18  1  0
  5 24  1  0
  6 10  1  0
  7 10  2  0
  7 23  1  0
  7 33  1  0
 21  8  1  1
  8 22  1  0
  9 21  1  0
  9 31  1  0
 11 12  1  0
 11 14  1  0
 11 15  2  0
 12 17  2  0
 12 28  1  0
 13 28  2  0
 13 29  1  0
 13 36  1  0
 14 29  2  0
 14 31  1  0
 15 30  1  0
 16 17  1  0
 16 18  1  0
 16 30  2  0
 17 26  1  0
 18 23  2  0
 20 19  1  6
 19 31  1  0
 20 22  1  0
 20 32  1  0
 21 32  1  0
 24 25  3  0
 34 37  1  0
 34 38  1  0
 35 37  1  0
 35 38  1  0
 35 39  1  0
 35 40  1  0
 36 39  1  0
M  CHG  1  34   1
M  END
>  <s_m_entry_id>  (2) 
162

>  <s_m_entry_name>  (2) 
000000004.1

>  <s_m_Source_Path>  (2) 
/Users/zaksoul/Documents/3r_UNI/2nd_SEMESTER/BSC/FRAG_RECON/RESULTS/2

>  <s_m_Source_File>  (2) 
000000004.mol2

>  <i_m_Source_File_Index>  (2) 
1

$$$$
No_0_11,No_0_12,No_0_13
     RDKit          3D

 42 48  0  0  1  0  0  0  0  0999 V2000
   -5.0890    3.5430  -21.6640 C   0  0  0  0  0  0  0  0  0  0  0  0
   -5.3860    3.7070  -22.9970 C   0  0  0  0  0  0  0  0  0  0  0  0
   -3.8420    3.3080  -21.3470 C   0  0  0  0  0  0  0  0  0  0  0  0
   -2.9990    3.4070  -23.5330 C   0  0  0  0  0  0  0  0  0  0  0  0
   -2.8050    3.1880  -22.1120 C   0  0  0  0  0  0  0  0  0  0  0  0
   -4.3600    3.6480  -24.0290 C   0  0  0  0  0  0  0  0  0  0  0  0
   -3.6530    3.6400  -26.2430 C   0  0  0  0  0  0  0  0  0  0  0  0
    6.1950    3.0920  -21.1790 C   0  0  0  0  0  0  0  0  0  0  0  0
    6.0000    3.1900  -23.7270 C   0  0  0  0  0  0  0  0  0  0  0  0
   -4.6410    3.7500  -25.3600 C   0  0  0  0  0  0  0  0  0  0  0  0
    2.2100    3.7000  -23.6710 C   0  0  0  0  0  0  0  0  0  0  0  0
    1.3840    4.8050  -23.3720 C   0  0  0  0  0  0  0  0  0  0  0  0
    3.1840    6.0300  -22.7510 C   0  0  0  0  0  0  0  0  0  0  0  0
    3.6150    3.9100  -23.3910 C   0  0  0  0  0  0  0  0  0  0  0  0
    1.6620    2.5660  -24.3010 C   0  0  0  0  0  0  0  0  0  0  0  0
   -0.4710    3.3600  -24.1580 C   0  0  0  0  0  0  0  0  0  0  0  0
    0.0560    4.5950  -23.5910 C   0  0  0  0  0  0  0  0  0  0  0  0
   -1.9320    3.3460  -24.4810 C   0  0  0  0  0  0  0  0  0  0  0  0
    4.2530    1.4240  -23.0720 C   0  0  0  0  0  0  0  0  0  0  0  0
    5.2150    1.0960  -21.9400 C   0  0  2  0  0  0  0  0  0  0  0  0
    6.7800    2.6440  -22.5360 C   0  0  2  0  0  0  0  0  0  0  0  0
    5.2120    2.1170  -20.7890 C   0  0  0  0  0  0  0  0  0  0  0  0
   -2.2890    3.4780  -25.9040 C   0  0  0  0  0  0  0  0  0  0  0  0
   -1.4440    2.7990  -21.5360 C   0  0  0  0  0  0  0  0  0  0  0  0
   -0.3990    2.4700  -21.0480 C   0  0  0  0  0  0  0  0  0  0  0  0
   -0.7890    5.6380  -23.2450 F   0  0  0  0  0  0  0  0  0  0  0  0
   -3.5990    3.0910  -19.9660 F   0  0  0  0  0  0  0  0  0  0  0  0
    1.8610    5.9770  -22.8700 N   0  0  0  0  0  0  0  0  0  0  0  0
    4.0860    5.0730  -22.9750 N   0  0  0  0  0  0  0  0  0  0  0  0
    0.3500    2.4590  -24.5770 N   0  0  0  0  0  0  0  0  0  0  0  0
    4.5400    2.8690  -23.5710 N   0  0  0  0  0  0  0  0  0  0  0  0
    6.6100    1.1700  -22.4540 N   0  0  0  0  0  0  0  0  0  0  0  0
   -3.8560    3.6300  -27.6280 O   0  0  0  0  0  0  0  0  0  0  0  0
    5.2210    9.6720  -23.7710 O   0  0  0  0  0  0  0  0  0  0  0  0
    5.6910   11.0620  -22.0240 O   0  0  0  0  0  0  0  0  0  0  0  0
    7.0820    8.8060  -20.0200 N   0  0  0  0  0  0  0  0  0  0  0  0
    5.8610    8.7060  -21.6850 C   0  0  0  0  0  0  0  0  0  0  0  0
    3.7400    7.3820  -22.3170 C   0  0  0  0  0  0  0  0  0  0  0  0
    5.6000    8.9330  -20.1720 C   0  0  0  0  0  0  0  0  0  0  0  0
    7.3890    8.5820  -21.4660 C   0  0  0  0  0  0  0  0  0  0  0  0
    5.2770    7.3740  -22.1990 C   0  0  0  0  0  0  0  0  0  0  0  0
    5.5650    9.9050  -22.5590 C   0  0  0  0  0  0  0  0  0  0  0  0
  1  2  2  0
  1  3  1  0
  2  6  1  0
  3  5  2  0
  3 27  1  0
  4  5  1  0
  4  6  2  0
  4 18  1  0
  5 24  1  0
  6 10  1  0
  7 10  2  0
  7 23  1  0
  7 33  1  0
 21  8  1  1
  8 22  1  0
  9 21  1  0
  9 31  1  0
 11 12  1  0
 11 14  1  0
 11 15  2  0
 12 17  2  0
 12 28  1  0
 13 28  2  0
 13 29  1  0
 13 38  1  0
 14 29  2  0
 14 31  1  0
 15 30  1  0
 16 17  1  0
 16 18  1  0
 16 30  2  0
 17 26  1  0
 18 23  2  0
 20 19  1  6
 19 31  1  0
 20 22  1  0
 20 32  1  0
 21 32  1  0
 24 25  3  0
 34 42  1  0
 35 42  2  0
 36 39  1  0
 36 40  1  0
 37 39  1  0
 37 40  1  0
 37 41  1  0
 37 42  1  0
 38 41  1  0
M  CHG  2  34  -1  36   1
M  END
>  <s_m_entry_id>  (3) 
169

>  <s_m_entry_name>  (3) 
000000011.1

>  <s_m_Source_Path>  (3) 
/Users/zaksoul/Documents/3r_UNI/2nd_SEMESTER/BSC/FRAG_RECON/RESULTS/2

>  <s_m_Source_File>  (3) 
000000011.mol2

>  <i_m_Source_File_Index>  (3) 
1

$$$$
No_0_14,No_0_15,No_0_16,No_0_17,No_0_18
     RDKit          3D

 40 46  0  0  1  0  0  0  0  0999 V2000
   -4.9480    3.8980  -22.0120 C   0  0  0  0  0  0  0  0  0  0  0  0
   -5.2270    4.0720  -23.3470 C   0  0  0  0  0  0  0  0  0  0  0  0
   -3.7090    3.6350  -21.6820 C   0  0  0  0  0  0  0  0  0  0  0  0
   -2.8410    3.7240  -23.8590 C   0  0  0  0  0  0  0  0  0  0  0  0
   -2.6670    3.4960  -22.4370 C   0  0  0  0  0  0  0  0  0  0  0  0
   -4.1910    3.9950  -24.3680 C   0  0  0  0  0  0  0  0  0  0  0  0
   -3.4600    3.9800  -26.5750 C   0  0  0  0  0  0  0  0  0  0  0  0
    6.3190    3.2050  -21.4090 C   0  0  0  0  0  0  0  0  0  0  0  0
    6.1530    3.3170  -23.9580 C   0  0  0  0  0  0  0  0  0  0  0  0
   -4.4560    4.1080  -25.7020 C   0  0  0  0  0  0  0  0  0  0  0  0
    2.3750    3.9060  -23.9400 C   0  0  0  0  0  0  0  0  0  0  0  0
    1.5690    5.0270  -23.6460 C   0  0  0  0  0  0  0  0  0  0  0  0
    3.3880    6.2120  -23.0020 C   0  0  0  0  0  0  0  0  0  0  0  0
    3.7800    4.0850  -23.6450 C   0  0  0  0  0  0  0  0  0  0  0  0
    1.8090    2.7870  -24.5810 C   0  0  0  0  0  0  0  0  0  0  0  0
   -0.3080    3.6250  -24.4570 C   0  0  0  0  0  0  0  0  0  0  0  0
    0.2390    4.8470  -23.8800 C   0  0  0  0  0  0  0  0  0  0  0  0
   -1.7650    3.6430  -24.7960 C   0  0  0  0  0  0  0  0  0  0  0  0
    4.3620    1.5850  -23.3280 C   0  0  0  0  0  0  0  0  0  0  0  0
    5.3040    1.2330  -22.1870 C   0  0  2  0  0  0  0  0  0  0  0  0
    6.9080    2.7490  -22.7610 C   0  0  2  0  0  0  0  0  0  0  0  0
    5.3100    2.2490  -21.0330 C   0  0  0  0  0  0  0  0  0  0  0  0
   -2.1050    3.7880  -26.2220 C   0  0  0  0  0  0  0  0  0  0  0  0
   -1.3200    3.0750  -21.8480 C   0  0  0  0  0  0  0  0  0  0  0  0
   -0.2880    2.7220  -21.3500 C   0  0  0  0  0  0  0  0  0  0  0  0
   -0.5880    5.9060  -23.5390 F   0  0  0  0  0  0  0  0  0  0  0  0
   -3.4860    3.4080  -20.2990 F   0  0  0  0  0  0  0  0  0  0  0  0
    2.0650    6.1880  -23.1350 N   0  0  0  0  0  0  0  0  0  0  0  0
    4.2710    5.2360  -23.2190 N   0  0  0  0  0  0  0  0  0  0  0  0
    0.4980    2.7080  -24.8710 N   0  0  0  0  0  0  0  0  0  0  0  0
    4.6850    3.0250  -23.8190 N   0  0  0  0  0  0  0  0  0  0  0  0
    6.7060    1.2790  -22.6860 N   0  0  0  0  0  0  0  0  0  0  0  0
   -3.6490    3.9800  -27.9630 O   0  0  0  0  0  0  0  0  0  0  0  0
    5.9920    9.7080  -22.6960 F   0  0  0  0  0  0  0  0  0  0  0  0
    6.9230    9.1670  -19.8400 N   0  0  0  0  0  0  0  0  0  0  0  0
    6.0450    8.7770  -21.6640 C   0  0  0  0  0  0  0  0  0  0  0  0
    3.9670    7.5500  -22.5570 C   0  0  0  0  0  0  0  0  0  0  0  0
    7.4820    8.6140  -21.1140 C   0  0  0  0  0  0  0  0  0  0  0  0
    5.5200    9.3550  -20.3270 C   0  0  0  0  0  0  0  0  0  0  0  0
    5.4240    7.4270  -22.0680 C   0  0  0  0  0  0  0  0  0  0  0  0
  1  2  2  0
  1  3  1  0
  2  6  1  0
  3  5  2  0
  3 27  1  0
  4  5  1  0
  4  6  2  0
  4 18  1  0
  5 24  1  0
  6 10  1  0
  7 10  2  0
  7 23  1  0
  7 33  1  0
 21  8  1  1
  8 22  1  0
  9 21  1  0
  9 31  1  0
 11 12  1  0
 11 14  1  0
 11 15  2  0
 12 17  2  0
 12 28  1  0
 13 28  2  0
 13 29  1  0
 13 37  1  0
 14 29  2  0
 14 31  1  0
 15 30  1  0
 16 17  1  0
 16 18  1  0
 16 30  2  0
 17 26  1  0
 18 23  2  0
 20 19  1  6
 19 31  1  0
 20 22  1  0
 20 32  1  0
 21 32  1  0
 24 25  3  0
 34 36  1  0
 35 38  1  0
 35 39  1  0
 36 38  1  0
 36 39  1  0
 36 40  1  0
 37 40  1  0
M  CHG  1  35   1
M  END
>  <s_m_entry_id>  (4) 
172

>  <s_m_entry_name>  (4) 
000000014.1

>  <s_m_Source_Path>  (4) 
/Users/zaksoul/Documents/3r_UNI/2nd_SEMESTER/BSC/FRAG_RECON/RESULTS/2

>  <s_m_Source_File>  (4) 
000000014.mol2

>  <i_m_Source_File_Index>  (4) 
1

$$$$
No_0_19,No_0_20,No_0_21,No_0_22,No_0_23
     RDKit          3D

 40 46  0  0  1  0  0  0  0  0999 V2000
   -5.2550    3.4330  -22.2180 C   0  0  0  0  0  0  0  0  0  0  0  0
   -5.5060    3.6310  -23.5550 C   0  0  0  0  0  0  0  0  0  0  0  0
   -4.0240    3.1640  -21.8660 C   0  0  0  0  0  0  0  0  0  0  0  0
   -3.1090    3.2890  -24.0220 C   0  0  0  0  0  0  0  0  0  0  0  0
   -2.9660    3.0370  -22.6010 C   0  0  0  0  0  0  0  0  0  0  0  0
   -4.4480    3.5700  -24.5550 C   0  0  0  0  0  0  0  0  0  0  0  0
   -3.6700    3.5920  -26.7460 C   0  0  0  0  0  0  0  0  0  0  0  0
    5.9950    2.7210  -21.3860 C   0  0  0  0  0  0  0  0  0  0  0  0
    5.8840    2.8760  -23.9360 C   0  0  0  0  0  0  0  0  0  0  0  0
   -4.6840    3.7060  -25.8930 C   0  0  0  0  0  0  0  0  0  0  0  0
    2.1070    3.4690  -23.9890 C   0  0  0  0  0  0  0  0  0  0  0  0
    1.2960    4.5850  -23.6930 C   0  0  0  0  0  0  0  0  0  0  0  0
    3.1010    5.7570  -22.9900 C   0  0  0  0  0  0  0  0  0  0  0  0
    3.5060    3.6420  -23.6610 C   0  0  0  0  0  0  0  0  0  0  0  0
    1.5540    2.3610  -24.6600 C   0  0  0  0  0  0  0  0  0  0  0  0
   -0.5650    3.1990  -24.5680 C   0  0  0  0  0  0  0  0  0  0  0  0
   -0.0300    4.4100  -23.9580 C   0  0  0  0  0  0  0  0  0  0  0  0
   -2.0140    3.2230  -24.9370 C   0  0  0  0  0  0  0  0  0  0  0  0
    4.0790    1.1360  -23.3740 C   0  0  0  0  0  0  0  0  0  0  0  0
    4.9970    0.7640  -22.2190 C   0  0  2  0  0  0  0  0  0  0  0  0
    6.6130    2.2880  -22.7330 C   0  0  2  0  0  0  0  0  0  0  0  0
    4.9790    1.7600  -21.0480 C   0  0  0  0  0  0  0  0  0  0  0  0
   -2.3230    3.3930  -26.3670 C   0  0  0  0  0  0  0  0  0  0  0  0
   -1.6320    2.6050  -21.9910 C   0  0  0  0  0  0  0  0  0  0  0  0
   -0.6110    2.2430  -21.4760 C   0  0  0  0  0  0  0  0  0  0  0  0
   -0.8630    5.4630  -23.6170 F   0  0  0  0  0  0  0  0  0  0  0  0
   -3.8300    2.9130  -20.4830 F   0  0  0  0  0  0  0  0  0  0  0  0
    1.7810    5.7360  -23.1510 N   0  0  0  0  0  0  0  0  0  0  0  0
    3.9880    4.7850  -23.2050 N   0  0  0  0  0  0  0  0  0  0  0  0
    0.2500    2.2880  -24.9790 N   0  0  0  0  0  0  0  0  0  0  0  0
    4.4140    2.5840  -23.8330 N   0  0  0  0  0  0  0  0  0  0  0  0
    6.4090    0.8170  -22.6870 N   0  0  0  0  0  0  0  0  0  0  0  0
   -3.8290    3.6150  -28.1370 O   0  0  0  0  0  0  0  0  0  0  0  0
    8.7990    9.1090  -21.6480 N   0  0  0  0  0  0  0  0  0  0  0  0
    7.1260    8.0790  -21.0240 C   0  0  0  0  0  0  0  0  0  0  0  0
    5.7060    8.3050  -21.5790 C   0  0  0  0  0  0  0  0  0  0  0  0
    5.1140    6.9500  -21.9940 C   0  0  0  0  0  0  0  0  0  0  0  0
    7.8000    9.3950  -20.5720 C   0  0  0  0  0  0  0  0  0  0  0  0
    8.1830    7.8340  -22.1290 C   0  0  0  0  0  0  0  0  0  0  0  0
    3.6710    7.0880  -22.5100 C   0  0  0  0  0  0  0  0  0  0  0  0
  1  2  2  0
  1  3  1  0
  2  6  1  0
  3  5  2  0
  3 27  1  0
  4  5  1  0
  4  6  2  0
  4 18  1  0
  5 24  1  0
  6 10  1  0
  7 10  2  0
  7 23  1  0
  7 33  1  0
 21  8  1  1
  8 22  1  0
  9 21  1  0
  9 31  1  0
 11 12  1  0
 11 14  1  0
 11 15  2  0
 12 17  2  0
 12 28  1  0
 13 28  2  0
 13 29  1  0
 13 40  1  0
 14 29  2  0
 14 31  1  0
 15 30  1  0
 16 17  1  0
 16 18  1  0
 16 30  2  0
 17 26  1  0
 18 23  2  0
 20 19  1  6
 19 31  1  0
 20 22  1  0
 20 32  1  0
 21 32  1  0
 24 25  3  0
 34 38  1  0
 34 39  1  0
 35 36  1  0
 35 38  1  0
 35 39  1  0
 36 37  1  0
 37 40  1  0
M  CHG  1  34   1
M  END
>  <s_m_entry_id>  (5) 
177

>  <s_m_entry_name>  (5) 
000000019.1

>  <s_m_Source_Path>  (5) 
/Users/zaksoul/Documents/3r_UNI/2nd_SEMESTER/BSC/FRAG_RECON/RESULTS/2

>  <s_m_Source_File>  (5) 
000000019.mol2

>  <i_m_Source_File_Index>  (5) 
1

$$$$
No_0_24,No_0_25,No_0_26
     RDKit          3D

 41 47  0  0  1  0  0  0  0  0999 V2000
   -5.3990    3.4070  -22.0290 C   0  0  0  0  0  0  0  0  0  0  0  0
   -5.6720    3.5930  -23.3630 C   0  0  0  0  0  0  0  0  0  0  0  0
   -4.1560    3.1740  -21.6920 C   0  0  0  0  0  0  0  0  0  0  0  0
   -3.2730    3.3180  -23.8600 C   0  0  0  0  0  0  0  0  0  0  0  0
   -3.1040    3.0740  -22.4400 C   0  0  0  0  0  0  0  0  0  0  0  0
   -4.6270    3.5590  -24.3760 C   0  0  0  0  0  0  0  0  0  0  0  0
   -3.8780    3.5960  -26.5770 C   0  0  0  0  0  0  0  0  0  0  0  0
    5.8770    3.0170  -21.3410 C   0  0  0  0  0  0  0  0  0  0  0  0
    5.7290    3.1610  -23.8890 C   0  0  0  0  0  0  0  0  0  0  0  0
   -4.8840    3.6840  -25.7110 C   0  0  0  0  0  0  0  0  0  0  0  0
    1.9350    3.6450  -23.8950 C   0  0  0  0  0  0  0  0  0  0  0  0
    1.0970    4.7400  -23.5920 C   0  0  0  0  0  0  0  0  0  0  0  0
    2.8770    5.9640  -22.9160 C   0  0  0  0  0  0  0  0  0  0  0  0
    3.3330    3.8590  -23.5860 C   0  0  0  0  0  0  0  0  0  0  0  0
    1.4060    2.5200  -24.5560 C   0  0  0  0  0  0  0  0  0  0  0  0
   -0.7350    3.2980  -24.4380 C   0  0  0  0  0  0  0  0  0  0  0  0
   -0.2260    4.5260  -23.8390 C   0  0  0  0  0  0  0  0  0  0  0  0
   -2.1880    3.2800  -24.7890 C   0  0  0  0  0  0  0  0  0  0  0  0
    3.9810    1.3710  -23.2990 C   0  0  0  0  0  0  0  0  0  0  0  0
    4.9240    1.0290  -22.1560 C   0  0  2  0  0  0  0  0  0  0  0  0
    6.4890    2.5970  -22.6950 C   0  0  2  0  0  0  0  0  0  0  0  0
    4.8930    2.0290  -20.9870 C   0  0  0  0  0  0  0  0  0  0  0  0
   -2.5210    3.4360  -26.2150 C   0  0  0  0  0  0  0  0  0  0  0  0
   -1.7520    2.6830  -21.8460 C   0  0  0  0  0  0  0  0  0  0  0  0
   -0.7140    2.3510  -21.3440 C   0  0  0  0  0  0  0  0  0  0  0  0
   -1.0850    5.5560  -23.4910 F   0  0  0  0  0  0  0  0  0  0  0  0
   -3.9380    2.9330  -20.3110 F   0  0  0  0  0  0  0  0  0  0  0  0
    1.5560    5.9060  -23.0600 N   0  0  0  0  0  0  0  0  0  0  0  0
    3.7880    5.0170  -23.1400 N   0  0  0  0  0  0  0  0  0  0  0  0
    0.1000    2.4090  -24.8580 N   0  0  0  0  0  0  0  0  0  0  0  0
    4.2680    2.8270  -23.7670 N   0  0  0  0  0  0  0  0  0  0  0  0
    6.3280    1.1210  -22.6420 N   0  0  0  0  0  0  0  0  0  0  0  0
   -4.0550    3.6100  -27.9660 O   0  0  0  0  0  0  0  0  0  0  0  0
    5.6610    9.5090  -22.8300 F   0  0  0  0  0  0  0  0  0  0  0  0
    7.8540    9.7970  -20.7330 N   0  0  0  0  0  0  0  0  0  0  0  0
    6.0260    9.2420  -21.5150 C   0  0  0  0  0  0  0  0  0  0  0  0
    4.8980    8.5430  -20.7280 C   0  0  0  0  0  0  0  0  0  0  0  0
    4.4720    7.1870  -21.3300 C   0  0  0  0  0  0  0  0  0  0  0  0
    6.5430   10.5160  -20.8030 C   0  0  0  0  0  0  0  0  0  0  0  0
    7.4070    8.5470  -21.4250 C   0  0  0  0  0  0  0  0  0  0  0  0
    3.4150    7.3120  -22.4470 C   0  0  0  0  0  0  0  0  0  0  0  0
  1  2  2  0
  1  3  1  0
  2  6  1  0
  3  5  2  0
  3 27  1  0
  4  5  1  0
  4  6  2  0
  4 18  1  0
  5 24  1  0
  6 10  1  0
  7 10  2  0
  7 23  1  0
  7 33  1  0
 21  8  1  1
  8 22  1  0
  9 21  1  0
  9 31  1  0
 11 12  1  0
 11 14  1  0
 11 15  2  0
 12 17  2  0
 12 28  1  0
 13 28  2  0
 13 29  1  0
 13 41  1  0
 14 29  2  0
 14 31  1  0
 15 30  1  0
 16 17  1  0
 16 18  1  0
 16 30  2  0
 17 26  1  0
 18 23  2  0
 20 19  1  6
 19 31  1  0
 20 22  1  0
 20 32  1  0
 21 32  1  0
 24 25  3  0
 34 36  1  0
 35 39  1  0
 35 40  1  0
 36 37  1  0
 36 39  1  0
 36 40  1  0
 37 38  1  0
 38 41  1  0
M  CHG  1  35   1
M  END
>  <s_m_entry_id>  (6) 
182

>  <s_m_entry_name>  (6) 
000000024.1

>  <s_m_Source_Path>  (6) 
/Users/zaksoul/Documents/3r_UNI/2nd_SEMESTER/BSC/FRAG_RECON/RESULTS/2

>  <s_m_Source_File>  (6) 
000000024.mol2

>  <i_m_Source_File_Index>  (6) 
1

$$$$
No_0_27,No_0_28,No_0_29
     RDKit          3D

 40 45  0  0  1  0  0  0  0  0999 V2000
   -5.2550    3.7240  -21.8970 C   0  0  0  0  0  0  0  0  0  0  0  0
   -5.5380    3.9140  -23.2290 C   0  0  0  0  0  0  0  0  0  0  0  0
   -4.0110    3.4790  -21.5720 C   0  0  0  0  0  0  0  0  0  0  0  0
   -3.1460    3.6160  -23.7470 C   0  0  0  0  0  0  0  0  0  0  0  0
   -2.9670    3.3700  -22.3300 C   0  0  0  0  0  0  0  0  0  0  0  0
   -4.5020    3.8710  -24.2520 C   0  0  0  0  0  0  0  0  0  0  0  0
   -3.7730    3.9030  -26.4590 C   0  0  0  0  0  0  0  0  0  0  0  0
    6.0230    3.2250  -21.3110 C   0  0  0  0  0  0  0  0  0  0  0  0
    5.8530    3.3720  -23.8590 C   0  0  0  0  0  0  0  0  0  0  0  0
   -4.7700    3.9990  -25.5840 C   0  0  0  0  0  0  0  0  0  0  0  0
    2.0650    3.8930  -23.8300 C   0  0  0  0  0  0  0  0  0  0  0  0
    1.2390    4.9950  -23.5180 C   0  0  0  0  0  0  0  0  0  0  0  0
    3.0370    6.2020  -22.8570 C   0  0  0  0  0  0  0  0  0  0  0  0
    3.4670    4.0930  -23.5330 C   0  0  0  0  0  0  0  0  0  0  0  0
    1.5180    2.7740  -24.4870 C   0  0  0  0  0  0  0  0  0  0  0  0
   -0.6130    3.5720  -24.3490 C   0  0  0  0  0  0  0  0  0  0  0  0
   -0.0880    4.7950  -23.7530 C   0  0  0  0  0  0  0  0  0  0  0  0
   -2.0700    3.5690  -24.6860 C   0  0  0  0  0  0  0  0  0  0  0  0
    4.0940    1.5990  -23.2540 C   0  0  0  0  0  0  0  0  0  0  0  0
    5.0430    1.2470  -22.1190 C   0  0  2  0  0  0  0  0  0  0  0  0
    6.6190    2.8000  -22.6710 C   0  0  2  0  0  0  0  0  0  0  0  0
    5.0320    2.2460  -20.9500 C   0  0  0  0  0  0  0  0  0  0  0  0
   -2.4140    3.7290  -26.1100 C   0  0  0  0  0  0  0  0  0  0  0  0
   -1.6130    2.9650  -21.7480 C   0  0  0  0  0  0  0  0  0  0  0  0
   -0.5740    2.6230  -21.2550 C   0  0  0  0  0  0  0  0  0  0  0  0
   -0.9330    5.8330  -23.3970 F   0  0  0  0  0  0  0  0  0  0  0  0
   -3.7820    3.2350  -20.1930 F   0  0  0  0  0  0  0  0  0  0  0  0
    1.7150    6.1560  -22.9900 N   0  0  0  0  0  0  0  0  0  0  0  0
    3.9380    5.2460  -23.0900 N   0  0  0  0  0  0  0  0  0  0  0  0
    0.2090    2.6760  -24.7770 N   0  0  0  0  0  0  0  0  0  0  0  0
    4.3900    3.0520  -23.7230 N   0  0  0  0  0  0  0  0  0  0  0  0
    6.4440    1.3250  -22.6180 N   0  0  0  0  0  0  0  0  0  0  0  0
   -3.9630    3.9190  -27.8460 O   0  0  0  0  0  0  0  0  0  0  0  0
    8.8280    8.4860  -20.8740 N   0  0  0  0  0  0  0  0  0  0  0  0
    7.4580    8.4310  -20.2580 C   0  0  0  0  0  0  0  0  0  0  0  0
    4.9740    8.8310  -20.6800 C   0  0  0  0  0  0  0  0  0  0  0  0
    4.3070    7.4850  -21.0260 C   0  0  0  0  0  0  0  0  0  0  0  0
    6.4020    8.9360  -21.2600 C   0  0  0  0  0  0  0  0  0  0  0  0
    9.9480    8.1860  -19.9200 C   0  0  0  0  0  0  0  0  0  0  0  0
    3.5930    7.5440  -22.3920 C   0  0  0  0  0  0  0  0  0  0  0  0
  1  2  2  0
  1  3  1  0
  2  6  1  0
  3  5  2  0
  3 27  1  0
  4  5  1  0
  4  6  2  0
  4 18  1  0
  5 24  1  0
  6 10  1  0
  7 10  2  0
  7 23  1  0
  7 33  1  0
 21  8  1  1
  8 22  1  0
  9 21  1  0
  9 31  1  0
 11 12  2  0
 11 14  1  0
 11 15  1  0
 12 17  1  0
 12 28  1  0
 13 28  2  0
 13 29  1  0
 13 40  1  0
 14 29  2  0
 14 31  1  0
 15 30  2  0
 16 17  2  0
 16 18  1  0
 16 30  1  0
 17 26  1  0
 18 23  2  0
 20 19  1  6
 19 31  1  0
 20 22  1  0
 20 32  1  0
 21 32  1  0
 24 25  3  0
 34 35  1  0
 34 39  1  0
 35 38  1  0
 36 37  1  0
 36 38  1  0
 37 40  1  0
M  CHG  1  34   1
M  END
>  <s_m_entry_id>  (7) 
185

>  <s_m_entry_name>  (7) 
000000027.1

>  <s_m_Source_Path>  (7) 
/Users/zaksoul/Documents/3r_UNI/2nd_SEMESTER/BSC/FRAG_RECON/RESULTS/2

>  <s_m_Source_File>  (7) 
000000027.mol2

>  <i_m_Source_File_Index>  (7) 
1

$$$$
No_0_30,No_0_31,No_0_32,No_0_33,No_0_34,No_0_35,No_0_36,No_0_37
     RDKit          3D

 40 46  0  0  1  0  0  0  0  0999 V2000
   -4.9210    3.7970  -21.8720 C   0  0  0  0  0  0  0  0  0  0  0  0
   -5.1820    4.0480  -23.1980 C   0  0  0  0  0  0  0  0  0  0  0  0
   -3.6940    3.4810  -21.5460 C   0  0  0  0  0  0  0  0  0  0  0  0
   -2.8020    3.6570  -23.7080 C   0  0  0  0  0  0  0  0  0  0  0  0
   -2.6480    3.3500  -22.2980 C   0  0  0  0  0  0  0  0  0  0  0  0
   -4.1390    3.9930  -24.2130 C   0  0  0  0  0  0  0  0  0  0  0  0
   -3.3880    4.0710  -26.4120 C   0  0  0  0  0  0  0  0  0  0  0  0
    6.3140    2.7420  -21.2120 C   0  0  0  0  0  0  0  0  0  0  0  0
    6.1770    2.9900  -23.7540 C   0  0  0  0  0  0  0  0  0  0  0  0
   -4.3870    4.1830  -25.5420 C   0  0  0  0  0  0  0  0  0  0  0  0
    2.4170    3.6890  -23.7370 C   0  0  0  0  0  0  0  0  0  0  0  0
    1.6410    4.8170  -23.3910 C   0  0  0  0  0  0  0  0  0  0  0  0
    3.4870    5.9120  -22.6710 C   0  0  0  0  0  0  0  0  0  0  0  0
    3.8240    3.8120  -23.4210 C   0  0  0  0  0  0  0  0  0  0  0  0
    1.8250    2.6220  -24.4390 C   0  0  0  0  0  0  0  0  0  0  0  0
   -0.2680    3.5140  -24.2900 C   0  0  0  0  0  0  0  0  0  0  0  0
    0.3080    4.6880  -23.6450 C   0  0  0  0  0  0  0  0  0  0  0  0
   -1.7200    3.5920  -24.6380 C   0  0  0  0  0  0  0  0  0  0  0  0
    4.3300    1.2820  -23.2290 C   0  0  0  0  0  0  0  0  0  0  0  0
    5.2510    0.8440  -22.1010 C   0  0  2  0  0  0  0  0  0  0  0  0
    6.9030    2.3400  -22.5820 C   0  0  2  0  0  0  0  0  0  0  0  0
    5.2750    1.7990  -20.8950 C   0  0  0  0  0  0  0  0  0  0  0  0
   -2.0420    3.8210  -26.0580 C   0  0  0  0  0  0  0  0  0  0  0  0
   -1.3210    2.8600  -21.7210 C   0  0  0  0  0  0  0  0  0  0  0  0
   -0.3040    2.4520  -21.2330 C   0  0  0  0  0  0  0  0  0  0  0  0
   -0.4900    5.7520  -23.2570 F   0  0  0  0  0  0  0  0  0  0  0  0
   -3.4900    3.1760  -20.1750 F   0  0  0  0  0  0  0  0  0  0  0  0
    2.1660    5.9340  -22.8160 N   0  0  0  0  0  0  0  0  0  0  0  0
    4.3440    4.9240  -22.9320 N   0  0  0  0  0  0  0  0  0  0  0  0
    0.5160    2.5960  -24.7430 N   0  0  0  0  0  0  0  0  0  0  0  0
    4.6990    2.7350  -23.6420 N   0  0  0  0  0  0  0  0  0  0  0  0
    6.6580    0.8740  -22.5850 N   0  0  0  0  0  0  0  0  0  0  0  0
   -3.5620    4.1470  -27.7990 O   0  0  0  0  0  0  0  0  0  0  0  0
    6.0940    9.7150  -21.3150 N   0  0  0  0  0  0  0  0  0  0  0  0
    7.4780   10.1630  -21.0640 C   0  0  0  0  0  0  0  0  0  0  0  0
    7.1420    8.7450  -21.6960 C   0  0  0  0  0  0  0  0  0  0  0  0
    3.7940    9.1460  -20.4670 C   0  0  0  0  0  0  0  0  0  0  0  0
    5.2610    9.4360  -20.0950 C   0  0  0  0  0  0  0  0  0  0  0  0
    4.1010    7.2090  -22.1530 C   0  0  0  0  0  0  0  0  0  0  0  0
    3.5210    7.6680  -20.8000 C   0  0  0  0  0  0  0  0  0  0  0  0
  1  2  2  0
  1  3  1  0
  2  6  1  0
  3  5  2  0
  3 27  1  0
  4  5  1  0
  4  6  2  0
  4 18  1  0
  5 24  1  0
  6 10  1  0
  7 10  2  0
  7 23  1  0
  7 33  1  0
 21  8  1  1
  8 22  1  0
  9 21  1  0
  9 31  1  0
 11 12  1  0
 11 14  1  0
 11 15  2  0
 12 17  2  0
 12 28  1  0
 13 28  2  0
 13 29  1  0
 13 39  1  0
 14 29  2  0
 14 31  1  0
 15 30  1  0
 16 17  1  0
 16 18  1  0
 16 30  2  0
 17 26  1  0
 18 23  2  0
 20 19  1  6
 19 31  1  0
 20 22  1  0
 20 32  1  0
 21 32  1  0
 24 25  3  0
 34 35  1  0
 34 36  1  0
 34 38  1  0
 35 36  1  0
 37 38  1  0
 37 40  1  0
 39 40  1  0
M  CHG  1  34   1
M  END
>  <s_m_entry_id>  (8) 
188

>  <s_m_entry_name>  (8) 
000000030.1

>  <s_m_Source_Path>  (8) 
/Users/zaksoul/Documents/3r_UNI/2nd_SEMESTER/BSC/FRAG_RECON/RESULTS/2

>  <s_m_Source_File>  (8) 
000000030.mol2

>  <i_m_Source_File_Index>  (8) 
1

$$$$
No_0_38,No_0_39,No_0_40,No_0_41,No_0_42,No_0_43,No_0_44,No_0_45
     RDKit          3D

 40 45  0  0  1  0  0  0  0  0999 V2000
   -5.2280    3.8300  -22.0120 C   0  0  0  0  0  0  0  0  0  0  0  0
   -5.5130    4.0240  -23.3430 C   0  0  0  0  0  0  0  0  0  0  0  0
   -3.9860    3.5720  -21.6900 C   0  0  0  0  0  0  0  0  0  0  0  0
   -3.1250    3.7020  -23.8670 C   0  0  0  0  0  0  0  0  0  0  0  0
   -2.9450    3.4530  -22.4500 C   0  0  0  0  0  0  0  0  0  0  0  0
   -4.4790    3.9710  -24.3680 C   0  0  0  0  0  0  0  0  0  0  0  0
   -3.7550    3.9980  -26.5770 C   0  0  0  0  0  0  0  0  0  0  0  0
    6.0450    3.2150  -21.4530 C   0  0  0  0  0  0  0  0  0  0  0  0
    5.8710    3.3660  -24.0000 C   0  0  0  0  0  0  0  0  0  0  0  0
   -4.7490    4.1040  -25.7000 C   0  0  0  0  0  0  0  0  0  0  0  0
    2.0880    3.9260  -23.9610 C   0  0  0  0  0  0  0  0  0  0  0  0
    1.2750    5.0360  -23.6470 C   0  0  0  0  0  0  0  0  0  0  0  0
    3.0870    6.2240  -22.9890 C   0  0  0  0  0  0  0  0  0  0  0  0
    3.4930    4.1110  -23.6670 C   0  0  0  0  0  0  0  0  0  0  0  0
    1.5290    2.8130  -24.6180 C   0  0  0  0  0  0  0  0  0  0  0  0
   -0.5940    3.6330  -24.4750 C   0  0  0  0  0  0  0  0  0  0  0  0
   -0.0550    4.8490  -23.8790 C   0  0  0  0  0  0  0  0  0  0  0  0
   -2.0520    3.6450  -24.8090 C   0  0  0  0  0  0  0  0  0  0  0  0
    4.0950    1.6110  -23.3920 C   0  0  0  0  0  0  0  0  0  0  0  0
    5.0440    1.2480  -22.2600 C   0  0  2  0  0  0  0  0  0  0  0  0
    6.6340    2.7850  -22.8140 C   0  0  2  0  0  0  0  0  0  0  0  0
    5.0460    2.2450  -21.0900 C   0  0  0  0  0  0  0  0  0  0  0  0
   -2.3970    3.8100  -26.2310 C   0  0  0  0  0  0  0  0  0  0  0  0
   -1.5940    3.0330  -21.8720 C   0  0  0  0  0  0  0  0  0  0  0  0
   -0.5570    2.6800  -21.3820 C   0  0  0  0  0  0  0  0  0  0  0  0
   -0.8880    5.8960  -23.5200 F   0  0  0  0  0  0  0  0  0  0  0  0
   -3.7570    3.3240  -20.3120 F   0  0  0  0  0  0  0  0  0  0  0  0
    1.7630    6.1920  -23.1180 N   0  0  0  0  0  0  0  0  0  0  0  0
    3.9770    5.2590  -23.2250 N   0  0  0  0  0  0  0  0  0  0  0  0
    0.2180    2.7290  -24.9050 N   0  0  0  0  0  0  0  0  0  0  0  0
    4.4060    3.0610  -23.8610 N   0  0  0  0  0  0  0  0  0  0  0  0
    6.4440    1.3120  -22.7630 N   0  0  0  0  0  0  0  0  0  0  0  0
   -3.9480    4.0180  -27.9640 O   0  0  0  0  0  0  0  0  0  0  0  0
    6.4660    7.9340  -21.2490 O   0  0  0  0  0  0  0  0  0  0  0  0
    6.4030   11.2990  -21.3500 N   0  0  0  0  0  0  0  0  0  0  0  0
    3.6570    7.5600  -22.5240 C   0  0  0  0  0  0  0  0  0  0  0  0
    3.6950    7.7060  -20.9920 C   0  0  0  0  0  0  0  0  0  0  0  0
    4.4230    9.0010  -20.5980 C   0  0  0  0  0  0  0  0  0  0  0  0
    5.9170    8.9240  -20.8210 C   0  0  0  0  0  0  0  0  0  0  0  0
    6.7280   10.1410  -20.4500 C   0  0  0  0  0  0  0  0  0  0  0  0
  1  2  2  0
  1  3  1  0
  2  6  1  0
  3  5  2  0
  3 27  1  0
  4  5  1  0
  4  6  2  0
  4 18  1  0
  5 24  1  0
  6 10  1  0
  7 10  2  0
  7 23  1  0
  7 33  1  0
 21  8  1  1
  8 22  1  0
  9 21  1  0
  9 31  1  0
 11 12  2  0
 11 14  1  0
 11 15  1  0
 12 17  1  0
 12 28  1  0
 13 28  2  0
 13 29  1  0
 13 36  1  0
 14 29  2  0
 14 31  1  0
 15 30  2  0
 16 17  2  0
 16 18  1  0
 16 30  1  0
 17 26  1  0
 18 23  2  0
 20 19  1  6
 19 31  1  0
 20 22  1  0
 20 32  1  0
 21 32  1  0
 24 25  3  0
 34 39  2  0
 35 40  1  0
 36 37  1  0
 37 38  1  0
 38 39  1  0
 39 40  1  0
M  CHG  1  35   1
M  END
>  <s_m_entry_id>  (9) 
196

>  <s_m_entry_name>  (9) 
000000038.1

>  <s_m_Source_Path>  (9) 
/Users/zaksoul/Documents/3r_UNI/2nd_SEMESTER/BSC/FRAG_RECON/RESULTS/2

>  <s_m_Source_File>  (9) 
000000038.mol2

>  <i_m_Source_File_Index>  (9) 
1

$$$$
No_0_46
     RDKit          3D

 44 50  0  0  1  0  0  0  0  0999 V2000
   -5.1640    3.6080  -22.3330 C   0  0  0  0  0  0  0  0  0  0  0  0
   -5.4040    3.7590  -23.6780 C   0  0  0  0  0  0  0  0  0  0  0  0
   -3.9280    3.3910  -21.9590 C   0  0  0  0  0  0  0  0  0  0  0  0
   -2.9920    3.4850  -24.1070 C   0  0  0  0  0  0  0  0  0  0  0  0
   -2.8570    3.2780  -22.6780 C   0  0  0  0  0  0  0  0  0  0  0  0
   -4.3330    3.7050  -24.6640 C   0  0  0  0  0  0  0  0  0  0  0  0
   -3.5290    3.6900  -26.8450 C   0  0  0  0  0  0  0  0  0  0  0  0
    6.0940    3.3000  -21.3530 C   0  0  0  0  0  0  0  0  0  0  0  0
    6.0090    3.3780  -23.9070 C   0  0  0  0  0  0  0  0  0  0  0  0
   -4.5570    3.7940  -26.0070 C   0  0  0  0  0  0  0  0  0  0  0  0
    2.2140    3.8410  -24.0200 C   0  0  0  0  0  0  0  0  0  0  0  0
    1.3630    4.9380  -23.7660 C   0  0  0  0  0  0  0  0  0  0  0  0
    3.1190    6.1890  -23.0770 C   0  0  0  0  0  0  0  0  0  0  0  0
    3.6030    4.0700  -23.6810 C   0  0  0  0  0  0  0  0  0  0  0  0
    1.7070    2.6960  -24.6660 C   0  0  0  0  0  0  0  0  0  0  0  0
   -0.4390    3.4640  -24.6210 C   0  0  0  0  0  0  0  0  0  0  0  0
    0.0480    4.7100  -24.0410 C   0  0  0  0  0  0  0  0  0  0  0  0
   -1.8840    3.4300  -25.0070 C   0  0  0  0  0  0  0  0  0  0  0  0
    4.2560    1.5950  -23.3150 C   0  0  0  0  0  0  0  0  0  0  0  0
    5.1710    1.2870  -22.1400 C   0  0  2  0  0  0  0  0  0  0  0  0
    6.7420    2.8500  -22.6800 C   0  0  2  0  0  0  0  0  0  0  0  0
    5.1060    2.3160  -20.9990 C   0  0  0  0  0  0  0  0  0  0  0  0
   -2.1800    3.5470  -26.4460 C   0  0  0  0  0  0  0  0  0  0  0  0
   -1.5180    2.9100  -22.0410 C   0  0  0  0  0  0  0  0  0  0  0  0
   -0.4920    2.5970  -21.5040 C   0  0  0  0  0  0  0  0  0  0  0  0
   -0.8240    5.7440  -23.7410 F   0  0  0  0  0  0  0  0  0  0  0  0
   -3.7430    3.1870  -20.5670 F   0  0  0  0  0  0  0  0  0  0  0  0
    1.8030    6.1200  -23.2530 N   0  0  0  0  0  0  0  0  0  0  0  0
    4.0410    5.2420  -23.2540 N   0  0  0  0  0  0  0  0  0  0  0  0
    0.4100    2.5700  -24.9970 N   0  0  0  0  0  0  0  0  0  0  0  0
    4.5470    3.0390  -23.8130 N   0  0  0  0  0  0  0  0  0  0  0  0
    6.5870    1.3740  -22.5930 N   0  0  0  0  0  0  0  0  0  0  0  0
   -3.6710    3.6680  -28.2380 O   0  0  0  0  0  0  0  0  0  0  0  0
    5.7930    9.3000  -21.0890 N   0  0  0  0  0  0  0  0  0  0  0  0
    5.3880   10.7220  -23.0530 N   0  0  0  0  0  0  0  0  0  0  0  0
    7.4810    9.8470  -22.3550 N   0  0  0  0  0  0  0  0  0  0  0  0
    3.9560    7.5910  -21.1230 C   0  0  0  0  0  0  0  0  0  0  0  0
    8.1240    9.0820  -21.3030 C   0  0  0  0  0  0  0  0  0  0  0  0
    6.9360    8.7750  -20.3540 C   0  0  0  0  0  0  0  0  0  0  0  0
    4.4450    8.9670  -20.6310 C   0  0  0  0  0  0  0  0  0  0  0  0
    3.6390    7.5520  -22.6300 C   0  0  0  0  0  0  0  0  0  0  0  0
    6.1510    9.9850  -22.2000 C   0  0  0  0  0  0  0  0  0  0  0  0
    5.8270   10.9660  -24.4210 C   0  0  0  0  0  0  0  0  0  0  0  0
    4.1480   11.3850  -22.6690 C   0  0  0  0  0  0  0  0  0  0  0  0
  1  2  2  0
  1  3  1  0
  2  6  1  0
  3  5  2  0
  3 27  1  0
  4  5  1  0
  4  6  2  0
  4 18  1  0
  5 24  1  0
  6 10  1  0
  7 10  2  0
  7 23  1  0
  7 33  1  0
 21  8  1  1
  8 22  1  0
  9 21  1  0
  9 31  1  0
 11 12  1  0
 11 14  1  0
 11 15  2  0
 12 17  2  0
 12 28  1  0
 13 28  2  0
 13 29  1  0
 13 41  1  0
 14 29  2  0
 14 31  1  0
 15 30  1  0
 16 17  1  0
 16 18  1  0
 16 30  2  0
 17 26  1  0
 18 23  2  0
 20 19  1  6
 19 31  1  0
 20 22  1  0
 20 32  1  0
 21 32  1  0
 24 25  3  0
 34 39  1  0
 34 40  1  0
 34 42  2  0
 35 42  1  0
 35 43  1  0
 35 44  1  0
 36 38  1  0
 36 42  1  0
 37 40  1  0
 37 41  1  0
 38 39  1  0
M  CHG  1  34   1
M  END
>  <s_m_entry_id>  (10) 
204

>  <s_m_entry_name>  (10) 
000000046.1

>  <s_m_Source_Path>  (10) 
/Users/zaksoul/Documents/3r_UNI/2nd_SEMESTER/BSC/FRAG_RECON/RESULTS/2

>  <s_m_Source_File>  (10) 
000000046.mol2

>  <i_m_Source_File_Index>  (10) 
1

$$$$
No_0_47,No_0_48,No_0_49
     RDKit          3D

 42 48  0  0  1  0  0  0  0  0999 V2000
   -4.9150    3.7820  -22.0020 C   0  0  0  0  0  0  0  0  0  0  0  0
   -5.1800    3.9610  -23.3390 C   0  0  0  0  0  0  0  0  0  0  0  0
   -3.6810    3.5090  -21.6600 C   0  0  0  0  0  0  0  0  0  0  0  0
   -2.7910    3.5940  -23.8280 C   0  0  0  0  0  0  0  0  0  0  0  0
   -2.6330    3.3630  -22.4060 C   0  0  0  0  0  0  0  0  0  0  0  0
   -4.1340    3.8770  -24.3500 C   0  0  0  0  0  0  0  0  0  0  0  0
   -3.3830    3.8590  -26.5500 C   0  0  0  0  0  0  0  0  0  0  0  0
    6.3400    2.9990  -21.2920 C   0  0  0  0  0  0  0  0  0  0  0  0
    6.1990    3.1150  -23.8420 C   0  0  0  0  0  0  0  0  0  0  0  0
   -4.3860    3.9940  -25.6870 C   0  0  0  0  0  0  0  0  0  0  0  0
    2.4260    3.7350  -23.8600 C   0  0  0  0  0  0  0  0  0  0  0  0
    1.6270    4.8620  -23.5720 C   0  0  0  0  0  0  0  0  0  0  0  0
    3.4480    6.0310  -22.9080 C   0  0  0  0  0  0  0  0  0  0  0  0
    3.8300    3.9020  -23.5510 C   0  0  0  0  0  0  0  0  0  0  0  0
    1.8570    2.6210  -24.5080 C   0  0  0  0  0  0  0  0  0  0  0  0
   -0.2540    3.4760  -24.4030 C   0  0  0  0  0  0  0  0  0  0  0  0
    0.2970    4.6930  -23.8190 C   0  0  0  0  0  0  0  0  0  0  0  0
   -1.7070    3.5060  -24.7550 C   0  0  0  0  0  0  0  0  0  0  0  0
    4.3890    1.3970  -23.2320 C   0  0  0  0  0  0  0  0  0  0  0  0
    5.3170    1.0360  -22.0830 C   0  0  2  0  0  0  0  0  0  0  0  0
    6.9380    2.5400  -22.6390 C   0  0  2  0  0  0  0  0  0  0  0  0
    5.3200    2.0510  -20.9270 C   0  0  0  0  0  0  0  0  0  0  0  0
   -2.0320    3.6550  -26.1840 C   0  0  0  0  0  0  0  0  0  0  0  0
   -1.2950    2.9310  -21.8040 C   0  0  0  0  0  0  0  0  0  0  0  0
   -0.2710    2.5690  -21.2960 C   0  0  0  0  0  0  0  0  0  0  0  0
   -0.5240    5.7570  -23.4850 F   0  0  0  0  0  0  0  0  0  0  0  0
   -3.4730    3.2790  -20.2760 F   0  0  0  0  0  0  0  0  0  0  0  0
    2.1270    6.0180  -23.0540 N   0  0  0  0  0  0  0  0  0  0  0  0
    4.3260    5.0490  -23.1190 N   0  0  0  0  0  0  0  0  0  0  0  0
    0.5490    2.5530  -24.8100 N   0  0  0  0  0  0  0  0  0  0  0  0
    4.7280    2.8350  -23.7180 N   0  0  0  0  0  0  0  0  0  0  0  0
    6.7240    1.0710  -22.5680 N   0  0  0  0  0  0  0  0  0  0  0  0
   -3.5580    3.8620  -27.9390 O   0  0  0  0  0  0  0  0  0  0  0  0
    7.8320    8.8900  -22.6630 O   0  0  0  0  0  0  0  0  0  0  0  0
    8.8220    6.6710  -20.1440 N   0  0  0  0  0  0  0  0  0  0  0  0
    7.0930    8.0080  -20.6850 N   0  0  0  0  0  0  0  0  0  0  0  0
    4.8450    7.2200  -21.1550 C   0  0  0  0  0  0  0  0  0  0  0  0
    9.3000    7.5850  -21.2370 C   0  0  0  0  0  0  0  0  0  0  0  0
    5.7050    8.4600  -20.8440 C   0  0  0  0  0  0  0  0  0  0  0  0
    4.0340    7.3640  -22.4560 C   0  0  0  0  0  0  0  0  0  0  0  0
    7.5760    7.2430  -19.5310 C   0  0  0  0  0  0  0  0  0  0  0  0
    8.0070    8.2510  -21.6350 C   0  0  0  0  0  0  0  0  0  0  0  0
  1  2  2  0
  1  3  1  0
  2  6  1  0
  3  5  2  0
  3 27  1  0
  4  5  1  0
  4  6  2  0
  4 18  1  0
  5 24  1  0
  6 10  1  0
  7 10  2  0
  7 23  1  0
  7 33  1  0
 21  8  1  1
  8 22  1  0
  9 21  1  0
  9 31  1  0
 11 12  1  0
 11 14  1  0
 11 15  2  0
 12 17  2  0
 12 28  1  0
 13 28  2  0
 13 29  1  0
 13 40  1  0
 14 29  2  0
 14 31  1  0
 15 30  1  0
 16 17  1  0
 16 18  1  0
 16 30  2  0
 17 26  1  0
 18 23  2  0
 20 19  1  6
 19 31  1  0
 20 22  1  0
 20 32  1  0
 21 32  1  0
 24 25  3  0
 34 42  2  0
 35 38  1  0
 35 41  1  0
 36 39  1  0
 36 41  1  0
 36 42  1  0
 37 39  1  0
 37 40  1  0
 38 42  1  0
M  CHG  1  35   1
M  END
>  <s_m_entry_id>  (11) 
205

>  <s_m_entry_name>  (11) 
000000047.1

>  <s_m_Source_Path>  (11) 
/Users/zaksoul/Documents/3r_UNI/2nd_SEMESTER/BSC/FRAG_RECON/RESULTS/2

>  <s_m_Source_File>  (11) 
000000047.mol2

>  <i_m_Source_File_Index>  (11) 
1

$$$$
No_0_50,No_0_51,No_0_52
     RDKit          3D

 42 47  0  0  1  0  0  0  0  0999 V2000
   -5.1210    3.7200  -21.8380 C   0  0  0  0  0  0  0  0  0  0  0  0
   -5.4150    3.8740  -23.1720 C   0  0  0  0  0  0  0  0  0  0  0  0
   -3.8790    3.4600  -21.5170 C   0  0  0  0  0  0  0  0  0  0  0  0
   -3.0350    3.5110  -23.7050 C   0  0  0  0  0  0  0  0  0  0  0  0
   -2.8450    3.3060  -22.2810 C   0  0  0  0  0  0  0  0  0  0  0  0
   -4.3900    3.7770  -24.2030 C   0  0  0  0  0  0  0  0  0  0  0  0
   -3.6840    3.7250  -26.4170 C   0  0  0  0  0  0  0  0  0  0  0  0
    6.1500    3.0110  -21.3490 C   0  0  0  0  0  0  0  0  0  0  0  0
    5.9560    3.0810  -23.8980 C   0  0  0  0  0  0  0  0  0  0  0  0
   -4.6700    3.8690  -25.5360 C   0  0  0  0  0  0  0  0  0  0  0  0
    2.1800    3.6800  -23.8470 C   0  0  0  0  0  0  0  0  0  0  0  0
    1.3800    4.8080  -23.5630 C   0  0  0  0  0  0  0  0  0  0  0  0
    3.2080    5.9980  -22.9580 C   0  0  0  0  0  0  0  0  0  0  0  0
    3.5890    3.8610  -23.5710 C   0  0  0  0  0  0  0  0  0  0  0  0
    1.6040    2.5520  -24.4630 C   0  0  0  0  0  0  0  0  0  0  0  0
   -0.5100    3.3970  -24.3300 C   0  0  0  0  0  0  0  0  0  0  0  0
    0.0460    4.6270  -23.7780 C   0  0  0  0  0  0  0  0  0  0  0  0
   -1.9700    3.4120  -24.6520 C   0  0  0  0  0  0  0  0  0  0  0  0
    4.1680    1.3640  -23.2200 C   0  0  0  0  0  0  0  0  0  0  0  0
    5.1230    1.0290  -22.0840 C   0  0  2  0  0  0  0  0  0  0  0  0
    6.7230    2.5320  -22.7000 C   0  0  2  0  0  0  0  0  0  0  0  0
    5.1440    2.0640  -20.9470 C   0  0  0  0  0  0  0  0  0  0  0  0
   -2.3250    3.5350  -26.0760 C   0  0  0  0  0  0  0  0  0  0  0  0
   -1.4930    2.8920  -21.7010 C   0  0  0  0  0  0  0  0  0  0  0  0
   -0.4560    2.5450  -21.2080 C   0  0  0  0  0  0  0  0  0  0  0  0
   -0.7740    5.6930  -23.4460 F   0  0  0  0  0  0  0  0  0  0  0  0
   -3.6400    3.2550  -20.1330 F   0  0  0  0  0  0  0  0  0  0  0  0
    1.8840    5.9750  -23.0760 N   0  0  0  0  0  0  0  0  0  0  0  0
    4.0870    5.0170  -23.1700 N   0  0  0  0  0  0  0  0  0  0  0  0
    0.2900    2.4710  -24.7370 N   0  0  0  0  0  0  0  0  0  0  0  0
    4.4890    2.7950  -23.7380 N   0  0  0  0  0  0  0  0  0  0  0  0
    6.5190    1.0630  -22.5990 N   0  0  0  0  0  0  0  0  0  0  0  0
   -3.8880    3.7020  -27.8030 O   0  0  0  0  0  0  0  0  0  0  0  0
    8.4090    8.5020  -21.5970 N   0  0  0  0  0  0  0  0  0  0  0  0
    6.1090    8.9320  -21.3070 N   0  0  0  0  0  0  0  0  0  0  0  0
    7.2530    7.5210  -19.7920 N   0  0  0  0  0  0  0  0  0  0  0  0
    4.1860    7.3930  -21.0510 C   0  0  0  0  0  0  0  0  0  0  0  0
    3.7960    7.3420  -22.5410 C   0  0  0  0  0  0  0  0  0  0  0  0
    4.8110    8.7460  -20.6680 C   0  0  0  0  0  0  0  0  0  0  0  0
    7.2530    8.3160  -20.8950 C   0  0  0  0  0  0  0  0  0  0  0  0
    9.6980    8.0040  -21.1190 C   0  0  0  0  0  0  0  0  0  0  0  0
    8.4330    9.2100  -22.8770 C   0  0  0  0  0  0  0  0  0  0  0  0
  1  2  2  0
  1  3  1  0
  2  6  1  0
  3  5  2  0
  3 27  1  0
  4  5  1  0
  4  6  2  0
  4 18  1  0
  5 24  1  0
  6 10  1  0
  7 10  2  0
  7 23  1  0
  7 33  1  0
 21  8  1  1
  8 22  1  0
  9 21  1  0
  9 31  1  0
 11 12  2  0
 11 14  1  0
 11 15  1  0
 12 17  1  0
 12 28  1  0
 13 28  2  0
 13 29  1  0
 13 38  1  0
 14 29  2  0
 14 31  1  0
 15 30  2  0
 16 17  2  0
 16 18  1  0
 16 30  1  0
 17 26  1  0
 18 23  2  0
 20 19  1  6
 19 31  1  0
 20 22  1  0
 20 32  1  0
 21 32  1  0
 24 25  3  0
 34 40  2  3
 34 41  1  0
 34 42  1  0
 35 39  1  0
 35 40  1  0
 36 40  1  0
 37 38  1  0
 37 39  1  0
M  CHG  1  34   1
M  END
>  <s_m_entry_id>  (12) 
208

>  <s_m_entry_name>  (12) 
000000050.1

>  <s_m_Source_Path>  (12) 
/Users/zaksoul/Documents/3r_UNI/2nd_SEMESTER/BSC/FRAG_RECON/RESULTS/2

>  <s_m_Source_File>  (12) 
000000050.mol2

>  <i_m_Source_File_Index>  (12) 
1

$$$$
No_0_53,No_0_54,No_0_55,No_0_56
     RDKit          3D

 41 46  0  0  1  0  0  0  0  0999 V2000
   -5.1130    3.6110  -21.9640 C   0  0  0  0  0  0  0  0  0  0  0  0
   -5.3830    3.7600  -23.3040 C   0  0  0  0  0  0  0  0  0  0  0  0
   -3.8750    3.3660  -21.6200 C   0  0  0  0  0  0  0  0  0  0  0  0
   -2.9890    3.4250  -23.7900 C   0  0  0  0  0  0  0  0  0  0  0  0
   -2.8250    3.2230  -22.3640 C   0  0  0  0  0  0  0  0  0  0  0  0
   -4.3380    3.6740  -24.3150 C   0  0  0  0  0  0  0  0  0  0  0  0
   -3.5890    3.6270  -26.5150 C   0  0  0  0  0  0  0  0  0  0  0  0
    6.1540    3.0350  -21.2570 C   0  0  0  0  0  0  0  0  0  0  0  0
    6.0080    3.0990  -23.8100 C   0  0  0  0  0  0  0  0  0  0  0  0
   -4.5930    3.7610  -25.6530 C   0  0  0  0  0  0  0  0  0  0  0  0
    2.2240    3.6540  -23.8330 C   0  0  0  0  0  0  0  0  0  0  0  0
    1.4060    4.7730  -23.5650 C   0  0  0  0  0  0  0  0  0  0  0  0
    3.2090    5.9850  -22.9270 C   0  0  0  0  0  0  0  0  0  0  0  0
    3.6260    3.8520  -23.5300 C   0  0  0  0  0  0  0  0  0  0  0  0
    1.6740    2.5180  -24.4580 C   0  0  0  0  0  0  0  0  0  0  0  0
   -0.4510    3.3390  -24.3670 C   0  0  0  0  0  0  0  0  0  0  0  0
    0.0790    4.5760  -23.8070 C   0  0  0  0  0  0  0  0  0  0  0  0
   -1.9050    3.3370  -24.7170 C   0  0  0  0  0  0  0  0  0  0  0  0
    4.2280    1.3630  -23.1640 C   0  0  0  0  0  0  0  0  0  0  0  0
    5.1640    1.0400  -22.0090 C   0  0  2  0  0  0  0  0  0  0  0  0
    6.7580    2.5610  -22.5970 C   0  0  2  0  0  0  0  0  0  0  0  0
    5.1510    2.0760  -20.8730 C   0  0  0  0  0  0  0  0  0  0  0  0
   -2.2350    3.4530  -26.1480 C   0  0  0  0  0  0  0  0  0  0  0  0
   -1.4800    2.8260  -21.7570 C   0  0  0  0  0  0  0  0  0  0  0  0
   -0.4480    2.4920  -21.2430 C   0  0  0  0  0  0  0  0  0  0  0  0
   -0.7590    5.6330  -23.4920 F   0  0  0  0  0  0  0  0  0  0  0  0
   -3.6610    3.1650  -20.2310 F   0  0  0  0  0  0  0  0  0  0  0  0
    1.8870    5.9460  -23.0710 N   0  0  0  0  0  0  0  0  0  0  0  0
    4.1030    5.0140  -23.1210 N   0  0  0  0  0  0  0  0  0  0  0  0
    0.3670    2.4220  -24.7570 N   0  0  0  0  0  0  0  0  0  0  0  0
    4.5420    2.7970  -23.6770 N   0  0  0  0  0  0  0  0  0  0  0  0
    6.5700    1.0900  -22.4970 N   0  0  0  0  0  0  0  0  0  0  0  0
   -3.7660    3.6000  -27.9040 O   0  0  0  0  0  0  0  0  0  0  0  0
    6.2790    8.5960  -20.9870 N   0  0  0  0  0  0  0  0  0  0  0  0
    8.4720    7.8680  -20.8080 N   0  0  0  0  0  0  0  0  0  0  0  0
    6.8670    7.0550  -19.2750 N   0  0  0  0  0  0  0  0  0  0  0  0
    4.1240    7.3660  -21.0020 C   0  0  0  0  0  0  0  0  0  0  0  0
    3.7720    7.3370  -22.5020 C   0  0  0  0  0  0  0  0  0  0  0  0
    4.8700    8.6520  -20.6070 C   0  0  0  0  0  0  0  0  0  0  0  0
    7.1970    7.8290  -20.3420 C   0  0  0  0  0  0  0  0  0  0  0  0
    9.5570    7.1040  -20.2040 C   0  0  0  0  0  0  0  0  0  0  0  0
  1  2  2  0
  1  3  1  0
  2  6  1  0
  3  5  2  0
  3 27  1  0
  4  5  1  0
  4  6  2  0
  4 18  1  0
  5 24  1  0
  6 10  1  0
  7 10  2  0
  7 23  1  0
  7 33  1  0
 21  8  1  1
  8 22  1  0
  9 21  1  0
  9 31  1  0
 11 12  2  0
 11 14  1  0
 11 15  1  0
 12 17  1  0
 12 28  1  0
 13 28  2  0
 13 29  1  0
 13 38  1  0
 14 29  2  0
 14 31  1  0
 15 30  2  0
 16 17  2  0
 16 18  1  0
 16 30  1  0
 17 26  1  0
 18 23  2  0
 20 19  1  6
 19 31  1  0
 20 22  1  0
 20 32  1  0
 21 32  1  0
 24 25  3  0
 34 39  1  0
 34 40  2  0
 35 40  1  0
 35 41  1  0
 36 40  1  0
 37 38  1  0
 37 39  1  0
M  CHG  1  34   1
M  END
>  <s_m_entry_id>  (13) 
211

>  <s_m_entry_name>  (13) 
000000053.1

>  <s_m_Source_Path>  (13) 
/Users/zaksoul/Documents/3r_UNI/2nd_SEMESTER/BSC/FRAG_RECON/RESULTS/2

>  <s_m_Source_File>  (13) 
000000053.mol2

>  <i_m_Source_File_Index>  (13) 
1

$$$$
No_0_59,No_0_60,No_0_61
     RDKit          3D

 40 45  0  0  1  0  0  0  0  0999 V2000
   -5.2700    3.5290  -22.1940 C   0  0  0  0  0  0  0  0  0  0  0  0
   -5.5210    3.6680  -23.5390 C   0  0  0  0  0  0  0  0  0  0  0  0
   -4.0350    3.2930  -21.8300 C   0  0  0  0  0  0  0  0  0  0  0  0
   -3.1180    3.3440  -23.9880 C   0  0  0  0  0  0  0  0  0  0  0  0
   -2.9740    3.1520  -22.5570 C   0  0  0  0  0  0  0  0  0  0  0  0
   -4.4610    3.5820  -24.5340 C   0  0  0  0  0  0  0  0  0  0  0  0
   -3.6790    3.5270  -26.7220 C   0  0  0  0  0  0  0  0  0  0  0  0
    5.9890    3.0240  -21.3190 C   0  0  0  0  0  0  0  0  0  0  0  0
    5.8800    3.0730  -23.8730 C   0  0  0  0  0  0  0  0  0  0  0  0
   -4.6960    3.6600  -25.8760 C   0  0  0  0  0  0  0  0  0  0  0  0
    2.0940    3.6050  -23.9550 C   0  0  0  0  0  0  0  0  0  0  0  0
    1.2650    4.7200  -23.7060 C   0  0  0  0  0  0  0  0  0  0  0  0
    3.0510    5.9470  -23.0490 C   0  0  0  0  0  0  0  0  0  0  0  0
    3.4900    3.8130  -23.6330 C   0  0  0  0  0  0  0  0  0  0  0  0
    1.5600    2.4620  -24.5820 C   0  0  0  0  0  0  0  0  0  0  0  0
   -0.5720    3.2710  -24.5260 C   0  0  0  0  0  0  0  0  0  0  0  0
   -0.0570    4.5140  -23.9660 C   0  0  0  0  0  0  0  0  0  0  0  0
   -2.0200    3.2580  -24.8980 C   0  0  0  0  0  0  0  0  0  0  0  0
    4.1010    1.3300  -23.2430 C   0  0  0  0  0  0  0  0  0  0  0  0
    5.0220    1.0190  -22.0730 C   0  0  2  0  0  0  0  0  0  0  0  0
    6.6160    2.5460  -22.6470 C   0  0  2  0  0  0  0  0  0  0  0  0
    4.9870    2.0620  -20.9440 C   0  0  0  0  0  0  0  0  0  0  0  0
   -2.3290    3.3640  -26.3340 C   0  0  0  0  0  0  0  0  0  0  0  0
   -1.6350    2.7660  -21.9280 C   0  0  0  0  0  0  0  0  0  0  0  0
   -0.6090    2.4410  -21.3980 C   0  0  0  0  0  0  0  0  0  0  0  0
   -0.9060    5.5670  -23.6690 F   0  0  0  0  0  0  0  0  0  0  0  0
   -3.8400    3.1020  -20.4370 F   0  0  0  0  0  0  0  0  0  0  0  0
    1.7320    5.9000  -23.2120 N   0  0  0  0  0  0  0  0  0  0  0  0
    3.9530    4.9810  -23.2240 N   0  0  0  0  0  0  0  0  0  0  0  0
    0.2570    2.3560  -24.8990 N   0  0  0  0  0  0  0  0  0  0  0  0
    4.4140    2.7630  -23.7610 N   0  0  0  0  0  0  0  0  0  0  0  0
    6.4340    1.0750  -22.5410 N   0  0  0  0  0  0  0  0  0  0  0  0
   -3.8360    3.4910  -28.1140 O   0  0  0  0  0  0  0  0  0  0  0  0
    8.0160   10.0970  -21.2400 F   0  0  0  0  0  0  0  0  0  0  0  0
    6.0880    8.5000  -19.8960 N   0  0  0  0  0  0  0  0  0  0  0  0
    5.0700    8.5940  -21.0070 C   0  0  0  0  0  0  0  0  0  0  0  0
    7.4570    7.9710  -20.2510 C   0  0  0  0  0  0  0  0  0  0  0  0
    3.6000    7.3050  -22.6230 C   0  0  0  0  0  0  0  0  0  0  0  0
    4.6340    7.2010  -21.4900 C   0  0  0  0  0  0  0  0  0  0  0  0
    8.1280    8.7210  -21.4190 C   0  0  0  0  0  0  0  0  0  0  0  0
  1  2  2  0
  1  3  1  0
  2  6  1  0
  3  5  2  0
  3 27  1  0
  4  5  1  0
  4  6  2  0
  4 18  1  0
  5 24  1  0
  6 10  1  0
  7 10  2  0
  7 23  1  0
  7 33  1  0
 21  8  1  1
  8 22  1  0
  9 21  1  0
  9 31  1  0
 11 12  2  0
 11 14  1  0
 11 15  1  0
 12 17  1  0
 12 28  1  0
 13 28  2  0
 13 29  1  0
 13 38  1  0
 14 29  2  0
 14 31  1  0
 15 30  2  0
 16 17  2  0
 16 18  1  0
 16 30  1  0
 17 26  1  0
 18 23  2  0
 20 19  1  6
 19 31  1  0
 20 22  1  0
 20 32  1  0
 21 32  1  0
 24 25  3  0
 34 40  1  0
 35 36  1  0
 35 37  1  0
 36 39  1  0
 37 40  1  0
 38 39  1  0
M  CHG  1  35   1
M  END
>  <s_m_entry_id>  (14) 
215

>  <s_m_entry_name>  (14) 
000000057.1

>  <s_m_Source_Path>  (14) 
/Users/zaksoul/Documents/3r_UNI/2nd_SEMESTER/BSC/FRAG_RECON/RESULTS/2

>  <s_m_Source_File>  (14) 
000000057.mol2

>  <i_m_Source_File_Index>  (14) 
1

$$$$
No_0_62,No_0_63
     RDKit          3D

 41 46  0  0  1  0  0  0  0  0999 V2000
   -5.1810    3.6090  -21.8530 C   0  0  0  0  0  0  0  0  0  0  0  0
   -5.4520    3.8050  -23.1860 C   0  0  0  0  0  0  0  0  0  0  0  0
   -3.9420    3.3510  -21.5190 C   0  0  0  0  0  0  0  0  0  0  0  0
   -3.0590    3.4860  -23.6870 C   0  0  0  0  0  0  0  0  0  0  0  0
   -2.8930    3.2340  -22.2690 C   0  0  0  0  0  0  0  0  0  0  0  0
   -4.4090    3.7540  -24.2010 C   0  0  0  0  0  0  0  0  0  0  0  0
   -3.6630    3.7850  -26.4030 C   0  0  0  0  0  0  0  0  0  0  0  0
    6.0870    3.0010  -21.1820 C   0  0  0  0  0  0  0  0  0  0  0  0
    5.9380    3.1560  -23.7310 C   0  0  0  0  0  0  0  0  0  0  0  0
   -4.6650    3.8890  -25.5350 C   0  0  0  0  0  0  0  0  0  0  0  0
    2.1540    3.7130  -23.7290 C   0  0  0  0  0  0  0  0  0  0  0  0
    1.3370    4.8230  -23.4210 C   0  0  0  0  0  0  0  0  0  0  0  0
    3.1410    6.0110  -22.7430 C   0  0  0  0  0  0  0  0  0  0  0  0
    3.5570    3.8990  -23.4210 C   0  0  0  0  0  0  0  0  0  0  0  0
    1.6030    2.6010  -24.3930 C   0  0  0  0  0  0  0  0  0  0  0  0
   -0.5220    3.4190  -24.2700 C   0  0  0  0  0  0  0  0  0  0  0  0
    0.0100    4.6350  -23.6670 C   0  0  0  0  0  0  0  0  0  0  0  0
   -1.9770    3.4300  -24.6180 C   0  0  0  0  0  0  0  0  0  0  0  0
    4.1570    1.3990  -23.1440 C   0  0  0  0  0  0  0  0  0  0  0  0
    5.0950    1.0350  -22.0030 C   0  0  2  0  0  0  0  0  0  0  0  0
    6.6890    2.5740  -22.5390 C   0  0  2  0  0  0  0  0  0  0  0  0
    5.0840    2.0310  -20.8310 C   0  0  0  0  0  0  0  0  0  0  0  0
   -2.3080    3.5970  -26.0440 C   0  0  0  0  0  0  0  0  0  0  0  0
   -1.5470    2.8150  -21.6780 C   0  0  0  0  0  0  0  0  0  0  0  0
   -0.5150    2.4620  -21.1780 C   0  0  0  0  0  0  0  0  0  0  0  0
   -0.8280    5.6800  -23.3140 F   0  0  0  0  0  0  0  0  0  0  0  0
   -3.7260    3.1020  -20.1390 F   0  0  0  0  0  0  0  0  0  0  0  0
    1.8200    5.9780  -22.8860 N   0  0  0  0  0  0  0  0  0  0  0  0
    4.0350    5.0470  -22.9720 N   0  0  0  0  0  0  0  0  0  0  0  0
    0.2950    2.5160  -24.6930 N   0  0  0  0  0  0  0  0  0  0  0  0
    4.4710    2.8500  -23.6070 N   0  0  0  0  0  0  0  0  0  0  0  0
    6.5000    1.1010  -22.4910 N   0  0  0  0  0  0  0  0  0  0  0  0
   -3.8410    3.8060  -27.7920 O   0  0  0  0  0  0  0  0  0  0  0  0
    8.4260   10.6810  -20.7710 O   0  0  0  0  0  0  0  0  0  0  0  0
    9.3200    9.7140  -22.6350 O   0  0  0  0  0  0  0  0  0  0  0  0
    6.0930    9.2960  -21.3480 N   0  0  0  0  0  0  0  0  0  0  0  0
    5.1600    8.4840  -20.4940 C   0  0  0  0  0  0  0  0  0  0  0  0
    3.7060    7.3460  -22.2710 C   0  0  0  0  0  0  0  0  0  0  0  0
    4.7560    7.1590  -21.1590 C   0  0  0  0  0  0  0  0  0  0  0  0
    7.4450    8.6800  -21.5980 C   0  0  0  0  0  0  0  0  0  0  0  0
    8.4760    9.7750  -21.6750 C   0  0  0  0  0  0  0  0  0  0  0  0
  1  2  2  0
  1  3  1  0
  2  6  1  0
  3  5  2  0
  3 27  1  0
  4  5  1  0
  4  6  2  0
  4 18  1  0
  5 24  1  0
  6 10  1  0
  7 10  2  0
  7 23  1  0
  7 33  1  0
 21  8  1  1
  8 22  1  0
  9 21  1  0
  9 31  1  0
 11 12  2  0
 11 14  1  0
 11 15  1  0
 12 17  1  0
 12 28  1  0
 13 28  2  0
 13 29  1  0
 13 38  1  0
 14 29  2  0
 14 31  1  0
 15 30  2  0
 16 17  2  0
 16 18  1  0
 16 30  1  0
 17 26  1  0
 18 23  2  0
 20 19  1  6
 19 31  1  0
 20 22  1  0
 20 32  1  0
 21 32  1  0
 24 25  3  0
 34 41  1  0
 35 41  2  0
 36 37  1  0
 36 40  1  0
 37 39  1  0
 38 39  1  0
 40 41  1  0
M  CHG  2  34  -1  36   1
M  END
>  <s_m_entry_id>  (15) 
218

>  <s_m_entry_name>  (15) 
000000060.1

>  <s_m_Source_Path>  (15) 
/Users/zaksoul/Documents/3r_UNI/2nd_SEMESTER/BSC/FRAG_RECON/RESULTS/2

>  <s_m_Source_File>  (15) 
000000060.mol2

>  <i_m_Source_File_Index>  (15) 
1

$$$$
No_0_64,No_0_65,No_0_66,No_0_67
     RDKit          3D

 40 46  0  0  1  0  0  0  0  0999 V2000
   -5.1280    3.7580  -21.9840 C   0  0  0  0  0  0  0  0  0  0  0  0
   -5.4160    3.9480  -23.3150 C   0  0  0  0  0  0  0  0  0  0  0  0
   -3.8860    3.4960  -21.6650 C   0  0  0  0  0  0  0  0  0  0  0  0
   -3.0310    3.6160  -23.8450 C   0  0  0  0  0  0  0  0  0  0  0  0
   -2.8480    3.3700  -22.4280 C   0  0  0  0  0  0  0  0  0  0  0  0
   -4.3860    3.8880  -24.3430 C   0  0  0  0  0  0  0  0  0  0  0  0
   -3.6680    3.9030  -26.5540 C   0  0  0  0  0  0  0  0  0  0  0  0
    6.1440    3.1020  -21.4560 C   0  0  0  0  0  0  0  0  0  0  0  0
    5.9630    3.2440  -24.0030 C   0  0  0  0  0  0  0  0  0  0  0  0
   -4.6590    4.0160  -25.6740 C   0  0  0  0  0  0  0  0  0  0  0  0
    2.1820    3.8190  -23.9550 C   0  0  0  0  0  0  0  0  0  0  0  0
    1.3750    4.9330  -23.6430 C   0  0  0  0  0  0  0  0  0  0  0  0
    3.1930    6.1160  -22.9940 C   0  0  0  0  0  0  0  0  0  0  0  0
    3.5890    4.0000  -23.6660 C   0  0  0  0  0  0  0  0  0  0  0  0
    1.6170    2.7050  -24.6070 C   0  0  0  0  0  0  0  0  0  0  0  0
   -0.5020    3.5340  -24.4600 C   0  0  0  0  0  0  0  0  0  0  0  0
    0.0430    4.7510  -23.8710 C   0  0  0  0  0  0  0  0  0  0  0  0
   -1.9610    3.5500  -24.7890 C   0  0  0  0  0  0  0  0  0  0  0  0
    4.1820    1.4980  -23.3840 C   0  0  0  0  0  0  0  0  0  0  0  0
    5.1330    1.1360  -22.2530 C   0  0  2  0  0  0  0  0  0  0  0  0
    6.7270    2.6650  -22.8180 C   0  0  2  0  0  0  0  0  0  0  0  0
    5.1420    2.1380  -21.0870 C   0  0  0  0  0  0  0  0  0  0  0  0
   -2.3100    3.7120  -26.2120 C   0  0  0  0  0  0  0  0  0  0  0  0
   -1.4970    2.9480  -21.8520 C   0  0  0  0  0  0  0  0  0  0  0  0
   -0.4600    2.5930  -21.3640 C   0  0  0  0  0  0  0  0  0  0  0  0
   -0.7850    5.8020  -23.5120 F   0  0  0  0  0  0  0  0  0  0  0  0
   -3.6540    3.2530  -20.2860 F   0  0  0  0  0  0  0  0  0  0  0  0
    1.8690    6.0890  -23.1200 N   0  0  0  0  0  0  0  0  0  0  0  0
    4.0780    5.1470  -23.2290 N   0  0  0  0  0  0  0  0  0  0  0  0
    0.3050    2.6250  -24.8890 N   0  0  0  0  0  0  0  0  0  0  0  0
    4.4970    2.9450  -23.8590 N   0  0  0  0  0  0  0  0  0  0  0  0
    6.5310    1.1930  -22.7600 N   0  0  0  0  0  0  0  0  0  0  0  0
   -3.8650    3.9190  -27.9410 O   0  0  0  0  0  0  0  0  0  0  0  0
    6.4470    8.9580  -21.3930 N   0  0  0  0  0  0  0  0  0  0  0  0
    7.1190   10.2220  -20.9530 C   0  0  0  0  0  0  0  0  0  0  0  0
    7.5670    8.0460  -20.9960 C   0  0  0  0  0  0  0  0  0  0  0  0
    5.1160    8.6950  -20.7380 C   0  0  0  0  0  0  0  0  0  0  0  0
    8.3200    9.3270  -20.5740 C   0  0  0  0  0  0  0  0  0  0  0  0
    4.4830    7.3580  -21.1730 C   0  0  0  0  0  0  0  0  0  0  0  0
    3.7700    7.4520  -22.5360 C   0  0  0  0  0  0  0  0  0  0  0  0
  1  2  2  0
  1  3  1  0
  2  6  1  0
  3  5  2  0
  3 27  1  0
  4  5  1  0
  4  6  2  0
  4 18  1  0
  5 24  1  0
  6 10  1  0
  7 10  2  0
  7 23  1  0
  7 33  1  0
 21  8  1  1
  8 22  1  0
  9 21  1  0
  9 31  1  0
 11 12  1  0
 11 14  1  0
 11 15  2  0
 12 17  2  0
 12 28  1  0
 13 28  2  0
 13 29  1  0
 13 40  1  0
 14 29  2  0
 14 31  1  0
 15 30  1  0
 16 17  1  0
 16 18  1  0
 16 30  2  0
 17 26  1  0
 18 23  2  0
 20 19  1  6
 19 31  1  0
 20 22  1  0
 20 32  1  0
 21 32  1  0
 24 25  3  0
 34 35  1  0
 34 36  1  0
 34 37  1  0
 35 38  1  0
 36 38  1  0
 37 39  1  0
 39 40  1  0
M  CHG  1  34   1
M  END
>  <s_m_entry_id>  (16) 
220

>  <s_m_entry_name>  (16) 
000000062.1

>  <s_m_Source_Path>  (16) 
/Users/zaksoul/Documents/3r_UNI/2nd_SEMESTER/BSC/FRAG_RECON/RESULTS/2

>  <s_m_Source_File>  (16) 
000000062.mol2

>  <i_m_Source_File_Index>  (16) 
1

$$$$
No_0_68,No_0_69,No_0_70,No_0_71,No_0_72,No_0_73
     RDKit          3D

 40 46  0  0  1  0  0  0  0  0999 V2000
   -5.3530    3.8120  -21.7630 C   0  0  0  0  0  0  0  0  0  0  0  0
   -5.6390    3.9590  -23.1000 C   0  0  0  0  0  0  0  0  0  0  0  0
   -4.1160    3.5370  -21.4350 C   0  0  0  0  0  0  0  0  0  0  0  0
   -3.2630    3.5590  -23.6200 C   0  0  0  0  0  0  0  0  0  0  0  0
   -3.0820    3.3630  -22.1940 C   0  0  0  0  0  0  0  0  0  0  0  0
   -4.6120    3.8400  -24.1260 C   0  0  0  0  0  0  0  0  0  0  0  0
   -3.8980    3.7600  -26.3370 C   0  0  0  0  0  0  0  0  0  0  0  0
    5.9050    2.9480  -21.2220 C   0  0  0  0  0  0  0  0  0  0  0  0
    5.7220    3.0010  -23.7720 C   0  0  0  0  0  0  0  0  0  0  0  0
   -4.8850    3.9250  -25.4610 C   0  0  0  0  0  0  0  0  0  0  0  0
    1.9540    3.6530  -23.7420 C   0  0  0  0  0  0  0  0  0  0  0  0
    1.1690    4.7940  -23.4700 C   0  0  0  0  0  0  0  0  0  0  0  0
    3.0120    5.9630  -22.8670 C   0  0  0  0  0  0  0  0  0  0  0  0
    3.3650    3.8160  -23.4610 C   0  0  0  0  0  0  0  0  0  0  0  0
    1.3650    2.5280  -24.3520 C   0  0  0  0  0  0  0  0  0  0  0  0
   -0.7370    3.4040  -24.2330 C   0  0  0  0  0  0  0  0  0  0  0  0
   -0.1660    4.6300  -23.6900 C   0  0  0  0  0  0  0  0  0  0  0  0
   -2.1960    3.4380  -24.5620 C   0  0  0  0  0  0  0  0  0  0  0  0
    3.9070    1.3150  -23.0880 C   0  0  0  0  0  0  0  0  0  0  0  0
    4.8520    0.9750  -21.9450 C   0  0  2  0  0  0  0  0  0  0  0  0
    6.4760    2.4500  -22.5670 C   0  0  2  0  0  0  0  0  0  0  0  0
    4.8840    2.0190  -20.8160 C   0  0  0  0  0  0  0  0  0  0  0  0
   -2.5440    3.5540  -25.9890 C   0  0  0  0  0  0  0  0  0  0  0  0
   -1.7380    2.9340  -21.6050 C   0  0  0  0  0  0  0  0  0  0  0  0
   -0.7080    2.5770  -21.1050 C   0  0  0  0  0  0  0  0  0  0  0  0
   -0.9720    5.7100  -23.3690 F   0  0  0  0  0  0  0  0  0  0  0  0
   -3.8860    3.3400  -20.0490 F   0  0  0  0  0  0  0  0  0  0  0  0
    1.6880    5.9580  -22.9900 N   0  0  0  0  0  0  0  0  0  0  0  0
    3.8770    4.9690  -23.0670 N   0  0  0  0  0  0  0  0  0  0  0  0
    0.0510    2.4640  -24.6300 N   0  0  0  0  0  0  0  0  0  0  0  0
    4.2500    2.7370  -23.6160 N   0  0  0  0  0  0  0  0  0  0  0  0
    6.2510    0.9850  -22.4550 N   0  0  0  0  0  0  0  0  0  0  0  0
   -4.0970    3.7280  -27.7230 O   0  0  0  0  0  0  0  0  0  0  0  0
    6.5330    8.7710  -21.3160 N   0  0  0  0  0  0  0  0  0  0  0  0
    7.3420    9.7520  -20.5620 C   0  0  0  0  0  0  0  0  0  0  0  0
    7.6170    8.1880  -20.5000 C   0  0  0  0  0  0  0  0  0  0  0  0
    4.5180    7.2140  -21.2110 C   0  0  0  0  0  0  0  0  0  0  0  0
    5.1230    8.5800  -20.8200 C   0  0  0  0  0  0  0  0  0  0  0  0
    3.6160    7.3030  -22.4590 C   0  0  0  0  0  0  0  0  0  0  0  0
    6.7530    8.7480  -22.8040 C   0  0  0  0  0  0  0  0  0  0  0  0
  1  2  2  0
  1  3  1  0
  2  6  1  0
  3  5  2  0
  3 27  1  0
  4  5  1  0
  4  6  2  0
  4 18  1  0
  5 24  1  0
  6 10  1  0
  7 10  2  0
  7 23  1  0
  7 33  1  0
 21  8  1  1
  8 22  1  0
  9 21  1  0
  9 31  1  0
 11 12  1  0
 11 14  1  0
 11 15  2  0
 12 17  2  0
 12 28  1  0
 13 28  2  0
 13 29  1  0
 13 39  1  0
 14 29  2  0
 14 31  1  0
 15 30  1  0
 16 17  1  0
 16 18  1  0
 16 30  2  0
 17 26  1  0
 18 23  2  0
 20 19  1  6
 19 31  1  0
 20 22  1  0
 20 32  1  0
 21 32  1  0
 24 25  3  0
 34 35  1  0
 34 36  1  0
 34 38  1  0
 34 40  1  0
 35 36  1  0
 37 38  1  0
 37 39  1  0
M  CHG  1  34   1
M  END
>  <s_m_entry_id>  (17) 
224

>  <s_m_entry_name>  (17) 
000000066.1

>  <s_m_Source_Path>  (17) 
/Users/zaksoul/Documents/3r_UNI/2nd_SEMESTER/BSC/FRAG_RECON/RESULTS/2

>  <s_m_Source_File>  (17) 
000000066.mol2

>  <i_m_Source_File_Index>  (17) 
1

$$$$
No_0_74
     RDKit          3D

 43 49  0  0  1  0  0  0  0  0999 V2000
   -5.1430    3.8250  -21.9410 C   0  0  0  0  0  0  0  0  0  0  0  0
   -5.4240    4.0250  -23.2720 C   0  0  0  0  0  0  0  0  0  0  0  0
   -3.9030    3.5640  -21.6160 C   0  0  0  0  0  0  0  0  0  0  0  0
   -3.0350    3.7030  -23.7910 C   0  0  0  0  0  0  0  0  0  0  0  0
   -2.8600    3.4470  -22.3740 C   0  0  0  0  0  0  0  0  0  0  0  0
   -4.3880    3.9750  -24.2950 C   0  0  0  0  0  0  0  0  0  0  0  0
   -3.6570    4.0100  -26.5010 C   0  0  0  0  0  0  0  0  0  0  0  0
    6.1280    3.1940  -21.3520 C   0  0  0  0  0  0  0  0  0  0  0  0
    5.9610    3.3560  -23.8990 C   0  0  0  0  0  0  0  0  0  0  0  0
   -4.6530    4.1140  -25.6260 C   0  0  0  0  0  0  0  0  0  0  0  0
    2.1790    3.9200  -23.8690 C   0  0  0  0  0  0  0  0  0  0  0  0
    1.3660    5.0300  -23.5520 C   0  0  0  0  0  0  0  0  0  0  0  0
    3.1770    6.2130  -22.8840 C   0  0  0  0  0  0  0  0  0  0  0  0
    3.5830    4.1030  -23.5700 C   0  0  0  0  0  0  0  0  0  0  0  0
    1.6200    2.8110  -24.5320 C   0  0  0  0  0  0  0  0  0  0  0  0
   -0.5030    3.6320  -24.3910 C   0  0  0  0  0  0  0  0  0  0  0  0
    0.0360    4.8460  -23.7890 C   0  0  0  0  0  0  0  0  0  0  0  0
   -1.9590    3.6470  -24.7290 C   0  0  0  0  0  0  0  0  0  0  0  0
    4.1810    1.6000  -23.3040 C   0  0  0  0  0  0  0  0  0  0  0  0
    5.1260    1.2320  -22.1710 C   0  0  2  0  0  0  0  0  0  0  0  0
    6.7200    2.7690  -22.7140 C   0  0  2  0  0  0  0  0  0  0  0  0
    5.1260    2.2240  -20.9960 C   0  0  0  0  0  0  0  0  0  0  0  0
   -2.3000    3.8190  -26.1520 C   0  0  0  0  0  0  0  0  0  0  0  0
   -1.5100    3.0230  -21.7940 C   0  0  0  0  0  0  0  0  0  0  0  0
   -0.4760    2.6670  -21.3030 C   0  0  0  0  0  0  0  0  0  0  0  0
   -0.7970    5.8920  -23.4270 F   0  0  0  0  0  0  0  0  0  0  0  0
   -3.6780    3.3100  -20.2390 F   0  0  0  0  0  0  0  0  0  0  0  0
    1.8540    6.1830  -23.0170 N   0  0  0  0  0  0  0  0  0  0  0  0
    4.0670    5.2480  -23.1220 N   0  0  0  0  0  0  0  0  0  0  0  0
    0.3100    2.7290  -24.8230 N   0  0  0  0  0  0  0  0  0  0  0  0
    4.4950    3.0520  -23.7660 N   0  0  0  0  0  0  0  0  0  0  0  0
    6.5270    1.2960  -22.6690 N   0  0  0  0  0  0  0  0  0  0  0  0
   -3.8460    4.0360  -27.8890 O   0  0  0  0  0  0  0  0  0  0  0  0
    5.8220    9.1010  -20.6770 N   0  0  0  0  0  0  0  0  0  0  0  0
    5.4950   10.6350  -22.4810 N   0  0  0  0  0  0  0  0  0  0  0  0
    8.1380    8.8050  -19.7770 C   0  0  0  0  0  0  0  0  0  0  0  0
    7.7440   10.2810  -21.7430 C   0  0  0  0  0  0  0  0  0  0  0  0
    3.7690    7.6570  -20.8760 C   0  0  0  0  0  0  0  0  0  0  0  0
    4.4020    8.9570  -20.3510 C   0  0  0  0  0  0  0  0  0  0  0  0
    6.7310    8.2140  -19.9490 C   0  0  0  0  0  0  0  0  0  0  0  0
    8.6630    9.1940  -21.1630 C   0  0  0  0  0  0  0  0  0  0  0  0
    6.2630    9.9680  -21.6090 C   0  0  0  0  0  0  0  0  0  0  0  0
    3.7480    7.5460  -22.4120 C   0  0  0  0  0  0  0  0  0  0  0  0
  1  2  2  0
  1  3  1  0
  2  6  1  0
  3  5  2  0
  3 27  1  0
  4  5  1  0
  4  6  2  0
  4 18  1  0
  5 24  1  0
  6 10  1  0
  7 10  2  0
  7 23  1  0
  7 33  1  0
 21  8  1  1
  8 22  1  0
  9 21  1  0
  9 31  1  0
 11 12  1  0
 11 14  1  0
 11 15  2  0
 12 17  2  0
 12 28  1  0
 13 28  2  0
 13 29  1  0
 13 43  1  0
 14 29  2  0
 14 31  1  0
 15 30  1  0
 16 17  1  0
 16 18  1  0
 16 30  2  0
 17 26  1  0
 18 23  2  0
 20 19  1  6
 19 31  1  0
 20 22  1  0
 20 32  1  0
 21 32  1  0
 24 25  3  0
 34 39  1  0
 34 40  1  0
 34 42  2  0
 35 42  1  0
 36 40  1  0
 36 41  1  0
 37 41  1  0
 37 42  1  0
 38 39  1  0
 38 43  1  0
M  CHG  1  34   1
M  END
>  <s_m_entry_id>  (18) 
230

>  <s_m_entry_name>  (18) 
000000072.1

>  <s_m_Source_Path>  (18) 
/Users/zaksoul/Documents/3r_UNI/2nd_SEMESTER/BSC/FRAG_RECON/RESULTS/2

>  <s_m_Source_File>  (18) 
000000072.mol2

>  <i_m_Source_File_Index>  (18) 
1

$$$$
No_0_75,No_0_76,No_0_77
     RDKit          3D

 41 46  0  0  1  0  0  0  0  0999 V2000
   -4.9590    3.5950  -21.7080 C   0  0  0  0  0  0  0  0  0  0  0  0
   -5.2580    3.7750  -23.0370 C   0  0  0  0  0  0  0  0  0  0  0  0
   -3.7150    3.3330  -21.3970 C   0  0  0  0  0  0  0  0  0  0  0  0
   -2.8790    3.4330  -23.5860 C   0  0  0  0  0  0  0  0  0  0  0  0
   -2.6840    3.1990  -22.1680 C   0  0  0  0  0  0  0  0  0  0  0  0
   -4.2370    3.7040  -24.0740 C   0  0  0  0  0  0  0  0  0  0  0  0
   -3.5390    3.7000  -26.2910 C   0  0  0  0  0  0  0  0  0  0  0  0
    6.3160    2.9190  -21.2720 C   0  0  0  0  0  0  0  0  0  0  0  0
    6.1130    3.0410  -23.8180 C   0  0  0  0  0  0  0  0  0  0  0  0
   -4.5220    3.8220  -25.4030 C   0  0  0  0  0  0  0  0  0  0  0  0
    2.3340    3.6240  -23.7430 C   0  0  0  0  0  0  0  0  0  0  0  0
    1.5310    4.7430  -23.4320 C   0  0  0  0  0  0  0  0  0  0  0  0
    3.3580    5.9270  -22.8090 C   0  0  0  0  0  0  0  0  0  0  0  0
    3.7440    3.8040  -23.4670 C   0  0  0  0  0  0  0  0  0  0  0  0
    1.7610    2.5070  -24.3800 C   0  0  0  0  0  0  0  0  0  0  0  0
   -0.3550    3.3410  -24.2210 C   0  0  0  0  0  0  0  0  0  0  0  0
    0.1980    4.5610  -23.6470 C   0  0  0  0  0  0  0  0  0  0  0  0
   -1.8170    3.3570  -24.5380 C   0  0  0  0  0  0  0  0  0  0  0  0
    4.3340    1.3030  -23.1690 C   0  0  0  0  0  0  0  0  0  0  0  0
    5.2940    0.9490  -22.0440 C   0  0  2  0  0  0  0  0  0  0  0  0
    6.8860    2.4700  -22.6350 C   0  0  2  0  0  0  0  0  0  0  0  0
    5.3150    1.9600  -20.8860 C   0  0  0  0  0  0  0  0  0  0  0  0
   -2.1780    3.5080  -25.9590 C   0  0  0  0  0  0  0  0  0  0  0  0
   -1.3280    2.7780  -21.6000 C   0  0  0  0  0  0  0  0  0  0  0  0
   -0.2880    2.4250  -21.1180 C   0  0  0  0  0  0  0  0  0  0  0  0
   -0.6250    5.6170  -23.2900 F   0  0  0  0  0  0  0  0  0  0  0  0
   -3.4710    3.1000  -20.0180 F   0  0  0  0  0  0  0  0  0  0  0  0
    2.0330    5.9020  -22.9230 N   0  0  0  0  0  0  0  0  0  0  0  0
    4.2390    4.9540  -23.0440 N   0  0  0  0  0  0  0  0  0  0  0  0
    0.4460    2.4270  -24.6500 N   0  0  0  0  0  0  0  0  0  0  0  0
    4.6480    2.7460  -23.6590 N   0  0  0  0  0  0  0  0  0  0  0  0
    6.6880    0.9980  -22.5630 N   0  0  0  0  0  0  0  0  0  0  0  0
   -3.7470    3.7040  -27.6760 O   0  0  0  0  0  0  0  0  0  0  0  0
    5.8600    8.4470  -20.1450 N   0  0  0  0  0  0  0  0  0  0  0  0
    6.7250    9.4740  -22.1350 N   0  0  0  0  0  0  0  0  0  0  0  0
    3.6660    7.5850  -20.8830 C   0  0  0  0  0  0  0  0  0  0  0  0
    8.2400    8.3050  -20.6570 C   0  0  0  0  0  0  0  0  0  0  0  0
    3.9410    7.2650  -22.3670 C   0  0  0  0  0  0  0  0  0  0  0  0
    4.4610    8.7980  -20.3630 C   0  0  0  0  0  0  0  0  0  0  0  0
    6.8430    8.7790  -20.9970 C   0  0  0  0  0  0  0  0  0  0  0  0
    9.0880    9.4630  -20.1070 C   0  0  0  0  0  0  0  0  0  0  0  0
  1  2  2  0
  1  3  1  0
  2  6  1  0
  3  5  2  0
  3 27  1  0
  4  5  1  0
  4  6  2  0
  4 18  1  0
  5 24  1  0
  6 10  1  0
  7 10  2  0
  7 23  1  0
  7 33  1  0
 21  8  1  1
  8 22  1  0
  9 21  1  0
  9 31  1  0
 11 12  2  0
 11 14  1  0
 11 15  1  0
 12 17  1  0
 12 28  1  0
 13 28  2  0
 13 29  1  0
 13 38  1  0
 14 29  2  0
 14 31  1  0
 15 30  2  0
 16 17  2  0
 16 18  1  0
 16 30  1  0
 17 26  1  0
 18 23  2  0
 20 19  1  6
 19 31  1  0
 20 22  1  0
 20 32  1  0
 21 32  1  0
 24 25  3  0
 34 39  1  0
 34 40  2  0
 35 40  1  0
 36 38  1  0
 36 39  1  0
 37 40  1  0
 37 41  1  0
M  CHG  1  34   1
M  END
>  <s_m_entry_id>  (19) 
231

>  <s_m_entry_name>  (19) 
000000073.1

>  <s_m_Source_Path>  (19) 
/Users/zaksoul/Documents/3r_UNI/2nd_SEMESTER/BSC/FRAG_RECON/RESULTS/2

>  <s_m_Source_File>  (19) 
000000073.mol2

>  <i_m_Source_File_Index>  (19) 
1

$$$$
No_0_78,No_0_79,No_0_80,No_0_81
     RDKit          3D

 40 45  0  0  1  0  0  0  0  0999 V2000
   -5.2950    3.6950  -21.9490 C   0  0  0  0  0  0  0  0  0  0  0  0
   -5.5690    3.8750  -23.2840 C   0  0  0  0  0  0  0  0  0  0  0  0
   -4.0570    3.4330  -21.6140 C   0  0  0  0  0  0  0  0  0  0  0  0
   -3.1790    3.5340  -23.7870 C   0  0  0  0  0  0  0  0  0  0  0  0
   -3.0110    3.2990  -22.3650 C   0  0  0  0  0  0  0  0  0  0  0  0
   -4.5280    3.8050  -24.3010 C   0  0  0  0  0  0  0  0  0  0  0  0
   -3.7870    3.8020  -26.5040 C   0  0  0  0  0  0  0  0  0  0  0  0
    5.9700    3.0200  -21.2980 C   0  0  0  0  0  0  0  0  0  0  0  0
    5.8150    3.1430  -23.8470 C   0  0  0  0  0  0  0  0  0  0  0  0
   -4.7870    3.9240  -25.6360 C   0  0  0  0  0  0  0  0  0  0  0  0
    2.0360    3.7260  -23.8440 C   0  0  0  0  0  0  0  0  0  0  0  0
    1.2270    4.8440  -23.5480 C   0  0  0  0  0  0  0  0  0  0  0  0
    3.0410    6.0290  -22.8900 C   0  0  0  0  0  0  0  0  0  0  0  0
    3.4400    3.9060  -23.5420 C   0  0  0  0  0  0  0  0  0  0  0  0
    1.4750    2.6090  -24.4930 C   0  0  0  0  0  0  0  0  0  0  0  0
   -0.6440    3.4430  -24.3740 C   0  0  0  0  0  0  0  0  0  0  0  0
   -0.1020    4.6630  -23.7890 C   0  0  0  0  0  0  0  0  0  0  0  0
   -2.0990    3.4590  -24.7190 C   0  0  0  0  0  0  0  0  0  0  0  0
    4.0240    1.4050  -23.2340 C   0  0  0  0  0  0  0  0  0  0  0  0
    4.9620    1.0500  -22.0910 C   0  0  2  0  0  0  0  0  0  0  0  0
    6.5660    2.5720  -22.6500 C   0  0  2  0  0  0  0  0  0  0  0  0
    4.9620    2.0610  -20.9310 C   0  0  0  0  0  0  0  0  0  0  0  0
   -2.4330    3.6100  -26.1460 C   0  0  0  0  0  0  0  0  0  0  0  0
   -1.6670    2.8780  -21.7730 C   0  0  0  0  0  0  0  0  0  0  0  0
   -0.6360    2.5250  -21.2710 C   0  0  0  0  0  0  0  0  0  0  0  0
   -0.9320    5.7180  -23.4470 F   0  0  0  0  0  0  0  0  0  0  0  0
   -3.8400    3.1990  -20.2320 F   0  0  0  0  0  0  0  0  0  0  0  0
    1.7180    6.0030  -23.0290 N   0  0  0  0  0  0  0  0  0  0  0  0
    3.9270    5.0560  -23.1080 N   0  0  0  0  0  0  0  0  0  0  0  0
    0.1660    2.5290  -24.7880 N   0  0  0  0  0  0  0  0  0  0  0  0
    4.3470    2.8480  -23.7160 N   0  0  0  0  0  0  0  0  0  0  0  0
    6.3660    1.1000  -22.5830 N   0  0  0  0  0  0  0  0  0  0  0  0
   -3.9690    3.8080  -27.8930 O   0  0  0  0  0  0  0  0  0  0  0  0
    6.0280    8.7620  -21.3040 N   0  0  0  0  0  0  0  0  0  0  0  0
    7.2230    7.1690  -19.9710 N   0  0  0  0  0  0  0  0  0  0  0  0
    3.9860    7.3970  -20.9400 C   0  0  0  0  0  0  0  0  0  0  0  0
    4.7710    8.6700  -20.5710 C   0  0  0  0  0  0  0  0  0  0  0  0
    3.6160    7.3660  -22.4360 C   0  0  0  0  0  0  0  0  0  0  0  0
    7.1080    8.0360  -20.9840 C   0  0  0  0  0  0  0  0  0  0  0  0
    8.3050    8.2450  -21.8830 C   0  0  0  0  0  0  0  0  0  0  0  0
  1  2  2  0
  1  3  1  0
  2  6  1  0
  3  5  2  0
  3 27  1  0
  4  5  1  0
  4  6  2  0
  4 18  1  0
  5 24  1  0
  6 10  1  0
  7 10  2  0
  7 23  1  0
  7 33  1  0
 21  8  1  1
  8 22  1  0
  9 21  1  0
  9 31  1  0
 11 12  2  0
 11 14  1  0
 11 15  1  0
 12 17  1  0
 12 28  1  0
 13 28  2  0
 13 29  1  0
 13 38  1  0
 14 29  2  0
 14 31  1  0
 15 30  2  0
 16 17  2  0
 16 18  1  0
 16 30  1  0
 17 26  1  0
 18 23  2  0
 20 19  1  6
 19 31  1  0
 20 22  1  0
 20 32  1  0
 21 32  1  0
 24 25  3  0
 34 37  1  0
 34 39  2  0
 35 39  1  0
 36 37  1  0
 36 38  1  0
 39 40  1  0
M  CHG  1  34   1
M  END
>  <s_m_entry_id>  (20) 
234

>  <s_m_entry_name>  (20) 
000000076.1

>  <s_m_Source_Path>  (20) 
/Users/zaksoul/Documents/3r_UNI/2nd_SEMESTER/BSC/FRAG_RECON/RESULTS/2

>  <s_m_Source_File>  (20) 
000000076.mol2

>  <i_m_Source_File_Index>  (20) 
1

$$$$
No_0_85,No_0_86,No_0_87
     RDKit          3D

 44 50  0  0  1  0  0  0  0  0999 V2000
   -5.3520    3.5830  -21.7640 C   0  0  0  0  0  0  0  0  0  0  0  0
   -5.6520    3.7310  -23.0980 C   0  0  0  0  0  0  0  0  0  0  0  0
   -4.1050    3.3410  -21.4470 C   0  0  0  0  0  0  0  0  0  0  0  0
   -3.2680    3.4010  -23.6370 C   0  0  0  0  0  0  0  0  0  0  0  0
   -3.0720    3.2010  -22.2140 C   0  0  0  0  0  0  0  0  0  0  0  0
   -4.6290    3.6470  -24.1320 C   0  0  0  0  0  0  0  0  0  0  0  0
   -3.9290    3.6020  -26.3480 C   0  0  0  0  0  0  0  0  0  0  0  0
    5.9290    3.0330  -21.3060 C   0  0  0  0  0  0  0  0  0  0  0  0
    5.7270    3.0980  -23.8550 C   0  0  0  0  0  0  0  0  0  0  0  0
   -4.9130    3.7340  -25.4640 C   0  0  0  0  0  0  0  0  0  0  0  0
    1.9430    3.6430  -23.7940 C   0  0  0  0  0  0  0  0  0  0  0  0
    1.1280    4.7600  -23.5090 C   0  0  0  0  0  0  0  0  0  0  0  0
    2.9410    5.9770  -22.9110 C   0  0  0  0  0  0  0  0  0  0  0  0
    3.3500    3.8440  -23.5220 C   0  0  0  0  0  0  0  0  0  0  0  0
    1.3810    2.5060  -24.4070 C   0  0  0  0  0  0  0  0  0  0  0  0
   -0.7440    3.3220  -24.2690 C   0  0  0  0  0  0  0  0  0  0  0  0
   -0.2030    4.5600  -23.7210 C   0  0  0  0  0  0  0  0  0  0  0  0
   -2.2050    3.3160  -24.5870 C   0  0  0  0  0  0  0  0  0  0  0  0
    3.9660    1.3560  -23.1690 C   0  0  0  0  0  0  0  0  0  0  0  0
    4.9280    1.0360  -22.0360 C   0  0  2  0  0  0  0  0  0  0  0  0
    6.5050    2.5610  -22.6590 C   0  0  2  0  0  0  0  0  0  0  0  0
    4.9380    2.0730  -20.9000 C   0  0  0  0  0  0  0  0  0  0  0  0
   -2.5660    3.4320  -26.0100 C   0  0  0  0  0  0  0  0  0  0  0  0
   -1.7130    2.8060  -21.6370 C   0  0  0  0  0  0  0  0  0  0  0  0
   -0.6690    2.4750  -21.1460 C   0  0  0  0  0  0  0  0  0  0  0  0
   -1.0380    5.6150  -23.3870 F   0  0  0  0  0  0  0  0  0  0  0  0
   -3.8600    3.1410  -20.0630 F   0  0  0  0  0  0  0  0  0  0  0  0
    1.6170    5.9350  -23.0250 N   0  0  0  0  0  0  0  0  0  0  0  0
    3.8330    5.0080  -23.1240 N   0  0  0  0  0  0  0  0  0  0  0  0
    0.0680    2.4070  -24.6770 N   0  0  0  0  0  0  0  0  0  0  0  0
    4.2650    2.7910  -23.6900 N   0  0  0  0  0  0  0  0  0  0  0  0
    6.3220    1.0890  -22.5550 N   0  0  0  0  0  0  0  0  0  0  0  0
   -4.1360    3.5740  -27.7320 O   0  0  0  0  0  0  0  0  0  0  0  0
    6.0650    8.6220  -21.0330 N   0  0  0  0  0  0  0  0  0  0  0  0
    6.7260    7.0510  -19.3580 N   0  0  0  0  0  0  0  0  0  0  0  0
    6.3910    9.4300  -22.1020 N   0  0  0  0  0  0  0  0  0  0  0  0
    3.8970    7.3630  -21.0070 C   0  0  0  0  0  0  0  0  0  0  0  0
    8.3330    7.9350  -20.9100 C   0  0  0  0  0  0  0  0  0  0  0  0
    3.5110    7.3300  -22.4980 C   0  0  0  0  0  0  0  0  0  0  0  0
    4.6650    8.6420  -20.6210 C   0  0  0  0  0  0  0  0  0  0  0  0
    7.6230    9.4980  -22.5670 C   0  0  0  0  0  0  0  0  0  0  0  0
    7.0230    7.8670  -20.4250 C   0  0  0  0  0  0  0  0  0  0  0  0
    8.6260    8.7400  -21.9680 C   0  0  0  0  0  0  0  0  0  0  0  0
    9.4750    7.1370  -20.3030 C   0  0  0  0  0  0  0  0  0  0  0  0
  1  2  2  0
  1  3  1  0
  2  6  1  0
  3  5  2  0
  3 27  1  0
  4  5  1  0
  4  6  2  0
  4 18  1  0
  5 24  1  0
  6 10  1  0
  7 10  2  0
  7 23  1  0
  7 33  1  0
 21  8  1  1
  8 22  1  0
  9 21  1  0
  9 31  1  0
 11 12  1  0
 11 14  1  0
 11 15  2  0
 12 17  2  0
 12 28  1  0
 13 28  2  0
 13 29  1  0
 13 39  1  0
 14 29  2  0
 14 31  1  0
 15 30  1  0
 16 17  1  0
 16 18  1  0
 16 30  2  0
 17 26  1  0
 18 23  2  0
 20 19  1  6
 19 31  1  0
 20 22  1  0
 20 32  1  0
 21 32  1  0
 24 25  3  0
 34 36  1  0
 34 40  1  0
 34 42  1  0
 35 42  1  0
 36 41  2  0
 37 39  1  0
 37 40  1  0
 38 42  2  0
 38 43  1  0
 38 44  1  0
 41 43  1  0
M  END
>  <s_m_entry_id>  (21) 
238

>  <s_m_entry_name>  (21) 
000000080.1

>  <s_m_Source_Path>  (21) 
/Users/zaksoul/Documents/3r_UNI/2nd_SEMESTER/BSC/FRAG_RECON/RESULTS/2

>  <s_m_Source_File>  (21) 
000000080.mol2

>  <i_m_Source_File_Index>  (21) 
1

$$$$
No_0_93,No_0_94
     RDKit          3D

 42 48  0  0  1  0  0  0  0  0999 V2000
   -5.1880    3.8970  -21.6430 C   0  0  0  0  0  0  0  0  0  0  0  0
   -5.4950    4.0510  -22.9750 C   0  0  0  0  0  0  0  0  0  0  0  0
   -3.9440    3.6320  -21.3350 C   0  0  0  0  0  0  0  0  0  0  0  0
   -3.1220    3.6800  -23.5310 C   0  0  0  0  0  0  0  0  0  0  0  0
   -2.9180    3.4750  -22.1100 C   0  0  0  0  0  0  0  0  0  0  0  0
   -4.4810    3.9510  -24.0160 C   0  0  0  0  0  0  0  0  0  0  0  0
   -3.7980    3.8960  -26.2370 C   0  0  0  0  0  0  0  0  0  0  0  0
    6.0850    3.1490  -21.2690 C   0  0  0  0  0  0  0  0  0  0  0  0
    5.8650    3.2190  -23.8150 C   0  0  0  0  0  0  0  0  0  0  0  0
   -4.7740    4.0440  -25.3460 C   0  0  0  0  0  0  0  0  0  0  0  0
    2.0920    3.8310  -23.7270 C   0  0  0  0  0  0  0  0  0  0  0  0
    1.2990    4.9620  -23.4340 C   0  0  0  0  0  0  0  0  0  0  0  0
    3.1370    6.1460  -22.8480 C   0  0  0  0  0  0  0  0  0  0  0  0
    3.5040    4.0070  -23.4650 C   0  0  0  0  0  0  0  0  0  0  0  0
    1.5060    2.7050  -24.3370 C   0  0  0  0  0  0  0  0  0  0  0  0
   -0.6030    3.5570  -24.1820 C   0  0  0  0  0  0  0  0  0  0  0  0
   -0.0380    4.7850  -23.6360 C   0  0  0  0  0  0  0  0  0  0  0  0
   -2.0670    3.5780  -24.4890 C   0  0  0  0  0  0  0  0  0  0  0  0
    4.0790    1.5090  -23.1190 C   0  0  0  0  0  0  0  0  0  0  0  0
    5.0440    1.1700  -21.9930 C   0  0  2  0  0  0  0  0  0  0  0  0
    6.6430    2.6670  -22.6260 C   0  0  2  0  0  0  0  0  0  0  0  0
    5.0800    2.2050  -20.8560 C   0  0  0  0  0  0  0  0  0  0  0  0
   -2.4360    3.7010  -25.9100 C   0  0  0  0  0  0  0  0  0  0  0  0
   -1.5620    3.0560  -21.5430 C   0  0  0  0  0  0  0  0  0  0  0  0
   -0.5210    2.7060  -21.0610 C   0  0  0  0  0  0  0  0  0  0  0  0
   -0.8510    5.8540  -23.2960 F   0  0  0  0  0  0  0  0  0  0  0  0
   -3.6920    3.4260  -19.9540 F   0  0  0  0  0  0  0  0  0  0  0  0
    1.8120    6.1270  -22.9530 N   0  0  0  0  0  0  0  0  0  0  0  0
    4.0100    5.1620  -23.0690 N   0  0  0  0  0  0  0  0  0  0  0  0
    0.1890    2.6290  -24.5970 N   0  0  0  0  0  0  0  0  0  0  0  0
    4.3990    2.9390  -23.6400 N   0  0  0  0  0  0  0  0  0  0  0  0
    6.4350    1.1990  -22.5220 N   0  0  0  0  0  0  0  0  0  0  0  0
   -4.0160    3.8730  -27.6210 O   0  0  0  0  0  0  0  0  0  0  0  0
    6.1190    9.0800  -21.0880 N   0  0  0  0  0  0  0  0  0  0  0  0
    6.7220    8.1230  -21.8810 N   0  0  0  0  0  0  0  0  0  0  0  0
    4.1380    7.5360  -20.9520 C   0  0  0  0  0  0  0  0  0  0  0  0
    3.7330    7.4880  -22.4380 C   0  0  0  0  0  0  0  0  0  0  0  0
    4.7770    8.8810  -20.5620 C   0  0  0  0  0  0  0  0  0  0  0  0
    8.0400   10.4180  -21.2880 C   0  0  0  0  0  0  0  0  0  0  0  0
    7.9460    8.2980  -22.3690 C   0  0  0  0  0  0  0  0  0  0  0  0
    6.7800   10.2170  -20.7950 C   0  0  0  0  0  0  0  0  0  0  0  0
    8.6350    9.4610  -22.0800 C   0  0  0  0  0  0  0  0  0  0  0  0
  1  2  2  0
  1  3  1  0
  2  6  1  0
  3  5  2  0
  3 27  1  0
  4  5  1  0
  4  6  2  0
  4 18  1  0
  5 24  1  0
  6 10  1  0
  7 10  2  0
  7 23  1  0
  7 33  1  0
 21  8  1  1
  8 22  1  0
  9 21  1  0
  9 31  1  0
 11 12  1  0
 11 14  1  0
 11 15  2  0
 12 17  2  0
 12 28  1  0
 13 28  2  0
 13 29  1  0
 13 37  1  0
 14 29  2  0
 14 31  1  0
 15 30  1  0
 16 17  1  0
 16 18  1  0
 16 30  2  0
 17 26  1  0
 18 23  2  0
 20 19  1  6
 19 31  1  0
 20 22  1  0
 20 32  1  0
 21 32  1  0
 24 25  3  0
 34 35  1  0
 34 38  1  0
 34 41  1  0
 35 40  2  0
 36 37  1  0
 36 38  1  0
 39 41  2  0
 39 42  1  0
 40 42  1  0
M  END
>  <s_m_entry_id>  (22) 
241

>  <s_m_entry_name>  (22) 
000000083.1

>  <s_m_Source_Path>  (22) 
/Users/zaksoul/Documents/3r_UNI/2nd_SEMESTER/BSC/FRAG_RECON/RESULTS/2

>  <s_m_Source_File>  (22) 
000000083.mol2

>  <i_m_Source_File_Index>  (22) 
1

$$$$
No_0_96,No_0_97,No_0_98,No_0_99
     RDKit          3D

 43 49  0  0  1  0  0  0  0  0999 V2000
   -4.8700    3.9360  -21.9660 C   0  0  0  0  0  0  0  0  0  0  0  0
   -5.1720    4.0980  -23.2980 C   0  0  0  0  0  0  0  0  0  0  0  0
   -3.6250    3.6810  -21.6540 C   0  0  0  0  0  0  0  0  0  0  0  0
   -2.7930    3.7520  -23.8460 C   0  0  0  0  0  0  0  0  0  0  0  0
   -2.5950    3.5380  -22.4250 C   0  0  0  0  0  0  0  0  0  0  0  0
   -4.1530    4.0140  -24.3350 C   0  0  0  0  0  0  0  0  0  0  0  0
   -3.4590    3.9810  -26.5530 C   0  0  0  0  0  0  0  0  0  0  0  0
    6.4070    3.2840  -21.5440 C   0  0  0  0  0  0  0  0  0  0  0  0
    6.1990    3.3720  -24.0910 C   0  0  0  0  0  0  0  0  0  0  0  0
   -4.4400    4.1140  -25.6660 C   0  0  0  0  0  0  0  0  0  0  0  0
    2.4190    3.9500  -24.0160 C   0  0  0  0  0  0  0  0  0  0  0  0
    1.6150    5.0710  -23.7190 C   0  0  0  0  0  0  0  0  0  0  0  0
    3.4410    6.2670  -23.1160 C   0  0  0  0  0  0  0  0  0  0  0  0
    3.8290    4.1360  -23.7460 C   0  0  0  0  0  0  0  0  0  0  0  0
    1.8460    2.8230  -24.6370 C   0  0  0  0  0  0  0  0  0  0  0  0
   -0.2710    3.6560  -24.4860 C   0  0  0  0  0  0  0  0  0  0  0  0
    0.2810    4.8850  -23.9290 C   0  0  0  0  0  0  0  0  0  0  0  0
   -1.7330    3.6660  -24.8000 C   0  0  0  0  0  0  0  0  0  0  0  0
    4.4240    1.6410  -23.4160 C   0  0  0  0  0  0  0  0  0  0  0  0
    5.3870    1.3020  -22.2880 C   0  0  2  0  0  0  0  0  0  0  0  0
    6.9750    2.8180  -22.9020 C   0  0  2  0  0  0  0  0  0  0  0  0
    5.4090    2.3290  -21.1430 C   0  0  0  0  0  0  0  0  0  0  0  0
   -2.0970    3.7960  -26.2210 C   0  0  0  0  0  0  0  0  0  0  0  0
   -1.2380    3.1270  -21.8550 C   0  0  0  0  0  0  0  0  0  0  0  0
   -0.1960    2.7820  -21.3710 C   0  0  0  0  0  0  0  0  0  0  0  0
   -0.5430    5.9440  -23.5840 F   0  0  0  0  0  0  0  0  0  0  0  0
   -3.3780    3.4670  -20.2730 F   0  0  0  0  0  0  0  0  0  0  0  0
    2.1160    6.2380  -23.2260 N   0  0  0  0  0  0  0  0  0  0  0  0
    4.3230    5.2930  -23.3390 N   0  0  0  0  0  0  0  0  0  0  0  0
    0.5310    2.7370  -24.9040 N   0  0  0  0  0  0  0  0  0  0  0  0
    4.7340    3.0770  -23.9250 N   0  0  0  0  0  0  0  0  0  0  0  0
    6.7800    1.3480  -22.8100 N   0  0  0  0  0  0  0  0  0  0  0  0
   -3.6700    3.9670  -27.9380 O   0  0  0  0  0  0  0  0  0  0  0  0
    7.3440    8.0050  -19.8480 N   0  0  0  0  0  0  0  0  0  0  0  0
    9.7690    9.0550  -22.9940 N   0  0  0  0  0  0  0  0  0  0  0  0
    5.3070    8.9000  -20.8980 C   0  0  0  0  0  0  0  0  0  0  0  0
    4.0230    7.6120  -22.6930 C   0  0  0  0  0  0  0  0  0  0  0  0
    4.4260    7.6700  -21.2050 C   0  0  0  0  0  0  0  0  0  0  0  0
    6.8040    8.6300  -20.9370 C   0  0  0  0  0  0  0  0  0  0  0  0
    7.5880    8.9830  -21.9840 C   0  0  0  0  0  0  0  0  0  0  0  0
    8.9570    8.7050  -21.9430 C   0  0  0  0  0  0  0  0  0  0  0  0
    9.4920    8.0690  -20.8210 C   0  0  0  0  0  0  0  0  0  0  0  0
    8.6800    7.7290  -19.7920 C   0  0  0  0  0  0  0  0  0  0  0  0
  1  2  2  0
  1  3  1  0
  2  6  1  0
  3  5  2  0
  3 27  1  0
  4  5  1  0
  4  6  2  0
  4 18  1  0
  5 24  1  0
  6 10  1  0
  7 10  2  0
  7 23  1  0
  7 33  1  0
 21  8  1  1
  8 22  1  0
  9 21  1  0
  9 31  1  0
 11 12  1  0
 11 14  1  0
 11 15  2  0
 12 17  2  0
 12 28  1  0
 13 28  2  0
 13 29  1  0
 13 37  1  0
 14 29  2  0
 14 31  1  0
 15 30  1  0
 16 17  1  0
 16 18  1  0
 16 30  2  0
 17 26  1  0
 18 23  2  0
 20 19  1  6
 19 31  1  0
 20 22  1  0
 20 32  1  0
 21 32  1  0
 24 25  3  0
 34 39  1  0
 34 43  1  0
 35 41  1  0
 36 38  1  0
 36 39  1  0
 37 38  1  0
 39 40  2  0
 40 41  1  0
 41 42  1  0
 42 43  2  0
M  END
>  <s_m_entry_id>  (23) 
243

>  <s_m_entry_name>  (23) 
000000085.1

>  <s_m_Source_Path>  (23) 
/Users/zaksoul/Documents/3r_UNI/2nd_SEMESTER/BSC/FRAG_RECON/RESULTS/2

>  <s_m_Source_File>  (23) 
000000085.mol2

>  <i_m_Source_File_Index>  (23) 
1

$$$$
No_0_100,No_0_101,No_0_102
     RDKit          3D

 43 49  0  0  1  0  0  0  0  0999 V2000
   -5.1170    3.8060  -22.0880 C   0  0  0  0  0  0  0  0  0  0  0  0
   -5.3620    3.9690  -23.4310 C   0  0  0  0  0  0  0  0  0  0  0  0
   -3.8910    3.5260  -21.7250 C   0  0  0  0  0  0  0  0  0  0  0  0
   -2.9700    3.5750  -23.8820 C   0  0  0  0  0  0  0  0  0  0  0  0
   -2.8340    3.3600  -22.4540 C   0  0  0  0  0  0  0  0  0  0  0  0
   -4.3030    3.8620  -24.4260 C   0  0  0  0  0  0  0  0  0  0  0  0
   -3.5210    3.8090  -26.6140 C   0  0  0  0  0  0  0  0  0  0  0  0
    6.1180    2.9300  -21.2070 C   0  0  0  0  0  0  0  0  0  0  0  0
    6.0150    3.0140  -23.7610 C   0  0  0  0  0  0  0  0  0  0  0  0
   -4.5340    3.9640  -25.7670 C   0  0  0  0  0  0  0  0  0  0  0  0
    2.2480    3.6670  -23.8400 C   0  0  0  0  0  0  0  0  0  0  0  0
    1.4550    4.8060  -23.5780 C   0  0  0  0  0  0  0  0  0  0  0  0
    3.2780    5.9660  -22.9040 C   0  0  0  0  0  0  0  0  0  0  0  0
    3.6490    3.8260  -23.5140 C   0  0  0  0  0  0  0  0  0  0  0  0
    1.6780    2.5500  -24.4820 C   0  0  0  0  0  0  0  0  0  0  0  0
   -0.4260    3.4260  -24.4180 C   0  0  0  0  0  0  0  0  0  0  0  0
    0.1280    4.6450  -23.8420 C   0  0  0  0  0  0  0  0  0  0  0  0
   -1.8740    3.4640  -24.7910 C   0  0  0  0  0  0  0  0  0  0  0  0
    4.1800    1.3200  -23.1540 C   0  0  0  0  0  0  0  0  0  0  0  0
    5.0890    0.9660  -21.9870 C   0  0  2  0  0  0  0  0  0  0  0  0
    6.7320    2.4480  -22.5400 C   0  0  2  0  0  0  0  0  0  0  0  0
    5.0850    1.9960  -20.8450 C   0  0  0  0  0  0  0  0  0  0  0  0
   -2.1770    3.5980  -26.2270 C   0  0  0  0  0  0  0  0  0  0  0  0
   -1.5090    2.9240  -21.8280 C   0  0  0  0  0  0  0  0  0  0  0  0
   -0.4950    2.5600  -21.3010 C   0  0  0  0  0  0  0  0  0  0  0  0
   -0.6880    5.7210  -23.5330 F   0  0  0  0  0  0  0  0  0  0  0  0
   -3.7040    3.3110  -20.3350 F   0  0  0  0  0  0  0  0  0  0  0  0
    1.9590    5.9630  -23.0690 N   0  0  0  0  0  0  0  0  0  0  0  0
    4.1500    4.9740  -23.0900 N   0  0  0  0  0  0  0  0  0  0  0  0
    0.3740    2.4900  -24.8020 N   0  0  0  0  0  0  0  0  0  0  0  0
    4.5390    2.7490  -23.6540 N   0  0  0  0  0  0  0  0  0  0  0  0
    6.5030    0.9820  -22.4530 N   0  0  0  0  0  0  0  0  0  0  0  0
   -3.6760    3.7950  -28.0060 O   0  0  0  0  0  0  0  0  0  0  0  0
    6.8830    7.9020  -19.8560 O   0  0  0  0  0  0  0  0  0  0  0  0
    9.9190    8.3840  -18.6270 N   0  0  0  0  0  0  0  0  0  0  0  0
    8.0840    8.9580  -21.2710 N   0  0  0  0  0  0  0  0  0  0  0  0
    3.8700    7.3000  -22.4610 C   0  0  0  0  0  0  0  0  0  0  0  0
    3.8510    7.4460  -20.9290 C   0  0  0  0  0  0  0  0  0  0  0  0
    4.5480    8.7350  -20.4770 C   0  0  0  0  0  0  0  0  0  0  0  0
    6.0510    8.6770  -20.6380 C   0  0  0  0  0  0  0  0  0  0  0  0
    9.3050    7.4810  -19.6670 C   0  0  0  0  0  0  0  0  0  0  0  0
    8.0650    8.1120  -20.2670 C   0  0  0  0  0  0  0  0  0  0  0  0
    6.7950    9.3260  -21.5220 C   0  0  0  0  0  0  0  0  0  0  0  0
  1  2  2  0
  1  3  1  0
  2  6  1  0
  3  5  2  0
  3 27  1  0
  4  5  1  0
  4  6  2  0
  4 18  1  0
  5 24  1  0
  6 10  1  0
  7 10  2  0
  7 23  1  0
  7 33  1  0
 21  8  1  1
  8 22  1  0
  9 21  1  0
  9 31  1  0
 11 12  1  0
 11 14  1  0
 11 15  2  0
 12 17  2  0
 12 28  1  0
 13 28  2  0
 13 29  1  0
 13 37  1  0
 14 29  2  0
 14 31  1  0
 15 30  1  0
 16 17  1  0
 16 18  1  0
 16 30  2  0
 17 26  1  0
 18 23  2  0
 20 19  1  6
 19 31  1  0
 20 22  1  0
 20 32  1  0
 21 32  1  0
 24 25  3  0
 34 40  1  0
 34 42  1  0
 35 41  1  0
 36 42  2  0
 36 43  1  0
 37 38  1  0
 38 39  1  0
 39 40  1  0
 40 43  2  0
 41 42  1  0
M  CHG  1  35   1
M  END
>  <s_m_entry_id>  (24) 
247

>  <s_m_entry_name>  (24) 
000000089.1

>  <s_m_Source_Path>  (24) 
/Users/zaksoul/Documents/3r_UNI/2nd_SEMESTER/BSC/FRAG_RECON/RESULTS/2

>  <s_m_Source_File>  (24) 
000000089.mol2

>  <i_m_Source_File_Index>  (24) 
1

$$$$
No_0_106,No_0_107,No_0_108
     RDKit          3D

 41 47  0  0  1  0  0  0  0  0999 V2000
   -5.3590    3.2930  -21.7930 C   0  0  0  0  0  0  0  0  0  0  0  0
   -5.6590    3.4950  -23.1200 C   0  0  0  0  0  0  0  0  0  0  0  0
   -4.1110    3.0500  -21.4840 C   0  0  0  0  0  0  0  0  0  0  0  0
   -3.2720    3.2140  -23.6680 C   0  0  0  0  0  0  0  0  0  0  0  0
   -3.0750    2.9540  -22.2550 C   0  0  0  0  0  0  0  0  0  0  0  0
   -4.6340    3.4660  -24.1550 C   0  0  0  0  0  0  0  0  0  0  0  0
   -3.9310    3.5240  -26.3690 C   0  0  0  0  0  0  0  0  0  0  0  0
    5.9270    2.8420  -21.3400 C   0  0  0  0  0  0  0  0  0  0  0  0
    5.7270    3.0140  -23.8840 C   0  0  0  0  0  0  0  0  0  0  0  0
   -4.9180    3.6070  -25.4820 C   0  0  0  0  0  0  0  0  0  0  0  0
    1.9370    3.5170  -23.8070 C   0  0  0  0  0  0  0  0  0  0  0  0
    1.1100    4.6120  -23.4750 C   0  0  0  0  0  0  0  0  0  0  0  0
    2.9090    5.8200  -22.8220 C   0  0  0  0  0  0  0  0  0  0  0  0
    3.3420    3.7200  -23.5240 C   0  0  0  0  0  0  0  0  0  0  0  0
    1.3880    2.4010  -24.4690 C   0  0  0  0  0  0  0  0  0  0  0  0
   -0.7450    3.1880  -24.2990 C   0  0  0  0  0  0  0  0  0  0  0  0
   -0.2190    4.4070  -23.6970 C   0  0  0  0  0  0  0  0  0  0  0  0
   -2.2060    3.1810  -24.6190 C   0  0  0  0  0  0  0  0  0  0  0  0
    3.9830    1.2270  -23.2770 C   0  0  0  0  0  0  0  0  0  0  0  0
    4.9470    0.8680  -22.1570 C   0  0  2  0  0  0  0  0  0  0  0  0
    6.5090    2.4340  -22.7110 C   0  0  2  0  0  0  0  0  0  0  0  0
    4.9450    1.8550  -20.9770 C   0  0  0  0  0  0  0  0  0  0  0  0
   -2.5670    3.3540  -26.0370 C   0  0  0  0  0  0  0  0  0  0  0  0
   -1.7120    2.5490  -21.6930 C   0  0  0  0  0  0  0  0  0  0  0  0
   -0.6660    2.2080  -21.2160 C   0  0  0  0  0  0  0  0  0  0  0  0
   -1.0650    5.4370  -23.3200 F   0  0  0  0  0  0  0  0  0  0  0  0
   -3.8650    2.7940  -20.1110 F   0  0  0  0  0  0  0  0  0  0  0  0
    1.5860    5.7700  -22.9400 N   0  0  0  0  0  0  0  0  0  0  0  0
    3.8120    4.8710  -23.0750 N   0  0  0  0  0  0  0  0  0  0  0  0
    0.0760    2.3000  -24.7450 N   0  0  0  0  0  0  0  0  0  0  0  0
    4.2680    2.6860  -23.7350 N   0  0  0  0  0  0  0  0  0  0  0  0
    6.3410    0.9580  -22.6710 N   0  0  0  0  0  0  0  0  0  0  0  0
   -4.1360    3.5540  -27.7540 O   0  0  0  0  0  0  0  0  0  0  0  0
    5.5310    8.4780  -22.1200 N   0  0  0  0  0  0  0  0  0  0  0  0
    6.3800   10.0230  -20.8470 N   0  0  0  0  0  0  0  0  0  0  0  0
    3.4640    7.1600  -22.3500 C   0  0  0  0  0  0  0  0  0  0  0  0
    6.1950   10.7250  -22.1080 C   0  0  0  0  0  0  0  0  0  0  0  0
    5.6040    9.6130  -23.0260 C   0  0  0  0  0  0  0  0  0  0  0  0
    5.9890    8.7600  -20.9070 C   0  0  0  0  0  0  0  0  0  0  0  0
    6.0720    7.8090  -19.7380 C   0  0  0  0  0  0  0  0  0  0  0  0
    4.9900    7.1960  -22.5370 C   0  0  0  0  0  0  0  0  0  0  0  0
  1  2  2  0
  1  3  1  0
  2  6  1  0
  3  5  2  0
  3 27  1  0
  4  5  1  0
  4  6  2  0
  4 18  1  0
  5 24  1  0
  6 10  1  0
  7 10  2  0
  7 23  1  0
  7 33  1  0
 21  8  1  1
  8 22  1  0
  9 21  1  0
  9 31  1  0
 11 12  1  0
 11 14  1  0
 11 15  2  0
 12 17  2  0
 12 28  1  0
 13 28  2  0
 13 29  1  0
 13 36  1  0
 14 29  2  0
 14 31  1  0
 15 30  1  0
 16 17  1  0
 16 18  1  0
 16 30  2  0
 17 26  1  0
 18 23  2  0
 20 19  1  6
 19 31  1  0
 20 22  1  0
 20 32  1  0
 21 32  1  0
 24 25  3  0
 34 38  1  0
 34 39  1  0
 34 41  1  0
 35 37  1  0
 35 39  2  0
 36 41  1  0
 37 38  1  0
 39 40  1  0
M  CHG  1  35   1
M  END
>  <s_m_entry_id>  (25) 
252

>  <s_m_entry_name>  (25) 
000000094.1

>  <s_m_Source_Path>  (25) 
/Users/zaksoul/Documents/3r_UNI/2nd_SEMESTER/BSC/FRAG_RECON/RESULTS/2

>  <s_m_Source_File>  (25) 
000000094.mol2

>  <i_m_Source_File_Index>  (25) 
1

$$$$
No_0_109,No_0_110,No_0_111
     RDKit          3D

 43 49  0  0  1  0  0  0  0  0999 V2000
   -5.0250    3.7770  -21.8130 C   0  0  0  0  0  0  0  0  0  0  0  0
   -5.3300    3.9260  -23.1450 C   0  0  0  0  0  0  0  0  0  0  0  0
   -3.7770    3.5340  -21.5010 C   0  0  0  0  0  0  0  0  0  0  0  0
   -2.9500    3.5960  -23.6950 C   0  0  0  0  0  0  0  0  0  0  0  0
   -2.7470    3.3930  -22.2730 C   0  0  0  0  0  0  0  0  0  0  0  0
   -4.3120    3.8430  -24.1840 C   0  0  0  0  0  0  0  0  0  0  0  0
   -3.6210    3.7990  -26.4030 C   0  0  0  0  0  0  0  0  0  0  0  0
    6.2580    3.2190  -21.4040 C   0  0  0  0  0  0  0  0  0  0  0  0
    6.0450    3.2850  -23.9510 C   0  0  0  0  0  0  0  0  0  0  0  0
   -4.6020    3.9310  -25.5140 C   0  0  0  0  0  0  0  0  0  0  0  0
    2.2610    3.8340  -23.8740 C   0  0  0  0  0  0  0  0  0  0  0  0
    1.4480    4.9510  -23.5840 C   0  0  0  0  0  0  0  0  0  0  0  0
    3.2650    6.1660  -22.9930 C   0  0  0  0  0  0  0  0  0  0  0  0
    3.6700    4.0330  -23.6080 C   0  0  0  0  0  0  0  0  0  0  0  0
    1.6960    2.6980  -24.4860 C   0  0  0  0  0  0  0  0  0  0  0  0
   -0.4280    3.5140  -24.3380 C   0  0  0  0  0  0  0  0  0  0  0  0
    0.1160    4.7520  -23.7910 C   0  0  0  0  0  0  0  0  0  0  0  0
   -1.8900    3.5100  -24.6490 C   0  0  0  0  0  0  0  0  0  0  0  0
    4.2850    1.5450  -23.2600 C   0  0  0  0  0  0  0  0  0  0  0  0
    5.2520    1.2230  -22.1310 C   0  0  2  0  0  0  0  0  0  0  0  0
    6.8280    2.7470  -22.7590 C   0  0  2  0  0  0  0  0  0  0  0  0
    5.2670    2.2590  -20.9940 C   0  0  0  0  0  0  0  0  0  0  0  0
   -2.2570    3.6280  -26.0710 C   0  0  0  0  0  0  0  0  0  0  0  0
   -1.3860    2.9980  -21.7020 C   0  0  0  0  0  0  0  0  0  0  0  0
   -0.3410    2.6650  -21.2160 C   0  0  0  0  0  0  0  0  0  0  0  0
   -0.7160    5.8070  -23.4530 F   0  0  0  0  0  0  0  0  0  0  0  0
   -3.5260    3.3320  -20.1190 F   0  0  0  0  0  0  0  0  0  0  0  0
    1.9400    6.1250  -23.1020 N   0  0  0  0  0  0  0  0  0  0  0  0
    4.1550    5.1970  -23.2110 N   0  0  0  0  0  0  0  0  0  0  0  0
    0.3810    2.5990  -24.7500 N   0  0  0  0  0  0  0  0  0  0  0  0
    4.5830    2.9800  -23.7810 N   0  0  0  0  0  0  0  0  0  0  0  0
    6.6440    1.2750  -22.6560 N   0  0  0  0  0  0  0  0  0  0  0  0
   -3.8350    3.7730  -27.7860 O   0  0  0  0  0  0  0  0  0  0  0  0
    8.4740    8.7860  -20.4220 N   0  0  0  0  0  0  0  0  0  0  0  0
    4.8380    8.8700  -20.7240 N   0  0  0  0  0  0  0  0  0  0  0  0
    5.6590   10.3320  -22.9970 N   0  0  0  0  0  0  0  0  0  0  0  0
    3.8370    7.5180  -22.5810 C   0  0  0  0  0  0  0  0  0  0  0  0
    6.1970    9.0820  -20.9970 C   0  0  0  0  0  0  0  0  0  0  0  0
    4.2390    7.5790  -21.0940 C   0  0  0  0  0  0  0  0  0  0  0  0
    7.9510   10.0340  -22.3530 C   0  0  0  0  0  0  0  0  0  0  0  0
    6.5930    9.8250  -22.1210 C   0  0  0  0  0  0  0  0  0  0  0  0
    7.1490    8.5720  -20.1670 C   0  0  0  0  0  0  0  0  0  0  0  0
    8.8720    9.5140  -21.5030 C   0  0  0  0  0  0  0  0  0  0  0  0
  1  2  2  0
  1  3  1  0
  2  6  1  0
  3  5  2  0
  3 27  1  0
  4  5  1  0
  4  6  2  0
  4 18  1  0
  5 24  1  0
  6 10  1  0
  7 10  2  0
  7 23  1  0
  7 33  1  0
 21  8  1  1
  8 22  1  0
  9 21  1  0
  9 31  1  0
 11 12  1  0
 11 14  1  0
 11 15  2  0
 12 17  2  0
 12 28  1  0
 13 28  2  0
 13 29  1  0
 13 37  1  0
 14 29  2  0
 14 31  1  0
 15 30  1  0
 16 17  1  0
 16 18  1  0
 16 30  2  0
 17 26  1  0
 18 23  2  0
 20 19  1  6
 19 31  1  0
 20 22  1  0
 20 32  1  0
 21 32  1  0
 24 25  3  0
 34 42  1  0
 34 43  1  0
 35 38  1  0
 35 39  1  0
 36 41  1  0
 37 39  1  0
 38 41  1  0
 38 42  2  0
 40 41  1  0
 40 43  2  0
M  END
>  <s_m_entry_id>  (26) 
255

>  <s_m_entry_name>  (26) 
000000097.1

>  <s_m_Source_Path>  (26) 
/Users/zaksoul/Documents/3r_UNI/2nd_SEMESTER/BSC/FRAG_RECON/RESULTS/2

>  <s_m_Source_File>  (26) 
000000097.mol2

>  <i_m_Source_File_Index>  (26) 
1

$$$$
No_0_115
     RDKit          3D

 43 49  0  0  1  0  0  0  0  0999 V2000
   -5.0940    3.5940  -22.0750 C   0  0  0  0  0  0  0  0  0  0  0  0
   -5.3790    3.7350  -23.4120 C   0  0  0  0  0  0  0  0  0  0  0  0
   -3.8500    3.3600  -21.7420 C   0  0  0  0  0  0  0  0  0  0  0  0
   -2.9880    3.4160  -23.9220 C   0  0  0  0  0  0  0  0  0  0  0  0
   -2.8070    3.2220  -22.4970 C   0  0  0  0  0  0  0  0  0  0  0  0
   -4.3440    3.6530  -24.4340 C   0  0  0  0  0  0  0  0  0  0  0  0
   -3.6190    3.6030  -26.6420 C   0  0  0  0  0  0  0  0  0  0  0  0
    6.1840    3.1070  -21.4860 C   0  0  0  0  0  0  0  0  0  0  0  0
    6.0110    3.1600  -24.0370 C   0  0  0  0  0  0  0  0  0  0  0  0
   -4.6140    3.7320  -25.7700 C   0  0  0  0  0  0  0  0  0  0  0  0
    2.2230    3.6850  -24.0220 C   0  0  0  0  0  0  0  0  0  0  0  0
    1.3990    4.7990  -23.7500 C   0  0  0  0  0  0  0  0  0  0  0  0
    3.1990    6.0280  -23.1360 C   0  0  0  0  0  0  0  0  0  0  0  0
    3.6260    3.8950  -23.7340 C   0  0  0  0  0  0  0  0  0  0  0  0
    1.6750    2.5430  -24.6360 C   0  0  0  0  0  0  0  0  0  0  0  0
   -0.4560    3.3470  -24.5250 C   0  0  0  0  0  0  0  0  0  0  0  0
    0.0710    4.5910  -23.9760 C   0  0  0  0  0  0  0  0  0  0  0  0
   -1.9140    3.3330  -24.8600 C   0  0  0  0  0  0  0  0  0  0  0  0
    4.2510    1.4120  -23.3640 C   0  0  0  0  0  0  0  0  0  0  0  0
    5.2020    1.1020  -22.2190 C   0  0  2  0  0  0  0  0  0  0  0  0
    6.7780    2.6320  -22.8300 C   0  0  2  0  0  0  0  0  0  0  0  0
    5.1930    2.1430  -21.0870 C   0  0  0  0  0  0  0  0  0  0  0  0
   -2.2590    3.4410  -26.2880 C   0  0  0  0  0  0  0  0  0  0  0  0
   -1.4530    2.8380  -21.9020 C   0  0  0  0  0  0  0  0  0  0  0  0
   -0.4130    2.5130  -21.3990 C   0  0  0  0  0  0  0  0  0  0  0  0
   -0.7720    5.6420  -23.6570 F   0  0  0  0  0  0  0  0  0  0  0  0
   -3.6200    3.1670  -20.3550 F   0  0  0  0  0  0  0  0  0  0  0  0
    1.8760    5.9780  -23.2650 N   0  0  0  0  0  0  0  0  0  0  0  0
    4.0980    5.0630  -23.3350 N   0  0  0  0  0  0  0  0  0  0  0  0
    0.3650    2.4350  -24.9210 N   0  0  0  0  0  0  0  0  0  0  0  0
    4.5480    2.8460  -23.8870 N   0  0  0  0  0  0  0  0  0  0  0  0
    6.6010    1.1600  -22.7220 N   0  0  0  0  0  0  0  0  0  0  0  0
   -3.8100    3.5680  -28.0290 O   0  0  0  0  0  0  0  0  0  0  0  0
    4.7050    8.6980  -20.8040 O   0  0  0  0  0  0  0  0  0  0  0  0
    7.1270   10.4700  -22.7630 N   0  0  0  0  0  0  0  0  0  0  0  0
    7.1130    7.4330  -19.9840 N   0  0  0  0  0  0  0  0  0  0  0  0
    3.7560    7.3850  -22.7230 C   0  0  0  0  0  0  0  0  0  0  0  0
    5.8950    9.0580  -21.3150 C   0  0  0  0  0  0  0  0  0  0  0  0
    8.2930    8.8500  -21.5130 C   0  0  0  0  0  0  0  0  0  0  0  0
    7.0960    8.4330  -20.9310 C   0  0  0  0  0  0  0  0  0  0  0  0
    4.1300    7.4400  -21.2260 C   0  0  0  0  0  0  0  0  0  0  0  0
    5.9390   10.0760  -22.2180 C   0  0  0  0  0  0  0  0  0  0  0  0
    8.2940    9.8580  -22.4190 C   0  0  0  0  0  0  0  0  0  0  0  0
  1  2  2  0
  1  3  1  0
  2  6  1  0
  3  5  2  0
  3 27  1  0
  4  5  1  0
  4  6  2  0
  4 18  1  0
  5 24  1  0
  6 10  1  0
  7 10  2  0
  7 23  1  0
  7 33  1  0
 21  8  1  1
  8 22  1  0
  9 21  1  0
  9 31  1  0
 11 12  1  0
 11 14  1  0
 11 15  2  0
 12 17  2  0
 12 28  1  0
 13 28  2  0
 13 29  1  0
 13 37  1  0
 14 29  2  0
 14 31  1  0
 15 30  1  0
 16 17  1  0
 16 18  1  0
 16 30  2  0
 17 26  1  0
 18 23  2  0
 20 19  1  6
 19 31  1  0
 20 22  1  0
 20 32  1  0
 21 32  1  0
 24 25  3  0
 34 38  1  0
 34 41  1  0
 35 42  1  0
 35 43  1  0
 36 40  1  0
 37 41  1  0
 38 40  1  0
 38 42  2  0
 39 40  1  0
 39 43  2  0
M  END
>  <s_m_entry_id>  (27) 
261

>  <s_m_entry_name>  (27) 
000000103.1

>  <s_m_Source_Path>  (27) 
/Users/zaksoul/Documents/3r_UNI/2nd_SEMESTER/BSC/FRAG_RECON/RESULTS/2

>  <s_m_Source_File>  (27) 
000000103.mol2

>  <i_m_Source_File_Index>  (27) 
1

$$$$
No_0_116,No_0_117,No_0_118,No_0_119
     RDKit          3D

 40 46  0  0  1  0  0  0  0  0999 V2000
   -5.0950    3.5370  -22.1470 C   0  0  0  0  0  0  0  0  0  0  0  0
   -5.3630    3.6920  -23.4860 C   0  0  0  0  0  0  0  0  0  0  0  0
   -3.8520    3.3200  -21.8000 C   0  0  0  0  0  0  0  0  0  0  0  0
   -2.9600    3.4240  -23.9660 C   0  0  0  0  0  0  0  0  0  0  0  0
   -2.7960    3.2120  -22.5410 C   0  0  0  0  0  0  0  0  0  0  0  0
   -4.3120    3.6440  -24.4940 C   0  0  0  0  0  0  0  0  0  0  0  0
   -3.5540    3.6400  -26.6910 C   0  0  0  0  0  0  0  0  0  0  0  0
    6.1800    3.2400  -21.4000 C   0  0  0  0  0  0  0  0  0  0  0  0
    6.0430    3.3290  -23.9520 C   0  0  0  0  0  0  0  0  0  0  0  0
   -4.5640    3.7390  -25.8320 C   0  0  0  0  0  0  0  0  0  0  0  0
    2.2460    3.7870  -23.9850 C   0  0  0  0  0  0  0  0  0  0  0  0
    1.3990    4.8820  -23.7090 C   0  0  0  0  0  0  0  0  0  0  0  0
    3.1670    6.1330  -23.0510 C   0  0  0  0  0  0  0  0  0  0  0  0
    3.6410    4.0170  -23.6740 C   0  0  0  0  0  0  0  0  0  0  0  0
    1.7280    2.6440  -24.6250 C   0  0  0  0  0  0  0  0  0  0  0  0
   -0.4180    3.4090  -24.5330 C   0  0  0  0  0  0  0  0  0  0  0  0
    0.0780    4.6530  -23.9570 C   0  0  0  0  0  0  0  0  0  0  0  0
   -1.8710    3.3740  -24.8890 C   0  0  0  0  0  0  0  0  0  0  0  0
    4.3050    1.5400  -23.3320 C   0  0  0  0  0  0  0  0  0  0  0  0
    5.2450    1.2290  -22.1770 C   0  0  2  0  0  0  0  0  0  0  0  0
    6.8020    2.7960  -22.7420 C   0  0  2  0  0  0  0  0  0  0  0  0
    5.2010    2.2530  -21.0300 C   0  0  0  0  0  0  0  0  0  0  0  0
   -2.1970    3.4980  -26.3200 C   0  0  0  0  0  0  0  0  0  0  0  0
   -1.4430    2.8420  -21.9330 C   0  0  0  0  0  0  0  0  0  0  0  0
   -0.4060    2.5290  -21.4190 C   0  0  0  0  0  0  0  0  0  0  0  0
   -0.7890    5.6850  -23.6350 F   0  0  0  0  0  0  0  0  0  0  0  0
   -3.6380    3.1090  -20.4130 F   0  0  0  0  0  0  0  0  0  0  0  0
    1.8480    6.0620  -23.2000 N   0  0  0  0  0  0  0  0  0  0  0  0
    4.0860    5.1870  -23.2500 N   0  0  0  0  0  0  0  0  0  0  0  0
    0.4240    2.5180  -24.9300 N   0  0  0  0  0  0  0  0  0  0  0  0
    4.5840    2.9880  -23.8290 N   0  0  0  0  0  0  0  0  0  0  0  0
    6.6500    1.3200  -22.6590 N   0  0  0  0  0  0  0  0  0  0  0  0
   -3.7250    3.6240  -28.0810 O   0  0  0  0  0  0  0  0  0  0  0  0
    7.4420   10.2570  -21.7510 O   0  0  0  0  0  0  0  0  0  0  0  0
    4.8480    8.7590  -20.7160 N   0  0  0  0  0  0  0  0  0  0  0  0
    6.7140    9.2330  -22.4260 C   0  0  0  0  0  0  0  0  0  0  0  0
    7.1010    9.8880  -20.4160 C   0  0  0  0  0  0  0  0  0  0  0  0
    4.0480    7.5430  -21.1070 C   0  0  0  0  0  0  0  0  0  0  0  0
    6.3200    8.7020  -21.0270 C   0  0  0  0  0  0  0  0  0  0  0  0
    3.6940    7.4940  -22.6080 C   0  0  0  0  0  0  0  0  0  0  0  0
  1  2  2  0
  1  3  1  0
  2  6  1  0
  3  5  2  0
  3 27  1  0
  4  5  1  0
  4  6  2  0
  4 18  1  0
  5 24  1  0
  6 10  1  0
  7 10  2  0
  7 23  1  0
  7 33  1  0
 21  8  1  1
  8 22  1  0
  9 21  1  0
  9 31  1  0
 11 12  1  0
 11 14  1  0
 11 15  2  0
 12 17  2  0
 12 28  1  0
 13 28  2  0
 13 29  1  0
 13 40  1  0
 14 29  2  0
 14 31  1  0
 15 30  1  0
 16 17  1  0
 16 18  1  0
 16 30  2  0
 17 26  1  0
 18 23  2  0
 20 19  1  6
 19 31  1  0
 20 22  1  0
 20 32  1  0
 21 32  1  0
 24 25  3  0
 34 36  1  0
 34 37  1  0
 35 38  1  0
 35 39  1  0
 36 39  1  0
 37 39  1  0
 38 40  1  0
M  CHG  1  35   1
M  END
>  <s_m_entry_id>  (28) 
262

>  <s_m_entry_name>  (28) 
000000104.1

>  <s_m_Source_Path>  (28) 
/Users/zaksoul/Documents/3r_UNI/2nd_SEMESTER/BSC/FRAG_RECON/RESULTS/2

>  <s_m_Source_File>  (28) 
000000104.mol2

>  <i_m_Source_File_Index>  (28) 
1

$$$$
No_0_120,No_0_121
     RDKit          3D

 43 49  0  0  1  0  0  0  0  0999 V2000
   -5.0880    3.9800  -22.1110 C   0  0  0  0  0  0  0  0  0  0  0  0
   -5.3550    4.1650  -23.4470 C   0  0  0  0  0  0  0  0  0  0  0  0
   -3.8530    3.7050  -21.7730 C   0  0  0  0  0  0  0  0  0  0  0  0
   -2.9680    3.8000  -23.9430 C   0  0  0  0  0  0  0  0  0  0  0  0
   -2.8070    3.5620  -22.5210 C   0  0  0  0  0  0  0  0  0  0  0  0
   -4.3120    4.0860  -24.4600 C   0  0  0  0  0  0  0  0  0  0  0  0
   -3.5650    4.0790  -26.6610 C   0  0  0  0  0  0  0  0  0  0  0  0
    6.1680    3.1900  -21.4280 C   0  0  0  0  0  0  0  0  0  0  0  0
    6.0220    3.3190  -23.9770 C   0  0  0  0  0  0  0  0  0  0  0  0
   -4.5660    4.2090  -25.7960 C   0  0  0  0  0  0  0  0  0  0  0  0
    2.2490    3.9400  -23.9840 C   0  0  0  0  0  0  0  0  0  0  0  0
    1.4510    5.0660  -23.6890 C   0  0  0  0  0  0  0  0  0  0  0  0
    3.2740    6.2310  -23.0240 C   0  0  0  0  0  0  0  0  0  0  0  0
    3.6540    4.1060  -23.6780 C   0  0  0  0  0  0  0  0  0  0  0  0
    1.6790    2.8290  -24.6360 C   0  0  0  0  0  0  0  0  0  0  0  0
   -0.4320    3.6840  -24.5230 C   0  0  0  0  0  0  0  0  0  0  0  0
    0.1200    4.8980  -23.9340 C   0  0  0  0  0  0  0  0  0  0  0  0
   -1.8860    3.7160  -24.8720 C   0  0  0  0  0  0  0  0  0  0  0  0
    4.2120    1.5980  -23.3720 C   0  0  0  0  0  0  0  0  0  0  0  0
    5.1430    1.2320  -22.2260 C   0  0  2  0  0  0  0  0  0  0  0  0
    6.7640    2.7380  -22.7790 C   0  0  2  0  0  0  0  0  0  0  0  0
    5.1490    2.2410  -21.0660 C   0  0  0  0  0  0  0  0  0  0  0  0
   -2.2140    3.8730  -26.3000 C   0  0  0  0  0  0  0  0  0  0  0  0
   -1.4680    3.1270  -21.9250 C   0  0  0  0  0  0  0  0  0  0  0  0
   -0.4430    2.7620  -21.4210 C   0  0  0  0  0  0  0  0  0  0  0  0
   -0.7000    5.9610  -23.5930 F   0  0  0  0  0  0  0  0  0  0  0  0
   -3.6420    3.4680  -20.3900 F   0  0  0  0  0  0  0  0  0  0  0  0
    1.9520    6.2190  -23.1670 N   0  0  0  0  0  0  0  0  0  0  0  0
    4.1510    5.2500  -23.2410 N   0  0  0  0  0  0  0  0  0  0  0  0
    0.3690    2.7630  -24.9360 N   0  0  0  0  0  0  0  0  0  0  0  0
    4.5510    3.0390  -23.8510 N   0  0  0  0  0  0  0  0  0  0  0  0
    6.5490    1.2690  -22.7140 N   0  0  0  0  0  0  0  0  0  0  0  0
   -3.7430    4.0880  -28.0510 O   0  0  0  0  0  0  0  0  0  0  0  0
    4.8650    8.7670  -20.5760 N   0  0  0  0  0  0  0  0  0  0  0  0
    6.3810    9.0910  -23.1600 N   0  0  0  0  0  0  0  0  0  0  0  0
    8.0540   10.5900  -23.2720 N   0  0  0  0  0  0  0  0  0  0  0  0
    3.8610    7.5620  -22.5660 C   0  0  0  0  0  0  0  0  0  0  0  0
    6.3210    8.4330  -20.7780 C   0  0  0  0  0  0  0  0  0  0  0  0
    3.8840    7.7210  -21.0340 C   0  0  0  0  0  0  0  0  0  0  0  0
    6.8780    9.2210  -21.9390 C   0  0  0  0  0  0  0  0  0  0  0  0
    7.9620   10.1920  -22.0110 C   0  0  0  0  0  0  0  0  0  0  0  0
    7.0980    9.9190  -23.9420 C   0  0  0  0  0  0  0  0  0  0  0  0
    8.8940   10.7440  -20.9620 C   0  0  0  0  0  0  0  0  0  0  0  0
  1  2  2  0
  1  3  1  0
  2  6  1  0
  3  5  2  0
  3 27  1  0
  4  5  1  0
  4  6  2  0
  4 18  1  0
  5 24  1  0
  6 10  1  0
  7 10  2  0
  7 23  1  0
  7 33  1  0
 21  8  1  1
  8 22  1  0
  9 21  1  0
  9 31  1  0
 11 12  1  0
 11 14  1  0
 11 15  2  0
 12 17  2  0
 12 28  1  0
 13 28  2  0
 13 29  1  0
 13 37  1  0
 14 29  2  0
 14 31  1  0
 15 30  1  0
 16 17  1  0
 16 18  1  0
 16 30  2  0
 17 26  1  0
 18 23  2  0
 20 19  1  6
 19 31  1  0
 20 22  1  0
 20 32  1  0
 21 32  1  0
 24 25  3  0
 34 38  1  0
 34 39  1  0
 35 40  1  0
 35 42  2  0
 36 41  1  0
 36 42  1  0
 37 39  1  0
 38 40  1  0
 40 41  2  0
 41 43  1  0
M  CHG  1  34   1
M  END
>  <s_m_entry_id>  (29) 
266

>  <s_m_entry_name>  (29) 
000000108.1

>  <s_m_Source_Path>  (29) 
/Users/zaksoul/Documents/3r_UNI/2nd_SEMESTER/BSC/FRAG_RECON/RESULTS/2

>  <s_m_Source_File>  (29) 
000000108.mol2

>  <i_m_Source_File_Index>  (29) 
1

$$$$
No_0_122,No_0_123,No_0_124,No_0_125,No_0_126,No_0_127,No_0_128
     RDKit          3D

 40 45  0  0  1  0  0  0  0  0999 V2000
   -5.0610    3.6400  -21.9410 C   0  0  0  0  0  0  0  0  0  0  0  0
   -5.3360    3.8240  -23.2760 C   0  0  0  0  0  0  0  0  0  0  0  0
   -3.8200    3.3910  -21.6070 C   0  0  0  0  0  0  0  0  0  0  0  0
   -2.9420    3.5130  -23.7780 C   0  0  0  0  0  0  0  0  0  0  0  0
   -2.7720    3.2740  -22.3580 C   0  0  0  0  0  0  0  0  0  0  0  0
   -4.2930    3.7710  -24.2920 C   0  0  0  0  0  0  0  0  0  0  0  0
   -3.5510    3.7880  -26.4950 C   0  0  0  0  0  0  0  0  0  0  0  0
    6.2110    3.0960  -21.2850 C   0  0  0  0  0  0  0  0  0  0  0  0
    6.0570    3.2300  -23.8340 C   0  0  0  0  0  0  0  0  0  0  0  0
   -4.5530    3.8930  -25.6260 C   0  0  0  0  0  0  0  0  0  0  0  0
    2.2710    3.7680  -23.8310 C   0  0  0  0  0  0  0  0  0  0  0  0
    1.4480    4.8750  -23.5300 C   0  0  0  0  0  0  0  0  0  0  0  0
    3.2470    6.0780  -22.8640 C   0  0  0  0  0  0  0  0  0  0  0  0
    3.6720    3.9640  -23.5260 C   0  0  0  0  0  0  0  0  0  0  0  0
    1.7230    2.6470  -24.4850 C   0  0  0  0  0  0  0  0  0  0  0  0
   -0.4050    3.4550  -24.3640 C   0  0  0  0  0  0  0  0  0  0  0  0
    0.1210    4.6790  -23.7720 C   0  0  0  0  0  0  0  0  0  0  0  0
   -1.8610    3.4560  -24.7100 C   0  0  0  0  0  0  0  0  0  0  0  0
    4.2860    1.4680  -23.2300 C   0  0  0  0  0  0  0  0  0  0  0  0
    5.2280    1.1190  -22.0880 C   0  0  2  0  0  0  0  0  0  0  0  0
    6.8130    2.6620  -22.6390 C   0  0  2  0  0  0  0  0  0  0  0  0
    5.2140    2.1230  -20.9240 C   0  0  0  0  0  0  0  0  0  0  0  0
   -2.1950    3.6100  -26.1370 C   0  0  0  0  0  0  0  0  0  0  0  0
   -1.4230    2.8660  -21.7660 C   0  0  0  0  0  0  0  0  0  0  0  0
   -0.3890    2.5230  -21.2660 C   0  0  0  0  0  0  0  0  0  0  0  0
   -0.7210    5.7230  -23.4260 F   0  0  0  0  0  0  0  0  0  0  0  0
   -3.6010    3.1540  -20.2260 F   0  0  0  0  0  0  0  0  0  0  0  0
    1.9250    6.0370  -23.0050 N   0  0  0  0  0  0  0  0  0  0  0  0
    4.1450    5.1170  -23.0870 N   0  0  0  0  0  0  0  0  0  0  0  0
    0.4150    2.5530  -24.7820 N   0  0  0  0  0  0  0  0  0  0  0  0
    4.5920    2.9180  -23.7060 N   0  0  0  0  0  0  0  0  0  0  0  0
    6.6310    1.1880  -22.5790 N   0  0  0  0  0  0  0  0  0  0  0  0
   -3.7320    3.7980  -27.8840 O   0  0  0  0  0  0  0  0  0  0  0  0
    6.9680    8.5530  -22.1350 O   0  0  0  0  0  0  0  0  0  0  0  0
    4.1180    8.9620  -20.3750 N   0  0  0  0  0  0  0  0  0  0  0  0
    6.1670   10.6360  -21.7310 N   0  0  0  0  0  0  0  0  0  0  0  0
    3.4860    7.7090  -20.9230 C   0  0  0  0  0  0  0  0  0  0  0  0
    5.6110    8.9320  -20.1820 C   0  0  0  0  0  0  0  0  0  0  0  0
    3.8060    7.4200  -22.4040 C   0  0  0  0  0  0  0  0  0  0  0  0
    6.3180    9.3330  -21.4540 C   0  0  0  0  0  0  0  0  0  0  0  0
  1  2  2  0
  1  3  1  0
  2  6  1  0
  3  5  2  0
  3 27  1  0
  4  5  1  0
  4  6  2  0
  4 18  1  0
  5 24  1  0
  6 10  1  0
  7 10  2  0
  7 23  1  0
  7 33  1  0
 21  8  1  1
  8 22  1  0
  9 21  1  0
  9 31  1  0
 11 12  2  0
 11 14  1  0
 11 15  1  0
 12 17  1  0
 12 28  1  0
 13 28  2  0
 13 29  1  0
 13 39  1  0
 14 29  2  0
 14 31  1  0
 15 30  2  0
 16 17  2  0
 16 18  1  0
 16 30  1  0
 17 26  1  0
 18 23  2  0
 20 19  1  6
 19 31  1  0
 20 22  1  0
 20 32  1  0
 21 32  1  0
 24 25  3  0
 34 40  2  0
 35 37  1  0
 35 38  1  0
 36 40  1  0
 37 39  1  0
 38 40  1  0
M  CHG  1  35   1
M  END
>  <s_m_entry_id>  (30) 
268

>  <s_m_entry_name>  (30) 
000000110.1

>  <s_m_Source_Path>  (30) 
/Users/zaksoul/Documents/3r_UNI/2nd_SEMESTER/BSC/FRAG_RECON/RESULTS/2

>  <s_m_Source_File>  (30) 
000000110.mol2

>  <i_m_Source_File_Index>  (30) 
1

$$$$
No_0_129,No_0_130,No_0_131,No_0_132
     RDKit          3D

 42 48  0  0  1  0  0  0  0  0999 V2000
   -4.8060    3.9350  -21.7560 C   0  0  0  0  0  0  0  0  0  0  0  0
   -5.1080    4.1030  -23.0870 C   0  0  0  0  0  0  0  0  0  0  0  0
   -3.5640    3.6610  -21.4480 C   0  0  0  0  0  0  0  0  0  0  0  0
   -2.7360    3.7230  -23.6410 C   0  0  0  0  0  0  0  0  0  0  0  0
   -2.5380    3.5030  -22.2210 C   0  0  0  0  0  0  0  0  0  0  0  0
   -4.0930    4.0060  -24.1270 C   0  0  0  0  0  0  0  0  0  0  0  0
   -3.4050    3.9660  -26.3470 C   0  0  0  0  0  0  0  0  0  0  0  0
    6.4610    3.1140  -21.3610 C   0  0  0  0  0  0  0  0  0  0  0  0
    6.2490    3.2090  -23.9070 C   0  0  0  0  0  0  0  0  0  0  0  0
   -4.3820    4.1120  -25.4560 C   0  0  0  0  0  0  0  0  0  0  0  0
    2.4780    3.8430  -23.8230 C   0  0  0  0  0  0  0  0  0  0  0  0
    1.6920    4.9760  -23.5220 C   0  0  0  0  0  0  0  0  0  0  0  0
    3.5360    6.1430  -22.9210 C   0  0  0  0  0  0  0  0  0  0  0  0
    3.8910    4.0080  -23.5560 C   0  0  0  0  0  0  0  0  0  0  0  0
    1.8870    2.7260  -24.4440 C   0  0  0  0  0  0  0  0  0  0  0  0
   -0.2170    3.5900  -24.2870 C   0  0  0  0  0  0  0  0  0  0  0  0
    0.3550    4.8090  -23.7290 C   0  0  0  0  0  0  0  0  0  0  0  0
   -1.6800    3.6220  -24.5970 C   0  0  0  0  0  0  0  0  0  0  0  0
    4.4500    1.5030  -23.2300 C   0  0  0  0  0  0  0  0  0  0  0  0
    5.4100    1.1490  -22.1050 C   0  0  2  0  0  0  0  0  0  0  0  0
    7.0200    2.6420  -22.7210 C   0  0  2  0  0  0  0  0  0  0  0  0
    5.4500    2.1740  -20.9590 C   0  0  0  0  0  0  0  0  0  0  0  0
   -2.0450    3.7600  -26.0180 C   0  0  0  0  0  0  0  0  0  0  0  0
   -1.1850    3.0710  -21.6550 C   0  0  0  0  0  0  0  0  0  0  0  0
   -0.1480    2.7100  -21.1730 C   0  0  0  0  0  0  0  0  0  0  0  0
   -0.4530    5.8800  -23.3810 F   0  0  0  0  0  0  0  0  0  0  0  0
   -3.3170    3.4410  -20.0680 F   0  0  0  0  0  0  0  0  0  0  0  0
    2.2100    6.1340  -23.0290 N   0  0  0  0  0  0  0  0  0  0  0  0
    4.4040    5.1560  -23.1480 N   0  0  0  0  0  0  0  0  0  0  0  0
    0.5710    2.6600  -24.7080 N   0  0  0  0  0  0  0  0  0  0  0  0
    4.7800    2.9360  -23.7380 N   0  0  0  0  0  0  0  0  0  0  0  0
    6.8020    1.1740  -22.6310 N   0  0  0  0  0  0  0  0  0  0  0  0
   -3.6190    3.9570  -27.7300 O   0  0  0  0  0  0  0  0  0  0  0  0
    4.1470    9.3460  -20.7520 N   0  0  0  0  0  0  0  0  0  0  0  0
    8.1600    9.1040  -22.5360 N   0  0  0  0  0  0  0  0  0  0  0  0
    4.1390    7.4790  -22.4980 C   0  0  0  0  0  0  0  0  0  0  0  0
    6.6840    9.0970  -20.8430 C   0  0  0  0  0  0  0  0  0  0  0  0
    3.5870    8.0050  -21.1580 C   0  0  0  0  0  0  0  0  0  0  0  0
    5.4520    9.3470  -19.9920 C   0  0  0  0  0  0  0  0  0  0  0  0
    7.8400    8.3620  -20.4670 C   0  0  0  0  0  0  0  0  0  0  0  0
    8.6800    8.3950  -21.5000 C   0  0  0  0  0  0  0  0  0  0  0  0
    6.9420    9.5180  -22.0870 C   0  0  0  0  0  0  0  0  0  0  0  0
  1  2  2  0
  1  3  1  0
  2  6  1  0
  3  5  2  0
  3 27  1  0
  4  5  1  0
  4  6  2  0
  4 18  1  0
  5 24  1  0
  6 10  1  0
  7 10  2  0
  7 23  1  0
  7 33  1  0
 21  8  1  1
  8 22  1  0
  9 21  1  0
  9 31  1  0
 11 12  1  0
 11 14  1  0
 11 15  2  0
 12 17  2  0
 12 28  1  0
 13 28  2  0
 13 29  1  0
 13 36  1  0
 14 29  2  0
 14 31  1  0
 15 30  1  0
 16 17  1  0
 16 18  1  0
 16 30  2  0
 17 26  1  0
 18 23  2  0
 20 19  1  6
 19 31  1  0
 20 22  1  0
 20 32  1  0
 21 32  1  0
 24 25  3  0
 34 38  1  0
 34 39  1  0
 35 41  1  0
 35 42  1  0
 36 38  1  0
 37 39  1  0
 37 40  1  0
 37 42  2  0
 40 41  2  0
M  CHG  1  34   1
M  END
>  <s_m_entry_id>  (31) 
275

>  <s_m_entry_name>  (31) 
000000117.1

>  <s_m_Source_Path>  (31) 
/Users/zaksoul/Documents/3r_UNI/2nd_SEMESTER/BSC/FRAG_RECON/RESULTS/2

>  <s_m_Source_File>  (31) 
000000117.mol2

>  <i_m_Source_File_Index>  (31) 
1

$$$$
No_0_137,No_0_138,No_0_139
     RDKit          3D

 42 48  0  0  1  0  0  0  0  0999 V2000
   -5.0500    3.4720  -22.0710 C   0  0  0  0  0  0  0  0  0  0  0  0
   -5.3190    3.6290  -23.4100 C   0  0  0  0  0  0  0  0  0  0  0  0
   -3.8080    3.2490  -21.7240 C   0  0  0  0  0  0  0  0  0  0  0  0
   -2.9170    3.3480  -23.8910 C   0  0  0  0  0  0  0  0  0  0  0  0
   -2.7530    3.1350  -22.4660 C   0  0  0  0  0  0  0  0  0  0  0  0
   -4.2690    3.5750  -24.4190 C   0  0  0  0  0  0  0  0  0  0  0  0
   -3.5120    3.5670  -26.6160 C   0  0  0  0  0  0  0  0  0  0  0  0
    6.2240    3.1190  -21.3300 C   0  0  0  0  0  0  0  0  0  0  0  0
    6.0850    3.2070  -23.8820 C   0  0  0  0  0  0  0  0  0  0  0  0
   -4.5210    3.6710  -25.7560 C   0  0  0  0  0  0  0  0  0  0  0  0
    2.2910    3.6850  -23.9130 C   0  0  0  0  0  0  0  0  0  0  0  0
    1.4490    4.7840  -23.6370 C   0  0  0  0  0  0  0  0  0  0  0  0
    3.2240    6.0260  -22.9800 C   0  0  0  0  0  0  0  0  0  0  0  0
    3.6870    3.9080  -23.6030 C   0  0  0  0  0  0  0  0  0  0  0  0
    1.7660    2.5450  -24.5520 C   0  0  0  0  0  0  0  0  0  0  0  0
   -0.3760    3.3200  -24.4590 C   0  0  0  0  0  0  0  0  0  0  0  0
    0.1280    4.5620  -23.8850 C   0  0  0  0  0  0  0  0  0  0  0  0
   -1.8280    3.2920  -24.8150 C   0  0  0  0  0  0  0  0  0  0  0  0
    4.3390    1.4280  -23.2600 C   0  0  0  0  0  0  0  0  0  0  0  0
    5.2780    1.1120  -22.1060 C   0  0  2  0  0  0  0  0  0  0  0  0
    6.8420    2.6710  -22.6720 C   0  0  2  0  0  0  0  0  0  0  0  0
    5.2400    2.1360  -20.9590 C   0  0  0  0  0  0  0  0  0  0  0  0
   -2.1550    3.4170  -26.2460 C   0  0  0  0  0  0  0  0  0  0  0  0
   -1.4020    2.7590  -21.8590 C   0  0  0  0  0  0  0  0  0  0  0  0
   -0.3660    2.4410  -21.3450 C   0  0  0  0  0  0  0  0  0  0  0  0
   -0.7340    5.5980  -23.5620 F   0  0  0  0  0  0  0  0  0  0  0  0
   -3.5950    3.0380  -20.3380 F   0  0  0  0  0  0  0  0  0  0  0  0
    1.9040    5.9620  -23.1280 N   0  0  0  0  0  0  0  0  0  0  0  0
    4.1390    5.0760  -23.1800 N   0  0  0  0  0  0  0  0  0  0  0  0
    0.4620    2.4250  -24.8560 N   0  0  0  0  0  0  0  0  0  0  0  0
    4.6250    2.8740  -23.7580 N   0  0  0  0  0  0  0  0  0  0  0  0
    6.6830    1.1960  -22.5890 N   0  0  0  0  0  0  0  0  0  0  0  0
   -3.6830    3.5510  -28.0060 O   0  0  0  0  0  0  0  0  0  0  0  0
    3.9160    9.0900  -20.6480 N   0  0  0  0  0  0  0  0  0  0  0  0
    6.3500    9.3750  -22.3710 N   0  0  0  0  0  0  0  0  0  0  0  0
    8.3180    8.5420  -21.9920 N   0  0  0  0  0  0  0  0  0  0  0  0
    3.4400    7.7210  -21.0680 C   0  0  0  0  0  0  0  0  0  0  0  0
    5.2970    9.1810  -20.0470 C   0  0  0  0  0  0  0  0  0  0  0  0
    3.7580    7.3840  -22.5380 C   0  0  0  0  0  0  0  0  0  0  0  0
    7.6350    8.4990  -20.8070 C   0  0  0  0  0  0  0  0  0  0  0  0
    6.4270    9.0050  -21.0430 C   0  0  0  0  0  0  0  0  0  0  0  0
    7.5240    9.0680  -22.9070 C   0  0  0  0  0  0  0  0  0  0  0  0
  1  2  2  0
  1  3  1  0
  2  6  1  0
  3  5  2  0
  3 27  1  0
  4  5  1  0
  4  6  2  0
  4 18  1  0
  5 24  1  0
  6 10  1  0
  7 10  2  0
  7 23  1  0
  7 33  1  0
 21  8  1  1
  8 22  1  0
  9 21  1  0
  9 31  1  0
 11 12  1  0
 11 14  1  0
 11 15  2  0
 12 17  2  0
 12 28  1  0
 13 28  2  0
 13 29  1  0
 13 39  1  0
 14 29  2  0
 14 31  1  0
 15 30  1  0
 16 17  1  0
 16 18  1  0
 16 30  2  0
 17 26  1  0
 18 23  2  0
 20 19  1  6
 19 31  1  0
 20 22  1  0
 20 32  1  0
 21 32  1  0
 24 25  3  0
 34 37  1  0
 34 38  1  0
 35 41  1  0
 35 42  2  0
 36 40  1  0
 36 42  1  0
 37 39  1  0
 38 41  1  0
 40 41  2  0
M  CHG  1  34   1
M  END
>  <s_m_entry_id>  (32) 
283

>  <s_m_entry_name>  (32) 
000000125.1

>  <s_m_Source_Path>  (32) 
/Users/zaksoul/Documents/3r_UNI/2nd_SEMESTER/BSC/FRAG_RECON/RESULTS/2

>  <s_m_Source_File>  (32) 
000000125.mol2

>  <i_m_Source_File_Index>  (32) 
1

$$$$
No_0_140
     RDKit          3D

 43 49  0  0  1  0  0  0  0  0999 V2000
   -4.9350    3.8570  -22.0790 C   0  0  0  0  0  0  0  0  0  0  0  0
   -5.1900    4.0560  -23.4150 C   0  0  0  0  0  0  0  0  0  0  0  0
   -3.7080    3.5590  -21.7340 C   0  0  0  0  0  0  0  0  0  0  0  0
   -2.8060    3.6550  -23.8970 C   0  0  0  0  0  0  0  0  0  0  0  0
   -2.6580    3.4040  -22.4760 C   0  0  0  0  0  0  0  0  0  0  0  0
   -4.1410    3.9660  -24.4220 C   0  0  0  0  0  0  0  0  0  0  0  0
   -3.3790    3.9620  -26.6180 C   0  0  0  0  0  0  0  0  0  0  0  0
    6.3010    2.8740  -21.3230 C   0  0  0  0  0  0  0  0  0  0  0  0
    6.1750    3.0230  -23.8730 C   0  0  0  0  0  0  0  0  0  0  0  0
   -4.3840    4.1040  -25.7580 C   0  0  0  0  0  0  0  0  0  0  0  0
    2.4130    3.7070  -23.9010 C   0  0  0  0  0  0  0  0  0  0  0  0
    1.6320    4.8440  -23.6040 C   0  0  0  0  0  0  0  0  0  0  0  0
    3.4700    5.9740  -22.9170 C   0  0  0  0  0  0  0  0  0  0  0  0
    3.8180    3.8470  -23.5840 C   0  0  0  0  0  0  0  0  0  0  0  0
    1.8290    2.6110  -24.5650 C   0  0  0  0  0  0  0  0  0  0  0  0
   -0.2680    3.5000  -24.4610 C   0  0  0  0  0  0  0  0  0  0  0  0
    0.3000    4.7000  -23.8590 C   0  0  0  0  0  0  0  0  0  0  0  0
   -1.7190    3.5590  -24.8190 C   0  0  0  0  0  0  0  0  0  0  0  0
    4.3320    1.3290  -23.2920 C   0  0  0  0  0  0  0  0  0  0  0  0
    5.2490    0.9390  -22.1430 C   0  0  2  0  0  0  0  0  0  0  0  0
    6.8980    2.4210  -22.6730 C   0  0  2  0  0  0  0  0  0  0  0  0
    5.2640    1.9390  -20.9750 C   0  0  0  0  0  0  0  0  0  0  0  0
   -2.0340    3.7310  -26.2480 C   0  0  0  0  0  0  0  0  0  0  0  0
   -1.3320    2.9420  -21.8740 C   0  0  0  0  0  0  0  0  0  0  0  0
   -0.3160    2.5570  -21.3650 C   0  0  0  0  0  0  0  0  0  0  0  0
   -0.5040    5.7750  -23.5160 F   0  0  0  0  0  0  0  0  0  0  0  0
   -3.5110    3.3080  -20.3520 F   0  0  0  0  0  0  0  0  0  0  0  0
    2.1480    5.9850  -23.0700 N   0  0  0  0  0  0  0  0  0  0  0  0
    4.3310    4.9800  -23.1360 N   0  0  0  0  0  0  0  0  0  0  0  0
    0.5210    2.5690  -24.8750 N   0  0  0  0  0  0  0  0  0  0  0  0
    4.6990    2.7670  -23.7590 N   0  0  0  0  0  0  0  0  0  0  0  0
    6.6590    0.9550  -22.6210 N   0  0  0  0  0  0  0  0  0  0  0  0
   -3.5470    3.9840  -28.0080 O   0  0  0  0  0  0  0  0  0  0  0  0
    3.6750    9.2670  -20.8580 N   0  0  0  0  0  0  0  0  0  0  0  0
    8.1170    8.6490  -22.0100 N   0  0  0  0  0  0  0  0  0  0  0  0
    4.0750    7.2920  -22.4460 C   0  0  0  0  0  0  0  0  0  0  0  0
    6.1480    9.7240  -21.1510 C   0  0  0  0  0  0  0  0  0  0  0  0
    3.4800    7.7930  -21.1130 C   0  0  0  0  0  0  0  0  0  0  0  0
    4.9660    9.6830  -20.1980 C   0  0  0  0  0  0  0  0  0  0  0  0
    7.4100   10.7870  -22.8370 C   0  0  0  0  0  0  0  0  0  0  0  0
    6.3350   10.7930  -21.9890 C   0  0  0  0  0  0  0  0  0  0  0  0
    7.0510    8.6890  -21.1870 C   0  0  0  0  0  0  0  0  0  0  0  0
    8.2660    9.7130  -22.8220 C   0  0  0  0  0  0  0  0  0  0  0  0
  1  2  2  0
  1  3  1  0
  2  6  1  0
  3  5  2  0
  3 27  1  0
  4  5  1  0
  4  6  2  0
  4 18  1  0
  5 24  1  0
  6 10  1  0
  7 10  2  0
  7 23  1  0
  7 33  1  0
 21  8  1  1
  8 22  1  0
  9 21  1  0
  9 31  1  0
 11 12  1  0
 11 14  1  0
 11 15  2  0
 12 17  2  0
 12 28  1  0
 13 28  2  0
 13 29  1  0
 13 36  1  0
 14 29  2  0
 14 31  1  0
 15 30  1  0
 16 17  1  0
 16 18  1  0
 16 30  2  0
 17 26  1  0
 18 23  2  0
 20 19  1  6
 19 31  1  0
 20 22  1  0
 20 32  1  0
 21 32  1  0
 24 25  3  0
 34 38  1  0
 34 39  1  0
 35 42  2  0
 35 43  1  0
 36 38  1  0
 37 39  1  0
 37 41  2  0
 37 42  1  0
 40 41  1  0
 40 43  2  0
M  CHG  1  34   1
M  END
>  <s_m_entry_id>  (33) 
286

>  <s_m_entry_name>  (33) 
000000128.1

>  <s_m_Source_Path>  (33) 
/Users/zaksoul/Documents/3r_UNI/2nd_SEMESTER/BSC/FRAG_RECON/RESULTS/2

>  <s_m_Source_File>  (33) 
000000128.mol2

>  <i_m_Source_File_Index>  (33) 
1

$$$$
No_0_141
     RDKit          3D

 43 49  0  0  1  0  0  0  0  0999 V2000
   -4.9830    3.5140  -21.9840 C   0  0  0  0  0  0  0  0  0  0  0  0
   -5.2680    3.6880  -23.3170 C   0  0  0  0  0  0  0  0  0  0  0  0
   -3.7380    3.2750  -21.6560 C   0  0  0  0  0  0  0  0  0  0  0  0
   -2.8760    3.3890  -23.8340 C   0  0  0  0  0  0  0  0  0  0  0  0
   -2.6950    3.1590  -22.4130 C   0  0  0  0  0  0  0  0  0  0  0  0
   -4.2320    3.6350  -24.3400 C   0  0  0  0  0  0  0  0  0  0  0  0
   -3.5050    3.6420  -26.5480 C   0  0  0  0  0  0  0  0  0  0  0  0
    6.2960    3.0410  -21.4000 C   0  0  0  0  0  0  0  0  0  0  0  0
    6.1240    3.1590  -23.9490 C   0  0  0  0  0  0  0  0  0  0  0  0
   -4.5010    3.7470  -25.6740 C   0  0  0  0  0  0  0  0  0  0  0  0
    2.3350    3.6740  -23.9230 C   0  0  0  0  0  0  0  0  0  0  0  0
    1.5080    4.7780  -23.6240 C   0  0  0  0  0  0  0  0  0  0  0  0
    3.3040    5.9950  -22.9780 C   0  0  0  0  0  0  0  0  0  0  0  0
    3.7370    3.8800  -23.6290 C   0  0  0  0  0  0  0  0  0  0  0  0
    1.7900    2.5460  -24.5670 C   0  0  0  0  0  0  0  0  0  0  0  0
   -0.3430    3.3420  -24.4370 C   0  0  0  0  0  0  0  0  0  0  0  0
    0.1810    4.5720  -23.8560 C   0  0  0  0  0  0  0  0  0  0  0  0
   -1.8000    3.3320  -24.7730 C   0  0  0  0  0  0  0  0  0  0  0  0
    4.3680    1.3900  -23.3220 C   0  0  0  0  0  0  0  0  0  0  0  0
    5.3190    1.0530  -22.1840 C   0  0  2  0  0  0  0  0  0  0  0  0
    6.8920    2.6020  -22.7550 C   0  0  2  0  0  0  0  0  0  0  0  0
    5.3070    2.0650  -21.0260 C   0  0  0  0  0  0  0  0  0  0  0  0
   -2.1450    3.4750  -26.1980 C   0  0  0  0  0  0  0  0  0  0  0  0
   -1.3400    2.7630  -21.8280 C   0  0  0  0  0  0  0  0  0  0  0  0
   -0.3000    2.4290  -21.3320 C   0  0  0  0  0  0  0  0  0  0  0  0
   -0.6660    5.6130  -23.5100 F   0  0  0  0  0  0  0  0  0  0  0  0
   -3.5080    3.0480  -20.2750 F   0  0  0  0  0  0  0  0  0  0  0  0
    1.9820    5.9460  -23.1090 N   0  0  0  0  0  0  0  0  0  0  0  0
    4.2060    5.0380  -23.2000 N   0  0  0  0  0  0  0  0  0  0  0  0
    0.4810    2.4420  -24.8550 N   0  0  0  0  0  0  0  0  0  0  0  0
    4.6620    2.8380  -23.8080 N   0  0  0  0  0  0  0  0  0  0  0  0
    6.7190    1.1280  -22.6850 N   0  0  0  0  0  0  0  0  0  0  0  0
   -3.6950    3.6420  -27.9360 O   0  0  0  0  0  0  0  0  0  0  0  0
    4.0870    8.9580  -20.5470 N   0  0  0  0  0  0  0  0  0  0  0  0
    5.6060   10.7950  -22.1310 N   0  0  0  0  0  0  0  0  0  0  0  0
    8.0300    9.7620  -23.1480 N   0  0  0  0  0  0  0  0  0  0  0  0
    3.5490    7.6430  -21.0500 C   0  0  0  0  0  0  0  0  0  0  0  0
    5.5840    9.0650  -20.3910 C   0  0  0  0  0  0  0  0  0  0  0  0
    3.8580    7.3440  -22.5290 C   0  0  0  0  0  0  0  0  0  0  0  0
    7.4040    9.2300  -22.0880 C   0  0  0  0  0  0  0  0  0  0  0  0
    6.2210    9.7310  -21.5970 C   0  0  0  0  0  0  0  0  0  0  0  0
    7.4100   10.8210  -23.6880 C   0  0  0  0  0  0  0  0  0  0  0  0
    6.2310   11.3250  -23.1920 C   0  0  0  0  0  0  0  0  0  0  0  0
  1  2  2  0
  1  3  1  0
  2  6  1  0
  3  5  2  0
  3 27  1  0
  4  5  1  0
  4  6  2  0
  4 18  1  0
  5 24  1  0
  6 10  1  0
  7 10  2  0
  7 23  1  0
  7 33  1  0
 21  8  1  1
  8 22  1  0
  9 21  1  0
  9 31  1  0
 11 12  1  0
 11 14  1  0
 11 15  2  0
 12 17  2  0
 12 28  1  0
 13 28  2  0
 13 29  1  0
 13 39  1  0
 14 29  2  0
 14 31  1  0
 15 30  1  0
 16 17  1  0
 16 18  1  0
 16 30  2  0
 17 26  1  0
 18 23  2  0
 20 19  1  6
 19 31  1  0
 20 22  1  0
 20 32  1  0
 21 32  1  0
 24 25  3  0
 34 37  1  0
 34 38  1  0
 35 41  2  0
 35 43  1  0
 36 40  2  0
 36 42  1  0
 37 39  1  0
 38 41  1  0
 40 41  1  0
 42 43  2  0
M  CHG  1  34   1
M  END
>  <s_m_entry_id>  (34) 
287

>  <s_m_entry_name>  (34) 
000000129.1

>  <s_m_Source_Path>  (34) 
/Users/zaksoul/Documents/3r_UNI/2nd_SEMESTER/BSC/FRAG_RECON/RESULTS/2

>  <s_m_Source_File>  (34) 
000000129.mol2

>  <i_m_Source_File_Index>  (34) 
1

$$$$
No_0_142,No_0_143,No_0_144
     RDKit          3D

 42 48  0  0  1  0  0  0  0  0999 V2000
   -5.1020    3.8310  -22.1390 C   0  0  0  0  0  0  0  0  0  0  0  0
   -5.3450    3.9960  -23.4820 C   0  0  0  0  0  0  0  0  0  0  0  0
   -3.8720    3.5740  -21.7730 C   0  0  0  0  0  0  0  0  0  0  0  0
   -2.9450    3.6510  -23.9250 C   0  0  0  0  0  0  0  0  0  0  0  0
   -2.8090    3.4330  -22.4980 C   0  0  0  0  0  0  0  0  0  0  0  0
   -4.2810    3.9150  -24.4730 C   0  0  0  0  0  0  0  0  0  0  0  0
   -3.4910    3.8880  -26.6590 C   0  0  0  0  0  0  0  0  0  0  0  0
    6.1450    3.1730  -21.2220 C   0  0  0  0  0  0  0  0  0  0  0  0
    6.0490    3.2670  -23.7760 C   0  0  0  0  0  0  0  0  0  0  0  0
   -4.5100    4.0190  -25.8150 C   0  0  0  0  0  0  0  0  0  0  0  0
    2.2700    3.8470  -23.8660 C   0  0  0  0  0  0  0  0  0  0  0  0
    1.4540    4.9680  -23.6010 C   0  0  0  0  0  0  0  0  0  0  0  0
    3.2520    6.1610  -22.9150 C   0  0  0  0  0  0  0  0  0  0  0  0
    3.6670    4.0320  -23.5330 C   0  0  0  0  0  0  0  0  0  0  0  0
    1.7250    2.7220  -24.5140 C   0  0  0  0  0  0  0  0  0  0  0  0
   -0.3970    3.5550  -24.4540 C   0  0  0  0  0  0  0  0  0  0  0  0
    0.1310    4.7820  -23.8700 C   0  0  0  0  0  0  0  0  0  0  0  0
   -1.8440    3.5670  -24.8320 C   0  0  0  0  0  0  0  0  0  0  0  0
    4.2460    1.5350  -23.1840 C   0  0  0  0  0  0  0  0  0  0  0  0
    5.1580    1.1940  -22.0150 C   0  0  2  0  0  0  0  0  0  0  0  0
    6.7730    2.7100  -22.5550 C   0  0  2  0  0  0  0  0  0  0  0  0
    5.1300    2.2170  -20.8680 C   0  0  0  0  0  0  0  0  0  0  0  0
   -2.1440    3.7020  -26.2680 C   0  0  0  0  0  0  0  0  0  0  0  0
   -1.4780    3.0200  -21.8700 C   0  0  0  0  0  0  0  0  0  0  0  0
   -0.4590    2.6730  -21.3410 C   0  0  0  0  0  0  0  0  0  0  0  0
   -0.7070    5.8410  -23.5590 F   0  0  0  0  0  0  0  0  0  0  0  0
   -3.6860    3.3570  -20.3830 F   0  0  0  0  0  0  0  0  0  0  0  0
    1.9330    6.1330  -23.0840 N   0  0  0  0  0  0  0  0  0  0  0  0
    4.1430    5.1870  -23.1020 N   0  0  0  0  0  0  0  0  0  0  0  0
    0.4230    2.6380  -24.8390 N   0  0  0  0  0  0  0  0  0  0  0  0
    4.5790    2.9730  -23.6750 N   0  0  0  0  0  0  0  0  0  0  0  0
    6.5730    1.2390  -22.4760 N   0  0  0  0  0  0  0  0  0  0  0  0
   -3.6410    3.8780  -28.0510 O   0  0  0  0  0  0  0  0  0  0  0  0
    7.3990   10.4900  -22.7140 O   0  0  0  0  0  0  0  0  0  0  0  0
    3.6300    9.3050  -20.6500 N   0  0  0  0  0  0  0  0  0  0  0  0
    7.8230    9.1860  -22.3740 N   0  0  0  0  0  0  0  0  0  0  0  0
    3.4780    7.8430  -20.9940 C   0  0  0  0  0  0  0  0  0  0  0  0
    4.9550    9.7320  -20.0720 C   0  0  0  0  0  0  0  0  0  0  0  0
    3.8150    7.5040  -22.4630 C   0  0  0  0  0  0  0  0  0  0  0  0
    6.3610   10.7900  -21.9330 C   0  0  0  0  0  0  0  0  0  0  0  0
    7.0170    8.8130  -21.4280 C   0  0  0  0  0  0  0  0  0  0  0  0
    6.0580    9.7980  -21.1070 C   0  0  0  0  0  0  0  0  0  0  0  0
  1  2  2  0
  1  3  1  0
  2  6  1  0
  3  5  2  0
  3 27  1  0
  4  5  1  0
  4  6  2  0
  4 18  1  0
  5 24  1  0
  6 10  1  0
  7 10  2  0
  7 23  1  0
  7 33  1  0
 21  8  1  1
  8 22  1  0
  9 21  1  0
  9 31  1  0
 11 12  1  0
 11 14  1  0
 11 15  2  0
 12 17  2  0
 12 28  1  0
 13 28  2  0
 13 29  1  0
 13 39  1  0
 14 29  2  0
 14 31  1  0
 15 30  1  0
 16 17  1  0
 16 18  1  0
 16 30  2  0
 17 26  1  0
 18 23  2  0
 20 19  1  6
 19 31  1  0
 20 22  1  0
 20 32  1  0
 21 32  1  0
 24 25  3  0
 34 36  1  0
 34 40  1  0
 35 37  1  0
 35 38  1  0
 36 41  2  0
 37 39  1  0
 38 42  1  0
 40 42  2  0
 41 42  1  0
M  CHG  1  35   1
M  END
>  <s_m_entry_id>  (35) 
288

>  <s_m_entry_name>  (35) 
000000130.1

>  <s_m_Source_Path>  (35) 
/Users/zaksoul/Documents/3r_UNI/2nd_SEMESTER/BSC/FRAG_RECON/RESULTS/2

>  <s_m_Source_File>  (35) 
000000130.mol2

>  <i_m_Source_File_Index>  (35) 
1

$$$$
No_0_145,No_0_146,No_0_147,No_0_148
     RDKit          3D

 42 48  0  0  1  0  0  0  0  0999 V2000
   -5.2570    3.8260  -22.1790 C   0  0  0  0  0  0  0  0  0  0  0  0
   -5.5030    3.9770  -23.5230 C   0  0  0  0  0  0  0  0  0  0  0  0
   -4.0310    3.5440  -21.8160 C   0  0  0  0  0  0  0  0  0  0  0  0
   -3.1150    3.5670  -23.9750 C   0  0  0  0  0  0  0  0  0  0  0  0
   -2.9760    3.3660  -22.5450 C   0  0  0  0  0  0  0  0  0  0  0  0
   -4.4470    3.8550  -24.5190 C   0  0  0  0  0  0  0  0  0  0  0  0
   -3.6700    3.7770  -26.7080 C   0  0  0  0  0  0  0  0  0  0  0  0
    5.9760    2.9060  -21.3140 C   0  0  0  0  0  0  0  0  0  0  0  0
    5.8680    2.9660  -23.8680 C   0  0  0  0  0  0  0  0  0  0  0  0
   -4.6810    3.9450  -25.8610 C   0  0  0  0  0  0  0  0  0  0  0  0
    2.1040    3.6360  -23.9460 C   0  0  0  0  0  0  0  0  0  0  0  0
    1.3170    4.7800  -23.6930 C   0  0  0  0  0  0  0  0  0  0  0  0
    3.1470    5.9390  -23.0340 C   0  0  0  0  0  0  0  0  0  0  0  0
    3.5070    3.7920  -23.6240 C   0  0  0  0  0  0  0  0  0  0  0  0
    1.5280    2.5150  -24.5750 C   0  0  0  0  0  0  0  0  0  0  0  0
   -0.5730    3.4010  -24.5150 C   0  0  0  0  0  0  0  0  0  0  0  0
   -0.0120    4.6230  -23.9520 C   0  0  0  0  0  0  0  0  0  0  0  0
   -2.0210    3.4430  -24.8860 C   0  0  0  0  0  0  0  0  0  0  0  0
    4.0260    1.2870  -23.2410 C   0  0  0  0  0  0  0  0  0  0  0  0
    4.9360    0.9400  -22.0730 C   0  0  2  0  0  0  0  0  0  0  0  0
    6.5850    2.4090  -22.6430 C   0  0  2  0  0  0  0  0  0  0  0  0
    4.9400    1.9810  -20.9400 C   0  0  0  0  0  0  0  0  0  0  0  0
   -2.3270    3.5640  -26.3220 C   0  0  0  0  0  0  0  0  0  0  0  0
   -1.6520    2.9300  -21.9180 C   0  0  0  0  0  0  0  0  0  0  0  0
   -0.6390    2.5660  -21.3890 C   0  0  0  0  0  0  0  0  0  0  0  0
   -0.8220    5.7070  -23.6530 F   0  0  0  0  0  0  0  0  0  0  0  0
   -3.8420    3.3420  -20.4240 F   0  0  0  0  0  0  0  0  0  0  0  0
    1.8270    5.9410  -23.1960 N   0  0  0  0  0  0  0  0  0  0  0  0
    4.0130    4.9410  -23.2120 N   0  0  0  0  0  0  0  0  0  0  0  0
    0.2220    2.4580  -24.8910 N   0  0  0  0  0  0  0  0  0  0  0  0
    4.3910    2.7090  -23.7550 N   0  0  0  0  0  0  0  0  0  0  0  0
    6.3490    0.9450  -22.5410 N   0  0  0  0  0  0  0  0  0  0  0  0
   -3.8290    3.7500  -28.1000 O   0  0  0  0  0  0  0  0  0  0  0  0
    8.3840    8.3220  -22.3500 O   0  0  0  0  0  0  0  0  0  0  0  0
    4.0350    8.9500  -20.6940 N   0  0  0  0  0  0  0  0  0  0  0  0
    3.7450    7.2750  -22.6060 C   0  0  0  0  0  0  0  0  0  0  0  0
    6.5130    8.8340  -21.2790 C   0  0  0  0  0  0  0  0  0  0  0  0
    3.4270    7.6440  -21.1430 C   0  0  0  0  0  0  0  0  0  0  0  0
    5.4580    8.9130  -20.1900 C   0  0  0  0  0  0  0  0  0  0  0  0
    6.5100    9.4310  -22.5660 C   0  0  0  0  0  0  0  0  0  0  0  0
    7.6480    9.0870  -23.1530 C   0  0  0  0  0  0  0  0  0  0  0  0
    7.6760    8.1890  -21.2270 C   0  0  0  0  0  0  0  0  0  0  0  0
  1  2  2  0
  1  3  1  0
  2  6  1  0
  3  5  2  0
  3 27  1  0
  4  5  1  0
  4  6  2  0
  4 18  1  0
  5 24  1  0
  6 10  1  0
  7 10  2  0
  7 23  1  0
  7 33  1  0
 21  8  1  1
  8 22  1  0
  9 21  1  0
  9 31  1  0
 11 12  1  0
 11 14  1  0
 11 15  2  0
 12 17  2  0
 12 28  1  0
 13 28  2  0
 13 29  1  0
 13 36  1  0
 14 29  2  0
 14 31  1  0
 15 30  1  0
 16 17  1  0
 16 18  1  0
 16 30  2  0
 17 26  1  0
 18 23  2  0
 20 19  1  6
 19 31  1  0
 20 22  1  0
 20 32  1  0
 21 32  1  0
 24 25  3  0
 34 41  1  0
 34 42  1  0
 35 38  1  0
 35 39  1  0
 36 38  1  0
 37 39  1  0
 37 40  1  0
 37 42  2  0
 40 41  2  0
M  CHG  1  35   1
M  END
>  <s_m_entry_id>  (36) 
291

>  <s_m_entry_name>  (36) 
000000133.1

>  <s_m_Source_Path>  (36) 
/Users/zaksoul/Documents/3r_UNI/2nd_SEMESTER/BSC/FRAG_RECON/RESULTS/2

>  <s_m_Source_File>  (36) 
000000133.mol2

>  <i_m_Source_File_Index>  (36) 
1

$$$$
No_0_149,No_0_150,No_0_151
     RDKit          3D

 43 49  0  0  1  0  0  0  0  0999 V2000
   -5.1950    3.7610  -22.0700 C   0  0  0  0  0  0  0  0  0  0  0  0
   -5.4620    3.9390  -23.4070 C   0  0  0  0  0  0  0  0  0  0  0  0
   -3.9610    3.4840  -21.7310 C   0  0  0  0  0  0  0  0  0  0  0  0
   -3.0770    3.5630  -23.9020 C   0  0  0  0  0  0  0  0  0  0  0  0
   -2.9150    3.3320  -22.4790 C   0  0  0  0  0  0  0  0  0  0  0  0
   -4.4200    3.8490  -24.4200 C   0  0  0  0  0  0  0  0  0  0  0  0
   -3.6740    3.8270  -26.6220 C   0  0  0  0  0  0  0  0  0  0  0  0
    6.0590    2.9370  -21.3870 C   0  0  0  0  0  0  0  0  0  0  0  0
    5.9120    3.0510  -23.9380 C   0  0  0  0  0  0  0  0  0  0  0  0
   -4.6740    3.9660  -25.7560 C   0  0  0  0  0  0  0  0  0  0  0  0
    2.1410    3.6840  -23.9460 C   0  0  0  0  0  0  0  0  0  0  0  0
    1.3470    4.8150  -23.6580 C   0  0  0  0  0  0  0  0  0  0  0  0
    3.1740    5.9780  -23.0000 C   0  0  0  0  0  0  0  0  0  0  0  0
    3.5470    3.8470  -23.6410 C   0  0  0  0  0  0  0  0  0  0  0  0
    1.5660    2.5720  -24.5910 C   0  0  0  0  0  0  0  0  0  0  0  0
   -0.5410    3.4340  -24.4820 C   0  0  0  0  0  0  0  0  0  0  0  0
    0.0160    4.6500  -23.9010 C   0  0  0  0  0  0  0  0  0  0  0  0
   -1.9950    3.4690  -24.8310 C   0  0  0  0  0  0  0  0  0  0  0  0
    4.0970    1.3400  -23.3210 C   0  0  0  0  0  0  0  0  0  0  0  0
    5.0270    0.9770  -22.1730 C   0  0  2  0  0  0  0  0  0  0  0  0
    6.6520    2.4740  -22.7360 C   0  0  2  0  0  0  0  0  0  0  0  0
    5.0370    1.9930  -21.0190 C   0  0  0  0  0  0  0  0  0  0  0  0
   -2.3230    3.6180  -26.2590 C   0  0  0  0  0  0  0  0  0  0  0  0
   -1.5780    2.8960  -21.8810 C   0  0  0  0  0  0  0  0  0  0  0  0
   -0.5530    2.5310  -21.3750 C   0  0  0  0  0  0  0  0  0  0  0  0
   -0.8010    5.7180  -23.5660 F   0  0  0  0  0  0  0  0  0  0  0  0
   -3.7500    3.2530  -20.3470 F   0  0  0  0  0  0  0  0  0  0  0  0
    1.8520    5.9690  -23.1430 N   0  0  0  0  0  0  0  0  0  0  0  0
    4.0480    4.9920  -23.2120 N   0  0  0  0  0  0  0  0  0  0  0  0
    0.2570    2.5080  -24.8900 N   0  0  0  0  0  0  0  0  0  0  0  0
    4.4400    2.7760  -23.8090 N   0  0  0  0  0  0  0  0  0  0  0  0
    6.4330    1.0060  -22.6620 N   0  0  0  0  0  0  0  0  0  0  0  0
   -3.8530    3.8280  -28.0110 O   0  0  0  0  0  0  0  0  0  0  0  0
    7.0480    9.5380  -21.8560 O   0  0  0  0  0  0  0  0  0  0  0  0
    4.0860    8.9400  -20.6250 N   0  0  0  0  0  0  0  0  0  0  0  0
    7.0640    7.4730  -21.3180 N   0  0  0  0  0  0  0  0  0  0  0  0
    3.5280    7.6080  -21.0570 C   0  0  0  0  0  0  0  0  0  0  0  0
    5.4820    8.9370  -20.0530 C   0  0  0  0  0  0  0  0  0  0  0  0
    3.7660    7.3090  -22.5510 C   0  0  0  0  0  0  0  0  0  0  0  0
    8.7940    6.4480  -22.8850 C   0  0  0  0  0  0  0  0  0  0  0  0
    6.5490    8.6590  -21.0920 C   0  0  0  0  0  0  0  0  0  0  0  0
    7.9600    8.8810  -22.6500 C   0  0  0  0  0  0  0  0  0  0  0  0
    7.9810    7.5940  -22.3240 C   0  0  0  0  0  0  0  0  0  0  0  0
  1  2  2  0
  1  3  1  0
  2  6  1  0
  3  5  2  0
  3 27  1  0
  4  5  1  0
  4  6  2  0
  4 18  1  0
  5 24  1  0
  6 10  1  0
  7 10  2  0
  7 23  1  0
  7 33  1  0
 21  8  1  1
  8 22  1  0
  9 21  1  0
  9 31  1  0
 11 12  1  0
 11 14  1  0
 11 15  2  0
 12 17  2  0
 12 28  1  0
 13 28  2  0
 13 29  1  0
 13 39  1  0
 14 29  2  0
 14 31  1  0
 15 30  1  0
 16 17  1  0
 16 18  1  0
 16 30  2  0
 17 26  1  0
 18 23  2  0
 20 19  1  6
 19 31  1  0
 20 22  1  0
 20 32  1  0
 21 32  1  0
 24 25  3  0
 34 41  1  0
 34 42  1  0
 35 37  1  0
 35 38  1  0
 36 41  2  0
 36 43  1  0
 37 39  1  0
 38 41  1  0
 40 43  1  0
 42 43  2  0
M  CHG  1  35   1
M  END
>  <s_m_entry_id>  (37) 
295

>  <s_m_entry_name>  (37) 
000000137.1

>  <s_m_Source_Path>  (37) 
/Users/zaksoul/Documents/3r_UNI/2nd_SEMESTER/BSC/FRAG_RECON/RESULTS/2

>  <s_m_Source_File>  (37) 
000000137.mol2

>  <i_m_Source_File_Index>  (37) 
1

$$$$
No_0_153
     RDKit          3D

 43 49  0  0  1  0  0  0  0  0999 V2000
   -5.0450    3.7890  -21.7370 C   0  0  0  0  0  0  0  0  0  0  0  0
   -5.3440    3.9610  -23.0680 C   0  0  0  0  0  0  0  0  0  0  0  0
   -3.7980    3.5450  -21.4230 C   0  0  0  0  0  0  0  0  0  0  0  0
   -2.9600    3.6500  -23.6110 C   0  0  0  0  0  0  0  0  0  0  0  0
   -2.7630    3.4220  -22.1920 C   0  0  0  0  0  0  0  0  0  0  0  0
   -4.3200    3.9010  -24.1020 C   0  0  0  0  0  0  0  0  0  0  0  0
   -3.6190    3.9010  -26.3180 C   0  0  0  0  0  0  0  0  0  0  0  0
    6.2380    3.2670  -21.2820 C   0  0  0  0  0  0  0  0  0  0  0  0
    6.0370    3.3800  -23.8290 C   0  0  0  0  0  0  0  0  0  0  0  0
   -4.6050    4.0120  -25.4330 C   0  0  0  0  0  0  0  0  0  0  0  0
    2.2510    3.9120  -23.7610 C   0  0  0  0  0  0  0  0  0  0  0  0
    1.4320    5.0200  -23.4540 C   0  0  0  0  0  0  0  0  0  0  0  0
    3.2410    6.2310  -22.8320 C   0  0  0  0  0  0  0  0  0  0  0  0
    3.6570    4.1120  -23.4840 C   0  0  0  0  0  0  0  0  0  0  0  0
    1.6940    2.7850  -24.3960 C   0  0  0  0  0  0  0  0  0  0  0  0
   -0.4340    3.5910  -24.2430 C   0  0  0  0  0  0  0  0  0  0  0  0
    0.1020    4.8200  -23.6710 C   0  0  0  0  0  0  0  0  0  0  0  0
   -1.8950    3.5870  -24.5620 C   0  0  0  0  0  0  0  0  0  0  0  0
    4.2810    1.6200  -23.1790 C   0  0  0  0  0  0  0  0  0  0  0  0
    5.2440    1.2810  -22.0510 C   0  0  2  0  0  0  0  0  0  0  0  0
    6.8160    2.8220  -22.6430 C   0  0  2  0  0  0  0  0  0  0  0  0
    5.2490    2.2960  -20.8950 C   0  0  0  0  0  0  0  0  0  0  0  0
   -2.2560    3.7280  -25.9840 C   0  0  0  0  0  0  0  0  0  0  0  0
   -1.4030    3.0210  -21.6220 C   0  0  0  0  0  0  0  0  0  0  0  0
   -0.3590    2.6840  -21.1370 C   0  0  0  0  0  0  0  0  0  0  0  0
   -0.7360    5.8650  -23.3180 F   0  0  0  0  0  0  0  0  0  0  0  0
   -3.5530    3.3190  -20.0440 F   0  0  0  0  0  0  0  0  0  0  0  0
    1.9170    6.1870  -22.9480 N   0  0  0  0  0  0  0  0  0  0  0  0
    4.1360    5.2700  -23.0630 N   0  0  0  0  0  0  0  0  0  0  0  0
    0.3810    2.6860  -24.6680 N   0  0  0  0  0  0  0  0  0  0  0  0
    4.5760    3.0660  -23.6710 N   0  0  0  0  0  0  0  0  0  0  0  0
    6.6380    1.3490  -22.5680 N   0  0  0  0  0  0  0  0  0  0  0  0
   -3.8250    3.8990  -27.7040 O   0  0  0  0  0  0  0  0  0  0  0  0
    4.9800    8.8050  -20.4770 N   0  0  0  0  0  0  0  0  0  0  0  0
    6.4580   11.0760  -22.2880 N   0  0  0  0  0  0  0  0  0  0  0  0
    6.7850    9.2330  -23.4230 N   0  0  0  0  0  0  0  0  0  0  0  0
    4.1930    7.5900  -20.8990 C   0  0  0  0  0  0  0  0  0  0  0  0
    6.4070    8.8870  -20.9620 C   0  0  0  0  0  0  0  0  0  0  0  0
    6.5460    9.7230  -22.2210 C   0  0  0  0  0  0  0  0  0  0  0  0
    6.1940   12.0180  -21.1940 C   0  0  0  0  0  0  0  0  0  0  0  0
    3.8060    7.5780  -22.3920 C   0  0  0  0  0  0  0  0  0  0  0  0
    6.6560   11.3870  -23.5940 C   0  0  0  0  0  0  0  0  0  0  0  0
    6.8570   10.2790  -24.3020 C   0  0  0  0  0  0  0  0  0  0  0  0
  1  2  2  0
  1  3  1  0
  2  6  1  0
  3  5  2  0
  3 27  1  0
  4  5  1  0
  4  6  2  0
  4 18  1  0
  5 24  1  0
  6 10  1  0
  7 10  2  0
  7 23  1  0
  7 33  1  0
 21  8  1  1
  8 22  1  0
  9 21  1  0
  9 31  1  0
 11 12  1  0
 11 14  1  0
 11 15  2  0
 12 17  2  0
 12 28  1  0
 13 28  2  0
 13 29  1  0
 13 41  1  0
 14 29  2  0
 14 31  1  0
 15 30  1  0
 16 17  1  0
 16 18  1  0
 16 30  2  0
 17 26  1  0
 18 23  2  0
 20 19  1  6
 19 31  1  0
 20 22  1  0
 20 32  1  0
 21 32  1  0
 24 25  3  0
 34 37  1  0
 34 38  1  0
 35 39  1  0
 35 40  1  0
 35 42  1  0
 36 39  1  0
 36 43  1  0
 37 41  1  0
 38 39  1  0
 42 43  2  0
M  END
>  <s_m_entry_id>  (38) 
299

>  <s_m_entry_name>  (38) 
000000141.1

>  <s_m_Source_Path>  (38) 
/Users/zaksoul/Documents/3r_UNI/2nd_SEMESTER/BSC/FRAG_RECON/RESULTS/2

>  <s_m_Source_File>  (38) 
000000141.mol2

>  <i_m_Source_File_Index>  (38) 
1

$$$$
No_0_154,No_0_155
     RDKit          3D

 41 47  0  0  1  0  0  0  0  0999 V2000
   -5.3470    3.2770  -21.8500 C   0  0  0  0  0  0  0  0  0  0  0  0
   -5.6110    3.4940  -23.1810 C   0  0  0  0  0  0  0  0  0  0  0  0
   -4.1050    3.0420  -21.5100 C   0  0  0  0  0  0  0  0  0  0  0  0
   -3.2070    3.2430  -23.6670 C   0  0  0  0  0  0  0  0  0  0  0  0
   -3.0470    2.9650  -22.2520 C   0  0  0  0  0  0  0  0  0  0  0  0
   -4.5580    3.4900  -24.1880 C   0  0  0  0  0  0  0  0  0  0  0  0
   -3.7940    3.5840  -26.3810 C   0  0  0  0  0  0  0  0  0  0  0  0
    5.9260    2.9220  -21.0890 C   0  0  0  0  0  0  0  0  0  0  0  0
    5.7950    3.1270  -23.6340 C   0  0  0  0  0  0  0  0  0  0  0  0
   -4.8060    3.6460  -25.5200 C   0  0  0  0  0  0  0  0  0  0  0  0
    2.0000    3.5940  -23.6560 C   0  0  0  0  0  0  0  0  0  0  0  0
    1.1540    4.6770  -23.3330 C   0  0  0  0  0  0  0  0  0  0  0  0
    2.9230    5.8930  -22.6130 C   0  0  0  0  0  0  0  0  0  0  0  0
    3.3950    3.8070  -23.3310 C   0  0  0  0  0  0  0  0  0  0  0  0
    1.4810    2.4830  -24.3480 C   0  0  0  0  0  0  0  0  0  0  0  0
   -0.6640    3.2480  -24.2270 C   0  0  0  0  0  0  0  0  0  0  0  0
   -0.1660    4.4630  -23.5950 C   0  0  0  0  0  0  0  0  0  0  0  0
   -2.1150    3.2320  -24.5880 C   0  0  0  0  0  0  0  0  0  0  0  0
    4.0520    1.3160  -23.1010 C   0  0  0  0  0  0  0  0  0  0  0  0
    4.9880    0.9500  -21.9590 C   0  0  2  0  0  0  0  0  0  0  0  0
    6.5500    2.5380  -22.4480 C   0  0  2  0  0  0  0  0  0  0  0  0
    4.9440    1.9210  -20.7670 C   0  0  0  0  0  0  0  0  0  0  0  0
   -2.4380    3.4210  -26.0130 C   0  0  0  0  0  0  0  0  0  0  0  0
   -1.6970    2.5650  -21.6580 C   0  0  0  0  0  0  0  0  0  0  0  0
   -0.6610    2.2270  -21.1560 C   0  0  0  0  0  0  0  0  0  0  0  0
   -1.0320    5.4810  -23.2270 F   0  0  0  0  0  0  0  0  0  0  0  0
   -3.8950    2.7680  -20.1330 F   0  0  0  0  0  0  0  0  0  0  0  0
    1.6040    5.8320  -22.7690 N   0  0  0  0  0  0  0  0  0  0  0  0
    3.8410    4.9550  -22.8540 N   0  0  0  0  0  0  0  0  0  0  0  0
    0.1780    2.3740  -24.6620 N   0  0  0  0  0  0  0  0  0  0  0  0
    4.3360    2.7830  -23.5310 N   0  0  0  0  0  0  0  0  0  0  0  0
    6.3950    1.0600  -22.4330 N   0  0  0  0  0  0  0  0  0  0  0  0
   -3.9610    3.6310  -27.7700 O   0  0  0  0  0  0  0  0  0  0  0  0
    7.3530   10.7300  -21.1700 N   0  0  0  0  0  0  0  0  0  0  0  0
    5.4830    8.8010  -22.2140 N   0  0  0  0  0  0  0  0  0  0  0  0
    5.9520   10.7550  -20.7290 C   0  0  0  0  0  0  0  0  0  0  0  0
    7.4180   10.3490  -22.5880 C   0  0  0  0  0  0  0  0  0  0  0  0
    3.4520    7.2310  -22.1080 C   0  0  0  0  0  0  0  0  0  0  0  0
    6.8850    8.9150  -22.7550 C   0  0  0  0  0  0  0  0  0  0  0  0
    5.3510    9.3390  -20.8110 C   0  0  0  0  0  0  0  0  0  0  0  0
    4.9660    7.3960  -22.3660 C   0  0  0  0  0  0  0  0  0  0  0  0
  1  2  2  0
  1  3  1  0
  2  6  1  0
  3  5  2  0
  3 27  1  0
  4  5  1  0
  4  6  2  0
  4 18  1  0
  5 24  1  0
  6 10  1  0
  7 10  2  0
  7 23  1  0
  7 33  1  0
 21  8  1  1
  8 22  1  0
  9 21  1  0
  9 31  1  0
 11 12  1  0
 11 14  1  0
 11 15  2  0
 12 17  2  0
 12 28  1  0
 13 28  2  0
 13 29  1  0
 13 38  1  0
 14 29  2  0
 14 31  1  0
 15 30  1  0
 16 17  1  0
 16 18  1  0
 16 30  2  0
 17 26  1  0
 18 23  2  0
 20 19  1  6
 19 31  1  0
 20 22  1  0
 20 32  1  0
 21 32  1  0
 24 25  3  0
 34 36  1  0
 34 37  1  0
 35 39  1  0
 35 40  1  0
 35 41  1  0
 36 40  1  0
 37 39  1  0
 38 41  1  0
M  CHG  1  34   1
M  END
>  <s_m_entry_id>  (39) 
300

>  <s_m_entry_name>  (39) 
000000142.1

>  <s_m_Source_Path>  (39) 
/Users/zaksoul/Documents/3r_UNI/2nd_SEMESTER/BSC/FRAG_RECON/RESULTS/2

>  <s_m_Source_File>  (39) 
000000142.mol2

>  <i_m_Source_File_Index>  (39) 
1

$$$$
No_0_156
     RDKit          3D

 41 47  0  0  1  0  0  0  0  0999 V2000
   -5.2770    3.3070  -21.9880 C   0  0  0  0  0  0  0  0  0  0  0  0
   -5.5660    3.4610  -23.3230 C   0  0  0  0  0  0  0  0  0  0  0  0
   -4.0310    3.0740  -21.6610 C   0  0  0  0  0  0  0  0  0  0  0  0
   -3.1750    3.1580  -23.8430 C   0  0  0  0  0  0  0  0  0  0  0  0
   -2.9890    2.9490  -22.4200 C   0  0  0  0  0  0  0  0  0  0  0  0
   -4.5330    3.3950  -24.3490 C   0  0  0  0  0  0  0  0  0  0  0  0
   -3.8130    3.3730  -26.5590 C   0  0  0  0  0  0  0  0  0  0  0  0
    6.0050    2.8590  -21.4330 C   0  0  0  0  0  0  0  0  0  0  0  0
    5.8250    2.9400  -23.9830 C   0  0  0  0  0  0  0  0  0  0  0  0
   -4.8070    3.4890  -25.6820 C   0  0  0  0  0  0  0  0  0  0  0  0
    2.0350    3.4500  -23.9520 C   0  0  0  0  0  0  0  0  0  0  0  0
    1.2070    4.5570  -23.6660 C   0  0  0  0  0  0  0  0  0  0  0  0
    3.0030    5.7860  -23.0430 C   0  0  0  0  0  0  0  0  0  0  0  0
    3.4380    3.6620  -23.6660 C   0  0  0  0  0  0  0  0  0  0  0  0
    1.4900    2.3120  -24.5790 C   0  0  0  0  0  0  0  0  0  0  0  0
   -0.6440    3.1070  -24.4530 C   0  0  0  0  0  0  0  0  0  0  0  0
   -0.1200    4.3460  -23.8910 C   0  0  0  0  0  0  0  0  0  0  0  0
   -2.1020    3.0900  -24.7840 C   0  0  0  0  0  0  0  0  0  0  0  0
    4.0740    1.1780  -23.3260 C   0  0  0  0  0  0  0  0  0  0  0  0
    5.0290    0.8580  -22.1860 C   0  0  2  0  0  0  0  0  0  0  0  0
    6.5970    2.4020  -22.7840 C   0  0  2  0  0  0  0  0  0  0  0  0
    5.0190    1.8860  -21.0430 C   0  0  0  0  0  0  0  0  0  0  0  0
   -2.4520    3.2130  -26.2100 C   0  0  0  0  0  0  0  0  0  0  0  0
   -1.6320    2.5630  -21.8340 C   0  0  0  0  0  0  0  0  0  0  0  0
   -0.5900    2.2370  -21.3360 C   0  0  0  0  0  0  0  0  0  0  0  0
   -0.9670    5.3900  -23.5570 F   0  0  0  0  0  0  0  0  0  0  0  0
   -3.7960    2.8660  -20.2770 F   0  0  0  0  0  0  0  0  0  0  0  0
    1.6810    5.7330  -23.1690 N   0  0  0  0  0  0  0  0  0  0  0  0
    3.9060    4.8280  -23.2550 N   0  0  0  0  0  0  0  0  0  0  0  0
    0.1800    2.2030  -24.8610 N   0  0  0  0  0  0  0  0  0  0  0  0
    4.3640    2.6190  -23.8330 N   0  0  0  0  0  0  0  0  0  0  0  0
    6.4270    0.9280  -22.6930 N   0  0  0  0  0  0  0  0  0  0  0  0
   -4.0080    3.3540  -27.9450 O   0  0  0  0  0  0  0  0  0  0  0  0
    5.2640    8.3470  -21.1680 N   0  0  0  0  0  0  0  0  0  0  0  0
    6.3110    8.2720  -20.0990 C   0  0  0  0  0  0  0  0  0  0  0  0
    6.1610    8.9360  -22.2150 C   0  0  0  0  0  0  0  0  0  0  0  0
    4.6250    7.0280  -21.5090 C   0  0  0  0  0  0  0  0  0  0  0  0
    8.4820    8.0940  -21.4480 C   0  0  0  0  0  0  0  0  0  0  0  0
    7.2510    8.9580  -21.1160 C   0  0  0  0  0  0  0  0  0  0  0  0
    3.5560    7.1410  -22.6140 C   0  0  0  0  0  0  0  0  0  0  0  0
    9.3600    8.7950  -22.4980 C   0  0  0  0  0  0  0  0  0  0  0  0
  1  2  2  0
  1  3  1  0
  2  6  1  0
  3  5  2  0
  3 27  1  0
  4  5  1  0
  4  6  2  0
  4 18  1  0
  5 24  1  0
  6 10  1  0
  7 10  2  0
  7 23  1  0
  7 33  1  0
 21  8  1  1
  8 22  1  0
  9 21  1  0
  9 31  1  0
 11 12  1  0
 11 14  1  0
 11 15  2  0
 12 17  2  0
 12 28  1  0
 13 28  2  0
 13 29  1  0
 13 40  1  0
 14 29  2  0
 14 31  1  0
 15 30  1  0
 16 17  1  0
 16 18  1  0
 16 30  2  0
 17 26  1  0
 18 23  2  0
 20 19  1  6
 19 31  1  0
 20 22  1  0
 20 32  1  0
 21 32  1  0
 24 25  3  0
 34 35  1  0
 34 36  1  0
 34 37  1  0
 35 39  1  0
 36 39  1  0
 37 40  1  0
 38 39  1  0
 38 41  1  0
M  CHG  1  34   1
M  END
>  <s_m_entry_id>  (40) 
302

>  <s_m_entry_name>  (40) 
000000144.1

>  <s_m_Source_Path>  (40) 
/Users/zaksoul/Documents/3r_UNI/2nd_SEMESTER/BSC/FRAG_RECON/RESULTS/2

>  <s_m_Source_File>  (40) 
000000144.mol2

>  <i_m_Source_File_Index>  (40) 
1

$$$$
No_0_157
     RDKit          3D

 41 47  0  0  1  0  0  0  0  0999 V2000
   -4.9960    3.7640  -21.9140 C   0  0  0  0  0  0  0  0  0  0  0  0
   -5.2980    3.9360  -23.2440 C   0  0  0  0  0  0  0  0  0  0  0  0
   -3.7550    3.4870  -21.6050 C   0  0  0  0  0  0  0  0  0  0  0  0
   -2.9260    3.5570  -23.7980 C   0  0  0  0  0  0  0  0  0  0  0  0
   -2.7280    3.3320  -22.3790 C   0  0  0  0  0  0  0  0  0  0  0  0
   -4.2820    3.8420  -24.2840 C   0  0  0  0  0  0  0  0  0  0  0  0
   -3.5930    3.8090  -26.5030 C   0  0  0  0  0  0  0  0  0  0  0  0
    6.2700    2.9360  -21.5160 C   0  0  0  0  0  0  0  0  0  0  0  0
    6.0590    3.0390  -24.0620 C   0  0  0  0  0  0  0  0  0  0  0  0
   -4.5700    3.9530  -25.6130 C   0  0  0  0  0  0  0  0  0  0  0  0
    2.2890    3.6750  -23.9770 C   0  0  0  0  0  0  0  0  0  0  0  0
    1.5030    4.8070  -23.6730 C   0  0  0  0  0  0  0  0  0  0  0  0
    3.3470    5.9710  -23.0670 C   0  0  0  0  0  0  0  0  0  0  0  0
    3.7020    3.8380  -23.7090 C   0  0  0  0  0  0  0  0  0  0  0  0
    1.6970    2.5600  -24.6020 C   0  0  0  0  0  0  0  0  0  0  0  0
   -0.4070    3.4240  -24.4430 C   0  0  0  0  0  0  0  0  0  0  0  0
    0.1660    4.6420  -23.8810 C   0  0  0  0  0  0  0  0  0  0  0  0
   -1.8690    3.4580  -24.7540 C   0  0  0  0  0  0  0  0  0  0  0  0
    4.2590    1.3320  -23.3910 C   0  0  0  0  0  0  0  0  0  0  0  0
    5.2180    0.9730  -22.2670 C   0  0  2  0  0  0  0  0  0  0  0  0
    6.8290    2.4670  -22.8770 C   0  0  2  0  0  0  0  0  0  0  0  0
    5.2580    1.9940  -21.1170 C   0  0  0  0  0  0  0  0  0  0  0  0
   -2.2330    3.6020  -26.1740 C   0  0  0  0  0  0  0  0  0  0  0  0
   -1.3770    2.8980  -21.8130 C   0  0  0  0  0  0  0  0  0  0  0  0
   -0.3390    2.5340  -21.3320 C   0  0  0  0  0  0  0  0  0  0  0  0
   -0.6410    5.7120  -23.5300 F   0  0  0  0  0  0  0  0  0  0  0  0
   -3.5080    3.2630  -20.2260 F   0  0  0  0  0  0  0  0  0  0  0  0
    2.0220    5.9630  -23.1760 N   0  0  0  0  0  0  0  0  0  0  0  0
    4.2140    4.9850  -23.2970 N   0  0  0  0  0  0  0  0  0  0  0  0
    0.3810    2.4960  -24.8670 N   0  0  0  0  0  0  0  0  0  0  0  0
    4.5900    2.7660  -23.8950 N   0  0  0  0  0  0  0  0  0  0  0  0
    6.6100    0.9990  -22.7920 N   0  0  0  0  0  0  0  0  0  0  0  0
   -3.8070    3.8050  -27.8870 O   0  0  0  0  0  0  0  0  0  0  0  0
    9.5870    8.9190  -22.5710 F   0  0  0  0  0  0  0  0  0  0  0  0
    5.7000    8.4590  -21.2020 N   0  0  0  0  0  0  0  0  0  0  0  0
    7.6770    9.0890  -21.1490 C   0  0  0  0  0  0  0  0  0  0  0  0
    3.9510    7.3050  -22.6390 C   0  0  0  0  0  0  0  0  0  0  0  0
    6.5930    9.0520  -22.2510 C   0  0  0  0  0  0  0  0  0  0  0  0
    6.7570    8.3580  -20.1440 C   0  0  0  0  0  0  0  0  0  0  0  0
    5.0310    7.1570  -21.5490 C   0  0  0  0  0  0  0  0  0  0  0  0
    8.9320    8.2820  -21.5230 C   0  0  0  0  0  0  0  0  0  0  0  0
  1  2  2  0
  1  3  1  0
  2  6  1  0
  3  5  2  0
  3 27  1  0
  4  5  1  0
  4  6  2  0
  4 18  1  0
  5 24  1  0
  6 10  1  0
  7 10  2  0
  7 23  1  0
  7 33  1  0
 21  8  1  1
  8 22  1  0
  9 21  1  0
  9 31  1  0
 11 12  1  0
 11 14  1  0
 11 15  2  0
 12 17  2  0
 12 28  1  0
 13 28  2  0
 13 29  1  0
 13 37  1  0
 14 29  2  0
 14 31  1  0
 15 30  1  0
 16 17  1  0
 16 18  1  0
 16 30  2  0
 17 26  1  0
 18 23  2  0
 20 19  1  6
 19 31  1  0
 20 22  1  0
 20 32  1  0
 21 32  1  0
 24 25  3  0
 34 41  1  0
 35 38  1  0
 35 39  1  0
 35 40  1  0
 36 38  1  0
 36 39  1  0
 36 41  1  0
 37 40  1  0
M  CHG  1  35   1
M  END
>  <s_m_entry_id>  (41) 
303

>  <s_m_entry_name>  (41) 
000000145.1

>  <s_m_Source_Path>  (41) 
/Users/zaksoul/Documents/3r_UNI/2nd_SEMESTER/BSC/FRAG_RECON/RESULTS/2

>  <s_m_Source_File>  (41) 
000000145.mol2

>  <i_m_Source_File_Index>  (41) 
1

$$$$
No_0_158,No_0_159,No_0_160,No_0_161,No_0_162,No_0_163
     RDKit          3D

 40 46  0  0  1  0  0  0  0  0999 V2000
   -5.3230    3.5360  -22.0140 C   0  0  0  0  0  0  0  0  0  0  0  0
   -5.5870    3.7180  -23.3510 C   0  0  0  0  0  0  0  0  0  0  0  0
   -4.0860    3.2830  -21.6700 C   0  0  0  0  0  0  0  0  0  0  0  0
   -3.1910    3.3950  -23.8350 C   0  0  0  0  0  0  0  0  0  0  0  0
   -3.0330    3.1590  -22.4120 C   0  0  0  0  0  0  0  0  0  0  0  0
   -4.5370    3.6570  -24.3590 C   0  0  0  0  0  0  0  0  0  0  0  0
   -3.7780    3.6650  -26.5560 C   0  0  0  0  0  0  0  0  0  0  0  0
    5.9410    2.9440  -21.2700 C   0  0  0  0  0  0  0  0  0  0  0  0
    5.8070    3.0720  -23.8200 C   0  0  0  0  0  0  0  0  0  0  0  0
   -4.7860    3.7780  -25.6960 C   0  0  0  0  0  0  0  0  0  0  0  0
    2.0230    3.6260  -23.8470 C   0  0  0  0  0  0  0  0  0  0  0  0
    1.2030    4.7380  -23.5560 C   0  0  0  0  0  0  0  0  0  0  0  0
    3.0030    5.9350  -22.8800 C   0  0  0  0  0  0  0  0  0  0  0  0
    3.4230    3.8170  -23.5330 C   0  0  0  0  0  0  0  0  0  0  0  0
    1.4760    2.5070  -24.5030 C   0  0  0  0  0  0  0  0  0  0  0  0
   -0.6500    3.3240  -24.4010 C   0  0  0  0  0  0  0  0  0  0  0  0
   -0.1220    4.5470  -23.8080 C   0  0  0  0  0  0  0  0  0  0  0  0
   -2.1030    3.3310  -24.7580 C   0  0  0  0  0  0  0  0  0  0  0  0
    4.0240    1.3190  -23.2260 C   0  0  0  0  0  0  0  0  0  0  0  0
    4.9550    0.9680  -22.0760 C   0  0  2  0  0  0  0  0  0  0  0  0
    6.5510    2.5030  -22.6180 C   0  0  2  0  0  0  0  0  0  0  0  0
    4.9370    1.9760  -20.9140 C   0  0  0  0  0  0  0  0  0  0  0  0
   -2.4250    3.4830  -26.1870 C   0  0  0  0  0  0  0  0  0  0  0  0
   -1.6910    2.7460  -21.8090 C   0  0  0  0  0  0  0  0  0  0  0  0
   -0.6610    2.4000  -21.3000 C   0  0  0  0  0  0  0  0  0  0  0  0
   -0.9630    5.5960  -23.4710 F   0  0  0  0  0  0  0  0  0  0  0  0
   -3.8790    3.0480  -20.2860 F   0  0  0  0  0  0  0  0  0  0  0  0
    1.6820    5.8990  -23.0300 N   0  0  0  0  0  0  0  0  0  0  0  0
    3.8980    4.9690  -23.0930 N   0  0  0  0  0  0  0  0  0  0  0  0
    0.1700    2.4180  -24.8100 N   0  0  0  0  0  0  0  0  0  0  0  0
    4.3400    2.7660  -23.7020 N   0  0  0  0  0  0  0  0  0  0  0  0
    6.3620    1.0300  -22.5560 N   0  0  0  0  0  0  0  0  0  0  0  0
   -3.9490    3.6730  -27.9470 O   0  0  0  0  0  0  0  0  0  0  0  0
    5.5710    8.4150  -21.2850 N   0  0  0  0  0  0  0  0  0  0  0  0
    4.8730    9.3310  -20.3560 C   0  0  0  0  0  0  0  0  0  0  0  0
    6.1750    8.5230  -19.9380 C   0  0  0  0  0  0  0  0  0  0  0  0
    3.5640    7.2750  -22.4180 C   0  0  0  0  0  0  0  0  0  0  0  0
    6.3750    9.0570  -22.3910 C   0  0  0  0  0  0  0  0  0  0  0  0
    4.8520    7.1190  -21.5790 C   0  0  0  0  0  0  0  0  0  0  0  0
    7.6510    8.2640  -22.7330 C   0  0  0  0  0  0  0  0  0  0  0  0
  1  2  2  0
  1  3  1  0
  2  6  1  0
  3  5  2  0
  3 27  1  0
  4  5  1  0
  4  6  2  0
  4 18  1  0
  5 24  1  0
  6 10  1  0
  7 10  2  0
  7 23  1  0
  7 33  1  0
 21  8  1  1
  8 22  1  0
  9 21  1  0
  9 31  1  0
 11 12  1  0
 11 14  1  0
 11 15  2  0
 12 17  2  0
 12 28  1  0
 13 28  2  0
 13 29  1  0
 13 37  1  0
 14 29  2  0
 14 31  1  0
 15 30  1  0
 16 17  1  0
 16 18  1  0
 16 30  2  0
 17 26  1  0
 18 23  2  0
 20 19  1  6
 19 31  1  0
 20 22  1  0
 20 32  1  0
 21 32  1  0
 24 25  3  0
 34 35  1  0
 34 36  1  0
 34 38  1  0
 34 39  1  0
 35 36  1  0
 37 39  1  0
 38 40  1  0
M  CHG  1  34   1
M  END
>  <s_m_entry_id>  (42) 
304

>  <s_m_entry_name>  (42) 
000000146.1

>  <s_m_Source_Path>  (42) 
/Users/zaksoul/Documents/3r_UNI/2nd_SEMESTER/BSC/FRAG_RECON/RESULTS/2

>  <s_m_Source_File>  (42) 
000000146.mol2

>  <i_m_Source_File_Index>  (42) 
1

$$$$
No_0_164,No_0_165,No_0_166,No_0_167,No_0_168
     RDKit          3D

 40 46  0  0  1  0  0  0  0  0999 V2000
   -5.1050    3.5200  -22.4010 C   0  0  0  0  0  0  0  0  0  0  0  0
   -5.3400    3.6890  -23.7450 C   0  0  0  0  0  0  0  0  0  0  0  0
   -3.8750    3.2710  -22.0280 C   0  0  0  0  0  0  0  0  0  0  0  0
   -2.9350    3.3640  -24.1740 C   0  0  0  0  0  0  0  0  0  0  0  0
   -2.8070    3.1400  -22.7470 C   0  0  0  0  0  0  0  0  0  0  0  0
   -4.2700    3.6200  -24.7300 C   0  0  0  0  0  0  0  0  0  0  0  0
   -3.4640    3.6090  -26.9100 C   0  0  0  0  0  0  0  0  0  0  0  0
    6.1410    2.9410  -21.4130 C   0  0  0  0  0  0  0  0  0  0  0  0
    6.0610    3.0460  -23.9670 C   0  0  0  0  0  0  0  0  0  0  0  0
   -4.4900    3.7280  -26.0720 C   0  0  0  0  0  0  0  0  0  0  0  0
    2.2780    3.5980  -24.0790 C   0  0  0  0  0  0  0  0  0  0  0  0
    1.4520    4.7120  -23.8150 C   0  0  0  0  0  0  0  0  0  0  0  0
    3.2360    5.9150  -23.1120 C   0  0  0  0  0  0  0  0  0  0  0  0
    3.6710    3.7920  -23.7370 C   0  0  0  0  0  0  0  0  0  0  0  0
    1.7450    2.4720  -24.7360 C   0  0  0  0  0  0  0  0  0  0  0  0
   -0.3830    3.2890  -24.6860 C   0  0  0  0  0  0  0  0  0  0  0  0
    0.1320    4.5180  -24.0930 C   0  0  0  0  0  0  0  0  0  0  0  0
   -1.8270    3.2920  -25.0740 C   0  0  0  0  0  0  0  0  0  0  0  0
    4.2660    1.2980  -23.3940 C   0  0  0  0  0  0  0  0  0  0  0  0
    5.1730    0.9580  -22.2220 C   0  0  2  0  0  0  0  0  0  0  0  0
    6.7800    2.4890  -22.7440 C   0  0  2  0  0  0  0  0  0  0  0  0
    5.1300    1.9770  -21.0700 C   0  0  0  0  0  0  0  0  0  0  0  0
   -2.1200    3.4300  -26.5110 C   0  0  0  0  0  0  0  0  0  0  0  0
   -1.4770    2.7340  -22.1120 C   0  0  0  0  0  0  0  0  0  0  0  0
   -0.4590    2.3930  -21.5770 C   0  0  0  0  0  0  0  0  0  0  0  0
   -0.7160    5.5690  -23.7840 F   0  0  0  0  0  0  0  0  0  0  0  0
   -3.6970    3.0480  -20.6380 F   0  0  0  0  0  0  0  0  0  0  0  0
    1.9190    5.8780  -23.2900 N   0  0  0  0  0  0  0  0  0  0  0  0
    4.1360    4.9490  -23.2980 N   0  0  0  0  0  0  0  0  0  0  0  0
    0.4460    2.3790  -25.0700 N   0  0  0  0  0  0  0  0  0  0  0  0
    4.5920    2.7400  -23.8770 N   0  0  0  0  0  0  0  0  0  0  0  0
    6.5910    1.0160  -22.6730 N   0  0  0  0  0  0  0  0  0  0  0  0
   -3.6050    3.6030  -28.3040 O   0  0  0  0  0  0  0  0  0  0  0  0
    5.4390    8.3320  -21.1190 N   0  0  0  0  0  0  0  0  0  0  0  0
    6.8220   10.0230  -20.9320 N   0  0  0  0  0  0  0  0  0  0  0  0
    4.8040    7.0910  -21.5090 C   0  0  0  0  0  0  0  0  0  0  0  0
    6.6770    8.7960  -21.7510 C   0  0  0  0  0  0  0  0  0  0  0  0
    4.9660    9.1180  -20.1710 C   0  0  0  0  0  0  0  0  0  0  0  0
    5.8960   10.2080  -20.0710 C   0  0  0  0  0  0  0  0  0  0  0  0
    3.7870    7.2610  -22.6510 C   0  0  0  0  0  0  0  0  0  0  0  0
  1  2  2  0
  1  3  1  0
  2  6  1  0
  3  5  2  0
  3 27  1  0
  4  5  1  0
  4  6  2  0
  4 18  1  0
  5 24  1  0
  6 10  1  0
  7 10  2  0
  7 23  1  0
  7 33  1  0
 21  8  1  1
  8 22  1  0
  9 21  1  0
  9 31  1  0
 11 12  1  0
 11 14  1  0
 11 15  2  0
 12 17  2  0
 12 28  1  0
 13 28  2  0
 13 29  1  0
 13 40  1  0
 14 29  2  0
 14 31  1  0
 15 30  1  0
 16 17  1  0
 16 18  1  0
 16 30  2  0
 17 26  1  0
 18 23  2  0
 20 19  1  6
 19 31  1  0
 20 22  1  0
 20 32  1  0
 21 32  1  0
 24 25  3  0
 34 36  1  0
 34 37  1  0
 34 38  2  0
 35 37  1  0
 35 39  2  0
 36 40  1  0
 38 39  1  0
M  CHG  1  34   1
M  END
>  <s_m_entry_id>  (43) 
310

>  <s_m_entry_name>  (43) 
000000152.1

>  <s_m_Source_Path>  (43) 
/Users/zaksoul/Documents/3r_UNI/2nd_SEMESTER/BSC/FRAG_RECON/RESULTS/2

>  <s_m_Source_File>  (43) 
000000152.mol2

>  <i_m_Source_File_Index>  (43) 
1

$$$$
No_0_169,No_0_170
     RDKit          3D

 42 48  0  0  1  0  0  0  0  0999 V2000
   -5.1580    3.6020  -21.7870 C   0  0  0  0  0  0  0  0  0  0  0  0
   -5.4210    3.7970  -23.1220 C   0  0  0  0  0  0  0  0  0  0  0  0
   -3.9210    3.3470  -21.4440 C   0  0  0  0  0  0  0  0  0  0  0  0
   -3.0240    3.4840  -23.6070 C   0  0  0  0  0  0  0  0  0  0  0  0
   -2.8670    3.2330  -22.1870 C   0  0  0  0  0  0  0  0  0  0  0  0
   -4.3700    3.7500  -24.1300 C   0  0  0  0  0  0  0  0  0  0  0  0
   -3.6090    3.7820  -26.3260 C   0  0  0  0  0  0  0  0  0  0  0  0
    6.1060    3.0220  -21.0390 C   0  0  0  0  0  0  0  0  0  0  0  0
    5.9740    3.1770  -23.5880 C   0  0  0  0  0  0  0  0  0  0  0  0
   -4.6180    3.8840  -25.4660 C   0  0  0  0  0  0  0  0  0  0  0  0
    2.1900    3.7250  -23.6130 C   0  0  0  0  0  0  0  0  0  0  0  0
    1.3680    4.8320  -23.3100 C   0  0  0  0  0  0  0  0  0  0  0  0
    3.1640    6.0240  -22.6190 C   0  0  0  0  0  0  0  0  0  0  0  0
    3.5890    3.9140  -23.2950 C   0  0  0  0  0  0  0  0  0  0  0  0
    1.6450    2.6110  -24.2810 C   0  0  0  0  0  0  0  0  0  0  0  0
   -0.4820    3.4240  -24.1720 C   0  0  0  0  0  0  0  0  0  0  0  0
    0.0430    4.6410  -23.5650 C   0  0  0  0  0  0  0  0  0  0  0  0
   -1.9350    3.4320  -24.5300 C   0  0  0  0  0  0  0  0  0  0  0  0
    4.1940    1.4150  -23.0140 C   0  0  0  0  0  0  0  0  0  0  0  0
    5.1250    1.0530  -21.8670 C   0  0  2  0  0  0  0  0  0  0  0  0
    6.7190    2.5970  -22.3910 C   0  0  2  0  0  0  0  0  0  0  0  0
    5.1040    2.0490  -20.6950 C   0  0  0  0  0  0  0  0  0  0  0  0
   -2.2560    3.5980  -25.9580 C   0  0  0  0  0  0  0  0  0  0  0  0
   -1.5240    2.8160  -21.5870 C   0  0  0  0  0  0  0  0  0  0  0  0
   -0.4950    2.4660  -21.0810 C   0  0  0  0  0  0  0  0  0  0  0  0
   -0.8000    5.6840  -23.2180 F   0  0  0  0  0  0  0  0  0  0  0  0
   -3.7140    3.0970  -20.0630 F   0  0  0  0  0  0  0  0  0  0  0  0
    1.8430    5.9880  -22.7710 N   0  0  0  0  0  0  0  0  0  0  0  0
    4.0610    5.0630  -22.8420 N   0  0  0  0  0  0  0  0  0  0  0  0
    0.3400    2.5230  -24.5900 N   0  0  0  0  0  0  0  0  0  0  0  0
    4.5080    2.8670  -23.4750 N   0  0  0  0  0  0  0  0  0  0  0  0
    6.5330    1.1230  -22.3450 N   0  0  0  0  0  0  0  0  0  0  0  0
   -3.7780    3.8040  -27.7160 O   0  0  0  0  0  0  0  0  0  0  0  0
    7.9550    9.2890  -20.3800 N   0  0  0  0  0  0  0  0  0  0  0  0
    5.4940    8.9950  -22.7030 N   0  0  0  0  0  0  0  0  0  0  0  0
    5.2370    9.6820  -23.8420 N   0  0  0  0  0  0  0  0  0  0  0  0
    5.2000    7.5700  -22.5280 C   0  0  0  0  0  0  0  0  0  0  0  0
    6.0350    9.9040  -21.8480 C   0  0  0  0  0  0  0  0  0  0  0  0
    6.4810    9.5770  -20.4330 C   0  0  0  0  0  0  0  0  0  0  0  0
    3.7220    7.3610  -22.1430 C   0  0  0  0  0  0  0  0  0  0  0  0
    6.1210   11.1120  -22.4170 C   0  0  0  0  0  0  0  0  0  0  0  0
    5.5990   10.9300  -23.7000 C   0  0  0  0  0  0  0  0  0  0  0  0
  1  2  2  0
  1  3  1  0
  2  6  1  0
  3  5  2  0
  3 27  1  0
  4  5  1  0
  4  6  2  0
  4 18  1  0
  5 24  1  0
  6 10  1  0
  7 10  2  0
  7 23  1  0
  7 33  1  0
 21  8  1  1
  8 22  1  0
  9 21  1  0
  9 31  1  0
 11 12  1  0
 11 14  1  0
 11 15  2  0
 12 17  2  0
 12 28  1  0
 13 28  2  0
 13 29  1  0
 13 40  1  0
 14 29  2  0
 14 31  1  0
 15 30  1  0
 16 17  1  0
 16 18  1  0
 16 30  2  0
 17 26  1  0
 18 23  2  0
 20 19  1  6
 19 31  1  0
 20 22  1  0
 20 32  1  0
 21 32  1  0
 24 25  3  0
 34 39  1  0
 35 36  1  0
 35 37  1  0
 35 38  1  0
 36 42  2  0
 37 40  1  0
 38 39  1  0
 38 41  2  0
 41 42  1  0
M  CHG  1  34   1
M  END
>  <s_m_entry_id>  (44) 
315

>  <s_m_entry_name>  (44) 
000000157.1

>  <s_m_Source_Path>  (44) 
/Users/zaksoul/Documents/3r_UNI/2nd_SEMESTER/BSC/FRAG_RECON/RESULTS/2

>  <s_m_Source_File>  (44) 
000000157.mol2

>  <i_m_Source_File_Index>  (44) 
1

$$$$
No_0_171,No_0_172,No_0_173,No_0_174,No_0_175
     RDKit          3D

 40 46  0  0  1  0  0  0  0  0999 V2000
   -5.3790    3.4420  -22.0770 C   0  0  0  0  0  0  0  0  0  0  0  0
   -5.6270    3.6280  -23.4170 C   0  0  0  0  0  0  0  0  0  0  0  0
   -4.1510    3.1590  -21.7220 C   0  0  0  0  0  0  0  0  0  0  0  0
   -3.2350    3.2470  -23.8790 C   0  0  0  0  0  0  0  0  0  0  0  0
   -3.0950    3.0090  -22.4550 C   0  0  0  0  0  0  0  0  0  0  0  0
   -4.5700    3.5410  -24.4150 C   0  0  0  0  0  0  0  0  0  0  0  0
   -3.7920    3.5280  -26.6060 C   0  0  0  0  0  0  0  0  0  0  0  0
    5.8610    2.5810  -21.2340 C   0  0  0  0  0  0  0  0  0  0  0  0
    5.7520    2.7090  -23.7860 C   0  0  0  0  0  0  0  0  0  0  0  0
   -4.8040    3.6650  -25.7540 C   0  0  0  0  0  0  0  0  0  0  0  0
    1.9830    3.3540  -23.8460 C   0  0  0  0  0  0  0  0  0  0  0  0
    1.1880    4.4850  -23.5630 C   0  0  0  0  0  0  0  0  0  0  0  0
    3.0090    5.6390  -22.8730 C   0  0  0  0  0  0  0  0  0  0  0  0
    3.3840    3.5110  -23.5200 C   0  0  0  0  0  0  0  0  0  0  0  0
    1.4150    2.2460  -24.5050 C   0  0  0  0  0  0  0  0  0  0  0  0
   -0.6920    3.1150  -24.4230 C   0  0  0  0  0  0  0  0  0  0  0  0
   -0.1400    4.3250  -23.8260 C   0  0  0  0  0  0  0  0  0  0  0  0
   -2.1410    3.1560  -24.7920 C   0  0  0  0  0  0  0  0  0  0  0  0
    3.9220    1.0000  -23.2050 C   0  0  0  0  0  0  0  0  0  0  0  0
    4.8350    0.6290  -22.0460 C   0  0  2  0  0  0  0  0  0  0  0  0
    6.4720    2.1240  -22.5760 C   0  0  2  0  0  0  0  0  0  0  0  0
    4.8310    1.6380  -20.8860 C   0  0  0  0  0  0  0  0  0  0  0  0
   -2.4470    3.3130  -26.2250 C   0  0  0  0  0  0  0  0  0  0  0  0
   -1.7680    2.5660  -21.8390 C   0  0  0  0  0  0  0  0  0  0  0  0
   -0.7520    2.1950  -21.3210 C   0  0  0  0  0  0  0  0  0  0  0  0
   -0.9580    5.3940  -23.4980 F   0  0  0  0  0  0  0  0  0  0  0  0
   -3.9610    2.9210  -20.3360 F   0  0  0  0  0  0  0  0  0  0  0  0
    1.6890    5.6350  -23.0340 N   0  0  0  0  0  0  0  0  0  0  0  0
    3.8830    4.6520  -23.0770 N   0  0  0  0  0  0  0  0  0  0  0  0
    0.1100    2.1880  -24.8240 N   0  0  0  0  0  0  0  0  0  0  0  0
    4.2770    2.4380  -23.6800 N   0  0  0  0  0  0  0  0  0  0  0  0
    6.2480    0.6560  -22.5140 N   0  0  0  0  0  0  0  0  0  0  0  0
   -3.9500    3.5370  -27.9970 O   0  0  0  0  0  0  0  0  0  0  0  0
    7.1200    8.2710  -20.2880 N   0  0  0  0  0  0  0  0  0  0  0  0
    5.0290    6.7650  -22.1400 N   0  0  0  0  0  0  0  0  0  0  0  0
    7.1850    7.9440  -21.7460 C   0  0  0  0  0  0  0  0  0  0  0  0
    5.6260    8.2570  -20.1930 C   0  0  0  0  0  0  0  0  0  0  0  0
    7.8410    7.3140  -19.3810 C   0  0  0  0  0  0  0  0  0  0  0  0
    5.6410    8.0350  -21.7250 C   0  0  0  0  0  0  0  0  0  0  0  0
    3.5980    6.9670  -22.4080 C   0  0  0  0  0  0  0  0  0  0  0  0
  1  2  2  0
  1  3  1  0
  2  6  1  0
  3  5  2  0
  3 27  1  0
  4  5  1  0
  4  6  2  0
  4 18  1  0
  5 24  1  0
  6 10  1  0
  7 10  2  0
  7 23  1  0
  7 33  1  0
 21  8  1  1
  8 22  1  0
  9 21  1  0
  9 31  1  0
 11 12  1  0
 11 14  1  0
 11 15  2  0
 12 17  2  0
 12 28  1  0
 13 28  2  0
 13 29  1  0
 13 40  1  0
 14 29  2  0
 14 31  1  0
 15 30  1  0
 16 17  1  0
 16 18  1  0
 16 30  2  0
 17 26  1  0
 18 23  2  0
 20 19  1  6
 19 31  1  0
 20 22  1  0
 20 32  1  0
 21 32  1  0
 24 25  3  0
 34 36  1  0
 34 37  1  0
 34 38  1  0
 35 39  1  0
 35 40  1  0
 36 39  1  0
 37 39  1  0
M  CHG  1  34   1
M  END
>  <s_m_entry_id>  (45) 
317

>  <s_m_entry_name>  (45) 
000000159.1

>  <s_m_Source_Path>  (45) 
/Users/zaksoul/Documents/3r_UNI/2nd_SEMESTER/BSC/FRAG_RECON/RESULTS/2

>  <s_m_Source_File>  (45) 
000000159.mol2

>  <i_m_Source_File_Index>  (45) 
1

$$$$
No_0_176,No_0_177,No_0_178,No_0_179,No_0_180,No_0_181,No_0_182,No_0_183,No_0_184
     RDKit          3D

 40 46  0  0  1  0  0  0  0  0999 V2000
   -5.2750    3.4610  -21.9070 C   0  0  0  0  0  0  0  0  0  0  0  0
   -5.5790    3.6300  -23.2370 C   0  0  0  0  0  0  0  0  0  0  0  0
   -4.0340    3.1830  -21.6000 C   0  0  0  0  0  0  0  0  0  0  0  0
   -3.2080    3.2440  -23.7940 C   0  0  0  0  0  0  0  0  0  0  0  0
   -3.0090    3.0240  -22.3750 C   0  0  0  0  0  0  0  0  0  0  0  0
   -4.5650    3.5310  -24.2780 C   0  0  0  0  0  0  0  0  0  0  0  0
   -3.8790    3.4900  -26.4990 C   0  0  0  0  0  0  0  0  0  0  0  0
    5.9900    2.6110  -21.5250 C   0  0  0  0  0  0  0  0  0  0  0  0
    5.7750    2.7070  -24.0710 C   0  0  0  0  0  0  0  0  0  0  0  0
   -4.8550    3.6380  -25.6070 C   0  0  0  0  0  0  0  0  0  0  0  0
    2.0060    3.3510  -23.9820 C   0  0  0  0  0  0  0  0  0  0  0  0
    1.2230    4.4860  -23.6800 C   0  0  0  0  0  0  0  0  0  0  0  0
    3.0710    5.6480  -23.0810 C   0  0  0  0  0  0  0  0  0  0  0  0
    3.4200    3.5120  -23.7160 C   0  0  0  0  0  0  0  0  0  0  0  0
    1.4110    2.2350  -24.6030 C   0  0  0  0  0  0  0  0  0  0  0  0
   -0.6900    3.1050  -24.4430 C   0  0  0  0  0  0  0  0  0  0  0  0
   -0.1150    4.3230  -23.8850 C   0  0  0  0  0  0  0  0  0  0  0  0
   -2.1530    3.1410  -24.7520 C   0  0  0  0  0  0  0  0  0  0  0  0
    3.9720    1.0060  -23.3930 C   0  0  0  0  0  0  0  0  0  0  0  0
    4.9320    0.6490  -22.2690 C   0  0  2  0  0  0  0  0  0  0  0  0
    6.5450    2.1370  -22.8860 C   0  0  2  0  0  0  0  0  0  0  0  0
    4.9760    1.6730  -21.1220 C   0  0  0  0  0  0  0  0  0  0  0  0
   -2.5200    3.2810  -26.1720 C   0  0  0  0  0  0  0  0  0  0  0  0
   -1.6570    2.5880  -21.8100 C   0  0  0  0  0  0  0  0  0  0  0  0
   -0.6200    2.2240  -21.3290 C   0  0  0  0  0  0  0  0  0  0  0  0
   -0.9190    5.3950  -23.5360 F   0  0  0  0  0  0  0  0  0  0  0  0
   -3.7860    2.9620  -20.2200 F   0  0  0  0  0  0  0  0  0  0  0  0
    1.7450    5.6420  -23.1870 N   0  0  0  0  0  0  0  0  0  0  0  0
    3.9360    4.6590  -23.3090 N   0  0  0  0  0  0  0  0  0  0  0  0
    0.0940    2.1730  -24.8650 N   0  0  0  0  0  0  0  0  0  0  0  0
    4.3060    2.4380  -23.9010 N   0  0  0  0  0  0  0  0  0  0  0  0
    6.3240    0.6700  -22.7960 N   0  0  0  0  0  0  0  0  0  0  0  0
   -4.0960    3.4820  -27.8820 O   0  0  0  0  0  0  0  0  0  0  0  0
    4.7050    6.8050  -21.6190 N   0  0  0  0  0  0  0  0  0  0  0  0
    5.4210    9.0890  -21.7600 N   0  0  0  0  0  0  0  0  0  0  0  0
    7.0270    9.0640  -20.1770 N   0  0  0  0  0  0  0  0  0  0  0  0
    3.6780    6.9820  -22.6570 C   0  0  0  0  0  0  0  0  0  0  0  0
    5.4740    7.8420  -21.2510 C   0  0  0  0  0  0  0  0  0  0  0  0
    6.3540    9.7880  -21.1020 C   0  0  0  0  0  0  0  0  0  0  0  0
    6.5090    7.8510  -20.2430 C   0  0  0  0  0  0  0  0  0  0  0  0
  1  2  2  0
  1  3  1  0
  2  6  1  0
  3  5  2  0
  3 27  1  0
  4  5  1  0
  4  6  2  0
  4 18  1  0
  5 24  1  0
  6 10  1  0
  7 10  2  0
  7 23  1  0
  7 33  1  0
 21  8  1  1
  8 22  1  0
  9 21  1  0
  9 31  1  0
 11 12  1  0
 11 14  1  0
 11 15  2  0
 12 17  2  0
 12 28  1  0
 13 28  2  0
 13 29  1  0
 13 37  1  0
 14 29  2  0
 14 31  1  0
 15 30  1  0
 16 17  1  0
 16 18  1  0
 16 30  2  0
 17 26  1  0
 18 23  2  0
 20 19  1  6
 19 31  1  0
 20 22  1  0
 20 32  1  0
 21 32  1  0
 24 25  3  0
 34 37  1  0
 34 38  1  0
 35 38  1  0
 35 39  1  0
 36 39  1  0
 36 40  1  0
 38 40  2  0
M  END
>  <s_m_entry_id>  (46) 
322

>  <s_m_entry_name>  (46) 
000000164.1

>  <s_m_Source_Path>  (46) 
/Users/zaksoul/Documents/3r_UNI/2nd_SEMESTER/BSC/FRAG_RECON/RESULTS/2

>  <s_m_Source_File>  (46) 
000000164.mol2

>  <i_m_Source_File_Index>  (46) 
1

$$$$
No_0_185,No_0_186,No_0_187
     RDKit          3D

 41 47  0  0  1  0  0  0  0  0999 V2000
   -5.3640    3.3210  -22.1580 C   0  0  0  0  0  0  0  0  0  0  0  0
   -5.6000    3.4840  -23.5020 C   0  0  0  0  0  0  0  0  0  0  0  0
   -4.1290    3.1020  -21.7820 C   0  0  0  0  0  0  0  0  0  0  0  0
   -3.1860    3.2180  -23.9260 C   0  0  0  0  0  0  0  0  0  0  0  0
   -3.0560    2.9980  -22.4980 C   0  0  0  0  0  0  0  0  0  0  0  0
   -4.5250    3.4410  -24.4850 C   0  0  0  0  0  0  0  0  0  0  0  0
   -3.7150    3.4490  -26.6630 C   0  0  0  0  0  0  0  0  0  0  0  0
    5.8910    3.0220  -21.1440 C   0  0  0  0  0  0  0  0  0  0  0  0
    5.8140    3.1240  -23.6980 C   0  0  0  0  0  0  0  0  0  0  0  0
   -4.7460    3.5430  -25.8280 C   0  0  0  0  0  0  0  0  0  0  0  0
    2.0190    3.5820  -23.8190 C   0  0  0  0  0  0  0  0  0  0  0  0
    1.1650    4.6750  -23.5580 C   0  0  0  0  0  0  0  0  0  0  0  0
    2.9170    5.9230  -22.8510 C   0  0  0  0  0  0  0  0  0  0  0  0
    3.4060    3.8100  -23.4740 C   0  0  0  0  0  0  0  0  0  0  0  0
    1.5160    2.4430  -24.4770 C   0  0  0  0  0  0  0  0  0  0  0  0
   -0.6320    3.2070  -24.4320 C   0  0  0  0  0  0  0  0  0  0  0  0
   -0.1490    4.4480  -23.8390 C   0  0  0  0  0  0  0  0  0  0  0  0
   -2.0750    3.1730  -24.8230 C   0  0  0  0  0  0  0  0  0  0  0  0
    4.0620    1.3320  -23.1290 C   0  0  0  0  0  0  0  0  0  0  0  0
    4.9750    1.0150  -21.9540 C   0  0  2  0  0  0  0  0  0  0  0  0
    6.5440    2.5850  -22.4730 C   0  0  2  0  0  0  0  0  0  0  0  0
    4.9040    2.0330  -20.8030 C   0  0  0  0  0  0  0  0  0  0  0  0
   -2.3670    3.3040  -26.2610 C   0  0  0  0  0  0  0  0  0  0  0  0
   -1.7180    2.6260  -21.8600 C   0  0  0  0  0  0  0  0  0  0  0  0
   -0.6930    2.3100  -21.3230 C   0  0  0  0  0  0  0  0  0  0  0  0
   -1.0230    5.4780  -23.5310 F   0  0  0  0  0  0  0  0  0  0  0  0
   -3.9480    2.8850  -20.3910 F   0  0  0  0  0  0  0  0  0  0  0  0
    1.6010    5.8520  -23.0320 N   0  0  0  0  0  0  0  0  0  0  0  0
    3.8410    4.9780  -23.0340 N   0  0  0  0  0  0  0  0  0  0  0  0
    0.2210    2.3180  -24.8130 N   0  0  0  0  0  0  0  0  0  0  0  0
    4.3530    2.7820  -23.6120 N   0  0  0  0  0  0  0  0  0  0  0  0
    6.3910    1.1090  -22.4020 N   0  0  0  0  0  0  0  0  0  0  0  0
   -3.8530    3.4390  -28.0570 O   0  0  0  0  0  0  0  0  0  0  0  0
    6.3670    7.5840  -20.1340 N   0  0  0  0  0  0  0  0  0  0  0  0
    5.6680    9.1840  -21.4400 N   0  0  0  0  0  0  0  0  0  0  0  0
    4.3910    7.0790  -21.3080 N   0  0  0  0  0  0  0  0  0  0  0  0
    5.4040    7.9320  -21.0020 C   0  0  0  0  0  0  0  0  0  0  0  0
    6.9080    9.7250  -20.9040 C   0  0  0  0  0  0  0  0  0  0  0  0
    7.3980    8.5920  -19.9630 C   0  0  0  0  0  0  0  0  0  0  0  0
    4.8630   10.0060  -22.3310 C   0  0  0  0  0  0  0  0  0  0  0  0
    3.4330    7.2810  -22.3890 C   0  0  0  0  0  0  0  0  0  0  0  0
  1  2  2  0
  1  3  1  0
  2  6  1  0
  3  5  2  0
  3 27  1  0
  4  5  1  0
  4  6  2  0
  4 18  1  0
  5 24  1  0
  6 10  1  0
  7 10  2  0
  7 23  1  0
  7 33  1  0
 21  8  1  1
  8 22  1  0
  9 21  1  0
  9 31  1  0
 11 12  1  0
 11 14  1  0
 11 15  2  0
 12 17  2  0
 12 28  1  0
 13 28  2  0
 13 29  1  0
 13 41  1  0
 14 29  2  0
 14 31  1  0
 15 30  1  0
 16 17  1  0
 16 18  1  0
 16 30  2  0
 17 26  1  0
 18 23  2  0
 20 19  1  6
 19 31  1  0
 20 22  1  0
 20 32  1  0
 21 32  1  0
 24 25  3  0
 34 37  2  0
 34 39  1  0
 35 37  1  0
 35 38  1  0
 35 40  1  0
 36 37  1  0
 36 41  1  0
 38 39  1  0
M  CHG  1  34   1
M  END
>  <s_m_entry_id>  (47) 
331

>  <s_m_entry_name>  (47) 
000000173.1

>  <s_m_Source_Path>  (47) 
/Users/zaksoul/Documents/3r_UNI/2nd_SEMESTER/BSC/FRAG_RECON/RESULTS/2

>  <s_m_Source_File>  (47) 
000000173.mol2

>  <i_m_Source_File_Index>  (47) 
1

$$$$
No_0_188,No_0_189,No_0_190,No_0_191
     RDKit          3D

 41 47  0  0  1  0  0  0  0  0999 V2000
   -5.4060    3.2650  -21.8040 C   0  0  0  0  0  0  0  0  0  0  0  0
   -5.7230    3.4160  -23.1330 C   0  0  0  0  0  0  0  0  0  0  0  0
   -4.1510    3.0440  -21.5030 C   0  0  0  0  0  0  0  0  0  0  0  0
   -3.3410    3.1350  -23.7010 C   0  0  0  0  0  0  0  0  0  0  0  0
   -3.1240    2.9280  -22.2820 C   0  0  0  0  0  0  0  0  0  0  0  0
   -4.7110    3.3590  -24.1790 C   0  0  0  0  0  0  0  0  0  0  0  0
   -4.0360    3.3430  -26.4030 C   0  0  0  0  0  0  0  0  0  0  0  0
    5.8890    2.9220  -21.4790 C   0  0  0  0  0  0  0  0  0  0  0  0
    5.6560    3.0000  -24.0250 C   0  0  0  0  0  0  0  0  0  0  0  0
   -5.0130    3.4500  -25.5070 C   0  0  0  0  0  0  0  0  0  0  0  0
    1.8630    3.4750  -23.9170 C   0  0  0  0  0  0  0  0  0  0  0  0
    1.0310    4.5740  -23.6140 C   0  0  0  0  0  0  0  0  0  0  0  0
    2.8280    5.8200  -23.0280 C   0  0  0  0  0  0  0  0  0  0  0  0
    3.2690    3.7000  -23.6600 C   0  0  0  0  0  0  0  0  0  0  0  0
    1.3150    2.3320  -24.5320 C   0  0  0  0  0  0  0  0  0  0  0  0
   -0.8220    3.1070  -24.3630 C   0  0  0  0  0  0  0  0  0  0  0  0
   -0.2990    4.3510  -23.8120 C   0  0  0  0  0  0  0  0  0  0  0  0
   -2.2870    3.0760  -24.6640 C   0  0  0  0  0  0  0  0  0  0  0  0
    3.9350    1.2220  -23.3320 C   0  0  0  0  0  0  0  0  0  0  0  0
    4.9160    0.9120  -22.2120 C   0  0  2  0  0  0  0  0  0  0  0  0
    6.4570    2.4690  -22.8420 C   0  0  2  0  0  0  0  0  0  0  0  0
    4.9200    1.9400  -21.0690 C   0  0  0  0  0  0  0  0  0  0  0  0
   -2.6670    3.1950  -26.0830 C   0  0  0  0  0  0  0  0  0  0  0  0
   -1.7510    2.5550  -21.7240 C   0  0  0  0  0  0  0  0  0  0  0  0
   -0.6970    2.2390  -21.2480 C   0  0  0  0  0  0  0  0  0  0  0  0
   -1.1490    5.3880  -23.4620 F   0  0  0  0  0  0  0  0  0  0  0  0
   -3.8860    2.8390  -20.1240 F   0  0  0  0  0  0  0  0  0  0  0  0
    1.5030    5.7550  -23.1280 N   0  0  0  0  0  0  0  0  0  0  0  0
    3.7350    4.8700  -23.2580 N   0  0  0  0  0  0  0  0  0  0  0  0
    0.0010    2.2100  -24.7870 N   0  0  0  0  0  0  0  0  0  0  0  0
    4.2010    2.6660  -23.8460 N   0  0  0  0  0  0  0  0  0  0  0  0
    6.3030    0.9940  -22.7470 N   0  0  0  0  0  0  0  0  0  0  0  0
   -4.2590    3.3210  -27.7860 O   0  0  0  0  0  0  0  0  0  0  0  0
    6.2450    7.7090  -20.3520 N   0  0  0  0  0  0  0  0  0  0  0  0
    4.4010    7.0010  -21.5880 N   0  0  0  0  0  0  0  0  0  0  0  0
    6.1990   10.3390  -21.4970 C   0  0  0  0  0  0  0  0  0  0  0  0
    5.3310    7.9270  -21.3110 C   0  0  0  0  0  0  0  0  0  0  0  0
    7.2350    8.7040  -19.9530 C   0  0  0  0  0  0  0  0  0  0  0  0
    3.3770    7.1810  -22.6120 C   0  0  0  0  0  0  0  0  0  0  0  0
    5.3380    9.2230  -22.1120 C   0  0  0  0  0  0  0  0  0  0  0  0
    7.5340    9.7260  -21.0590 C   0  0  0  0  0  0  0  0  0  0  0  0
  1  2  2  0
  1  3  1  0
  2  6  1  0
  3  5  2  0
  3 27  1  0
  4  5  1  0
  4  6  2  0
  4 18  1  0
  5 24  1  0
  6 10  1  0
  7 10  2  0
  7 23  1  0
  7 33  1  0
 21  8  1  1
  8 22  1  0
  9 21  1  0
  9 31  1  0
 11 12  1  0
 11 14  1  0
 11 15  2  0
 12 17  2  0
 12 28  1  0
 13 28  2  0
 13 29  1  0
 13 39  1  0
 14 29  2  0
 14 31  1  0
 15 30  1  0
 16 17  1  0
 16 18  1  0
 16 30  2  0
 17 26  1  0
 18 23  2  0
 20 19  1  6
 19 31  1  0
 20 22  1  0
 20 32  1  0
 21 32  1  0
 24 25  3  0
 34 37  2  0
 34 38  1  0
 35 37  1  0
 35 39  1  0
 36 40  1  0
 36 41  1  0
 37 40  1  0
 38 41  1  0
M  CHG  1  34   1
M  END
>  <s_m_entry_id>  (48) 
334

>  <s_m_entry_name>  (48) 
000000176.1

>  <s_m_Source_Path>  (48) 
/Users/zaksoul/Documents/3r_UNI/2nd_SEMESTER/BSC/FRAG_RECON/RESULTS/2

>  <s_m_Source_File>  (48) 
000000176.mol2

>  <i_m_Source_File_Index>  (48) 
1

$$$$
No_0_192,No_0_193,No_0_194,No_0_195,No_0_196,No_0_197
     RDKit          3D

 40 46  0  0  1  0  0  0  0  0999 V2000
   -5.1470    3.4810  -21.9050 C   0  0  0  0  0  0  0  0  0  0  0  0
   -5.4170    3.6610  -23.2410 C   0  0  0  0  0  0  0  0  0  0  0  0
   -3.9110    3.2130  -21.5670 C   0  0  0  0  0  0  0  0  0  0  0  0
   -3.0280    3.3050  -23.7380 C   0  0  0  0  0  0  0  0  0  0  0  0
   -2.8640    3.0730  -22.3160 C   0  0  0  0  0  0  0  0  0  0  0  0
   -4.3740    3.5820  -24.2550 C   0  0  0  0  0  0  0  0  0  0  0  0
   -3.6300    3.5710  -26.4570 C   0  0  0  0  0  0  0  0  0  0  0  0
    6.1130    2.7470  -21.2300 C   0  0  0  0  0  0  0  0  0  0  0  0
    5.9640    2.8660  -23.7800 C   0  0  0  0  0  0  0  0  0  0  0  0
   -4.6300    3.7000  -25.5910 C   0  0  0  0  0  0  0  0  0  0  0  0
    2.1880    3.4690  -23.7850 C   0  0  0  0  0  0  0  0  0  0  0  0
    1.3850    4.5930  -23.4930 C   0  0  0  0  0  0  0  0  0  0  0  0
    3.2030    5.7690  -22.8340 C   0  0  0  0  0  0  0  0  0  0  0  0
    3.5930    3.6430  -23.4810 C   0  0  0  0  0  0  0  0  0  0  0  0
    1.6220    2.3540  -24.4330 C   0  0  0  0  0  0  0  0  0  0  0  0
   -0.4920    3.1990  -24.3200 C   0  0  0  0  0  0  0  0  0  0  0  0
    0.0550    4.4170  -23.7360 C   0  0  0  0  0  0  0  0  0  0  0  0
   -1.9470    3.2230  -24.6680 C   0  0  0  0  0  0  0  0  0  0  0  0
    4.1630    1.1390  -23.1670 C   0  0  0  0  0  0  0  0  0  0  0  0
    5.0970    0.7810  -22.0210 C   0  0  2  0  0  0  0  0  0  0  0  0
    6.7100    2.2930  -22.5800 C   0  0  2  0  0  0  0  0  0  0  0  0
    5.0990    1.7940  -20.8640 C   0  0  0  0  0  0  0  0  0  0  0  0
   -2.2770    3.3730  -26.0960 C   0  0  0  0  0  0  0  0  0  0  0  0
   -1.5230    2.6460  -21.7200 C   0  0  0  0  0  0  0  0  0  0  0  0
   -0.4950    2.2880  -21.2150 C   0  0  0  0  0  0  0  0  0  0  0  0
   -0.7700    5.4780  -23.3980 F   0  0  0  0  0  0  0  0  0  0  0  0
   -3.6970    2.9820  -20.1840 F   0  0  0  0  0  0  0  0  0  0  0  0
    1.8810    5.7500  -22.9760 N   0  0  0  0  0  0  0  0  0  0  0  0
    4.0850    4.7910  -23.0490 N   0  0  0  0  0  0  0  0  0  0  0  0
    0.3130    2.2800  -24.7310 N   0  0  0  0  0  0  0  0  0  0  0  0
    4.4940    2.5800  -23.6520 N   0  0  0  0  0  0  0  0  0  0  0  0
    6.5020    0.8230  -22.5110 N   0  0  0  0  0  0  0  0  0  0  0  0
   -3.8090    3.5750  -27.8460 O   0  0  0  0  0  0  0  0  0  0  0  0
    6.6340    7.7070  -20.1080 N   0  0  0  0  0  0  0  0  0  0  0  0
    4.7690    6.8910  -21.3300 N   0  0  0  0  0  0  0  0  0  0  0  0
    5.6890    7.8160  -21.0390 C   0  0  0  0  0  0  0  0  0  0  0  0
    7.5280    8.8380  -19.9720 C   0  0  0  0  0  0  0  0  0  0  0  0
    5.8190    9.1610  -21.7100 C   0  0  0  0  0  0  0  0  0  0  0  0
    6.7600    9.9200  -20.7540 C   0  0  0  0  0  0  0  0  0  0  0  0
    3.7840    7.1040  -22.3820 C   0  0  0  0  0  0  0  0  0  0  0  0
  1  2  2  0
  1  3  1  0
  2  6  1  0
  3  5  2  0
  3 27  1  0
  4  5  1  0
  4  6  2  0
  4 18  1  0
  5 24  1  0
  6 10  1  0
  7 10  2  0
  7 23  1  0
  7 33  1  0
 21  8  1  1
  8 22  1  0
  9 21  1  0
  9 31  1  0
 11 12  1  0
 11 14  1  0
 11 15  2  0
 12 17  2  0
 12 28  1  0
 13 28  2  0
 13 29  1  0
 13 40  1  0
 14 29  2  0
 14 31  1  0
 15 30  1  0
 16 17  1  0
 16 18  1  0
 16 30  2  0
 17 26  1  0
 18 23  2  0
 20 19  1  6
 19 31  1  0
 20 22  1  0
 20 32  1  0
 21 32  1  0
 24 25  3  0
 34 36  2  0
 34 37  1  0
 35 36  1  0
 35 40  1  0
 36 38  1  0
 37 39  1  0
 38 39  1  0
M  CHG  1  34   1
M  END
>  <s_m_entry_id>  (49) 
338

>  <s_m_entry_name>  (49) 
000000180.1

>  <s_m_Source_Path>  (49) 
/Users/zaksoul/Documents/3r_UNI/2nd_SEMESTER/BSC/FRAG_RECON/RESULTS/2

>  <s_m_Source_File>  (49) 
000000180.mol2

>  <i_m_Source_File_Index>  (49) 
1

$$$$
No_0_198,No_0_199,No_0_200,No_0_201,No_0_202
     RDKit          3D

 42 48  0  0  1  0  0  0  0  0999 V2000
   -5.2680    3.5210  -21.7620 C   0  0  0  0  0  0  0  0  0  0  0  0
   -5.5420    3.7100  -23.0960 C   0  0  0  0  0  0  0  0  0  0  0  0
   -4.0280    3.2630  -21.4300 C   0  0  0  0  0  0  0  0  0  0  0  0
   -3.1520    3.3820  -23.6020 C   0  0  0  0  0  0  0  0  0  0  0  0
   -2.9820    3.1390  -22.1820 C   0  0  0  0  0  0  0  0  0  0  0  0
   -4.5020    3.6510  -24.1140 C   0  0  0  0  0  0  0  0  0  0  0  0
   -3.7620    3.6660  -26.3170 C   0  0  0  0  0  0  0  0  0  0  0  0
    6.0010    2.8940  -21.1200 C   0  0  0  0  0  0  0  0  0  0  0  0
    5.8450    3.0340  -23.6690 C   0  0  0  0  0  0  0  0  0  0  0  0
   -4.7620    3.7770  -25.4480 C   0  0  0  0  0  0  0  0  0  0  0  0
    2.0630    3.5990  -23.6600 C   0  0  0  0  0  0  0  0  0  0  0  0
    1.2490    4.7120  -23.3560 C   0  0  0  0  0  0  0  0  0  0  0  0
    3.0570    5.9000  -22.6910 C   0  0  0  0  0  0  0  0  0  0  0  0
    3.4660    3.7840  -23.3570 C   0  0  0  0  0  0  0  0  0  0  0  0
    1.5060    2.4830  -24.3160 C   0  0  0  0  0  0  0  0  0  0  0  0
   -0.6160    3.3070  -24.1910 C   0  0  0  0  0  0  0  0  0  0  0  0
   -0.0800    4.5250  -23.5970 C   0  0  0  0  0  0  0  0  0  0  0  0
   -2.0720    3.3190  -24.5350 C   0  0  0  0  0  0  0  0  0  0  0  0
    4.0620    1.2840  -23.0660 C   0  0  0  0  0  0  0  0  0  0  0  0
    5.0020    0.9250  -21.9250 C   0  0  2  0  0  0  0  0  0  0  0  0
    6.5980    2.4580  -22.4750 C   0  0  2  0  0  0  0  0  0  0  0  0
    4.9970    1.9280  -20.7600 C   0  0  0  0  0  0  0  0  0  0  0  0
   -2.4070    3.4780  -25.9610 C   0  0  0  0  0  0  0  0  0  0  0  0
   -1.6350    2.7200  -21.5930 C   0  0  0  0  0  0  0  0  0  0  0  0
   -0.6030    2.3690  -21.0940 C   0  0  0  0  0  0  0  0  0  0  0  0
   -0.9140    5.5750  -23.2480 F   0  0  0  0  0  0  0  0  0  0  0  0
   -3.8090    3.0210  -20.0490 F   0  0  0  0  0  0  0  0  0  0  0  0
    1.7350    5.8690  -22.8300 N   0  0  0  0  0  0  0  0  0  0  0  0
    3.9480    4.9330  -22.9160 N   0  0  0  0  0  0  0  0  0  0  0  0
    0.1980    2.3990  -24.6120 N   0  0  0  0  0  0  0  0  0  0  0  0
    4.3780    2.7310  -23.5390 N   0  0  0  0  0  0  0  0  0  0  0  0
    6.4060    0.9850  -22.4180 N   0  0  0  0  0  0  0  0  0  0  0  0
   -3.9450    3.6800  -27.7060 O   0  0  0  0  0  0  0  0  0  0  0  0
    7.6150    7.5660  -19.4580 N   0  0  0  0  0  0  0  0  0  0  0  0
    4.2910    7.1220  -20.9140 N   0  0  0  0  0  0  0  0  0  0  0  0
    9.4280    8.9830  -20.0000 N   0  0  0  0  0  0  0  0  0  0  0  0
    5.5960    7.6070  -20.7070 C   0  0  0  0  0  0  0  0  0  0  0  0
    3.6260    7.2370  -22.2280 C   0  0  0  0  0  0  0  0  0  0  0  0
    7.4110    9.0710  -21.2860 C   0  0  0  0  0  0  0  0  0  0  0  0
    8.1560    8.5340  -20.2410 C   0  0  0  0  0  0  0  0  0  0  0  0
    6.3460    7.1040  -19.6890 C   0  0  0  0  0  0  0  0  0  0  0  0
    6.1480    8.6210  -21.5130 C   0  0  0  0  0  0  0  0  0  0  0  0
  1  2  2  0
  1  3  1  0
  2  6  1  0
  3  5  2  0
  3 27  1  0
  4  5  1  0
  4  6  2  0
  4 18  1  0
  5 24  1  0
  6 10  1  0
  7 10  2  0
  7 23  1  0
  7 33  1  0
 21  8  1  1
  8 22  1  0
  9 21  1  0
  9 31  1  0
 11 12  1  0
 11 14  1  0
 11 15  2  0
 12 17  2  0
 12 28  1  0
 13 28  2  0
 13 29  1  0
 13 38  1  0
 14 29  2  0
 14 31  1  0
 15 30  1  0
 16 17  1  0
 16 18  1  0
 16 30  2  0
 17 26  1  0
 18 23  2  0
 20 19  1  6
 19 31  1  0
 20 22  1  0
 20 32  1  0
 21 32  1  0
 24 25  3  0
 34 40  1  0
 34 41  1  0
 35 37  1  0
 35 38  1  0
 36 40  1  0
 37 41  2  0
 37 42  1  0
 39 40  2  0
 39 42  1  0
M  END
>  <s_m_entry_id>  (50) 
344

>  <s_m_entry_name>  (50) 
000000186.1

>  <s_m_Source_Path>  (50) 
/Users/zaksoul/Documents/3r_UNI/2nd_SEMESTER/BSC/FRAG_RECON/RESULTS/2

>  <s_m_Source_File>  (50) 
000000186.mol2

>  <i_m_Source_File_Index>  (50) 
1

$$$$
No_0_203,No_0_204,No_0_205
     RDKit          3D

 42 48  0  0  1  0  0  0  0  0999 V2000
   -5.3050    3.5020  -21.6340 C   0  0  0  0  0  0  0  0  0  0  0  0
   -5.5680    3.6890  -22.9700 C   0  0  0  0  0  0  0  0  0  0  0  0
   -4.0680    3.2460  -21.2900 C   0  0  0  0  0  0  0  0  0  0  0  0
   -3.1730    3.3660  -23.4550 C   0  0  0  0  0  0  0  0  0  0  0  0
   -3.0150    3.1240  -22.0330 C   0  0  0  0  0  0  0  0  0  0  0  0
   -4.5180    3.6320  -23.9780 C   0  0  0  0  0  0  0  0  0  0  0  0
   -3.7600    3.6480  -26.1750 C   0  0  0  0  0  0  0  0  0  0  0  0
    5.9590    2.8940  -20.8930 C   0  0  0  0  0  0  0  0  0  0  0  0
    5.8250    3.0330  -23.4420 C   0  0  0  0  0  0  0  0  0  0  0  0
   -4.7670    3.7580  -25.3140 C   0  0  0  0  0  0  0  0  0  0  0  0
    2.0420    3.5920  -23.4670 C   0  0  0  0  0  0  0  0  0  0  0  0
    1.2230    4.7030  -23.1710 C   0  0  0  0  0  0  0  0  0  0  0  0
    3.0240    5.8950  -22.4900 C   0  0  0  0  0  0  0  0  0  0  0  0
    3.4420    3.7790  -23.1520 C   0  0  0  0  0  0  0  0  0  0  0  0
    1.4930    2.4750  -24.1270 C   0  0  0  0  0  0  0  0  0  0  0  0
   -0.6320    3.2950  -24.0210 C   0  0  0  0  0  0  0  0  0  0  0  0
   -0.1030    4.5140  -23.4240 C   0  0  0  0  0  0  0  0  0  0  0  0
   -2.0840    3.3040  -24.3780 C   0  0  0  0  0  0  0  0  0  0  0  0
    4.0400    1.2800  -22.8550 C   0  0  0  0  0  0  0  0  0  0  0  0
    4.9710    0.9230  -21.7060 C   0  0  2  0  0  0  0  0  0  0  0  0
    6.5690    2.4590  -22.2420 C   0  0  2  0  0  0  0  0  0  0  0  0
    4.9540    1.9270  -20.5410 C   0  0  0  0  0  0  0  0  0  0  0  0
   -2.4070    3.4620  -25.8070 C   0  0  0  0  0  0  0  0  0  0  0  0
   -1.6730    2.7080  -21.4320 C   0  0  0  0  0  0  0  0  0  0  0  0
   -0.6440    2.3580  -20.9240 C   0  0  0  0  0  0  0  0  0  0  0  0
   -0.9420    5.5620  -23.0820 F   0  0  0  0  0  0  0  0  0  0  0  0
   -3.8600    3.0050  -19.9070 F   0  0  0  0  0  0  0  0  0  0  0  0
    1.7030    5.8620  -22.6400 N   0  0  0  0  0  0  0  0  0  0  0  0
    3.9180    4.9290  -22.7070 N   0  0  0  0  0  0  0  0  0  0  0  0
    0.1870    2.3890  -24.4340 N   0  0  0  0  0  0  0  0  0  0  0  0
    4.3570    2.7280  -23.3260 N   0  0  0  0  0  0  0  0  0  0  0  0
    6.3780    0.9860  -22.1860 N   0  0  0  0  0  0  0  0  0  0  0  0
   -3.9300    3.6610  -27.5650 O   0  0  0  0  0  0  0  0  0  0  0  0
    3.9040    8.0560  -23.1610 O   0  0  0  0  0  0  0  0  0  0  0  0
    5.7620    9.2360  -22.2320 N   0  0  0  0  0  0  0  0  0  0  0  0
    7.1800    9.1220  -20.3450 C   0  0  0  0  0  0  0  0  0  0  0  0
    8.0860    8.9540  -22.5490 C   0  0  0  0  0  0  0  0  0  0  0  0
    3.5860    7.2330  -22.0230 C   0  0  0  0  0  0  0  0  0  0  0  0
    4.4190    9.3510  -22.7900 C   0  0  0  0  0  0  0  0  0  0  0  0
    5.9340    9.2600  -20.8850 C   0  0  0  0  0  0  0  0  0  0  0  0
    6.8280    9.0900  -23.0620 C   0  0  0  0  0  0  0  0  0  0  0  0
    8.2700    8.9660  -21.1800 C   0  0  0  0  0  0  0  0  0  0  0  0
  1  2  2  0
  1  3  1  0
  2  6  1  0
  3  5  2  0
  3 27  1  0
  4  5  1  0
  4  6  2  0
  4 18  1  0
  5 24  1  0
  6 10  1  0
  7 10  2  0
  7 23  1  0
  7 33  1  0
 21  8  1  1
  8 22  1  0
  9 21  1  0
  9 31  1  0
 11 12  1  0
 11 14  1  0
 11 15  2  0
 12 17  2  0
 12 28  1  0
 13 28  2  0
 13 29  1  0
 13 38  1  0
 14 29  2  0
 14 31  1  0
 15 30  1  0
 16 17  1  0
 16 18  1  0
 16 30  2  0
 17 26  1  0
 18 23  2  0
 20 19  1  6
 19 31  1  0
 20 22  1  0
 20 32  1  0
 21 32  1  0
 24 25  3  0
 34 38  1  0
 34 39  1  0
 35 39  1  0
 35 40  1  0
 35 41  1  0
 36 40  2  0
 36 42  1  0
 37 41  2  0
 37 42  1  0
M  END
>  <s_m_entry_id>  (51) 
349

>  <s_m_entry_name>  (51) 
000000191.1

>  <s_m_Source_Path>  (51) 
/Users/zaksoul/Documents/3r_UNI/2nd_SEMESTER/BSC/FRAG_RECON/RESULTS/2

>  <s_m_Source_File>  (51) 
000000191.mol2

>  <i_m_Source_File_Index>  (51) 
1

$$$$
No_0_206
     RDKit          3D

 43 49  0  0  1  0  0  0  0  0999 V2000
   -5.3270    3.1420  -21.5710 C   0  0  0  0  0  0  0  0  0  0  0  0
   -5.6180    3.3590  -22.8970 C   0  0  0  0  0  0  0  0  0  0  0  0
   -4.0780    2.9090  -21.2560 C   0  0  0  0  0  0  0  0  0  0  0  0
   -3.2230    3.1130  -23.4300 C   0  0  0  0  0  0  0  0  0  0  0  0
   -3.0350    2.8350  -22.0190 C   0  0  0  0  0  0  0  0  0  0  0  0
   -4.5840    3.3580  -23.9240 C   0  0  0  0  0  0  0  0  0  0  0  0
   -3.8640    3.4550  -26.1320 C   0  0  0  0  0  0  0  0  0  0  0  0
    5.9600    2.8110  -21.0330 C   0  0  0  0  0  0  0  0  0  0  0  0
    5.7790    3.0170  -23.5750 C   0  0  0  0  0  0  0  0  0  0  0  0
   -4.8590    3.5150  -25.2520 C   0  0  0  0  0  0  0  0  0  0  0  0
    1.9820    3.4760  -23.5210 C   0  0  0  0  0  0  0  0  0  0  0  0
    1.1410    4.5570  -23.1810 C   0  0  0  0  0  0  0  0  0  0  0  0
    2.9210    5.7760  -22.4960 C   0  0  0  0  0  0  0  0  0  0  0  0
    3.3830    3.6920  -23.2240 C   0  0  0  0  0  0  0  0  0  0  0  0
    1.4520    2.3650  -24.2040 C   0  0  0  0  0  0  0  0  0  0  0  0
   -0.6920    3.1250  -24.0400 C   0  0  0  0  0  0  0  0  0  0  0  0
   -0.1840    4.3410  -23.4170 C   0  0  0  0  0  0  0  0  0  0  0  0
   -2.1500    3.1060  -24.3730 C   0  0  0  0  0  0  0  0  0  0  0  0
    4.0500    1.2020  -23.0080 C   0  0  0  0  0  0  0  0  0  0  0  0
    5.0090    0.8380  -21.8860 C   0  0  2  0  0  0  0  0  0  0  0  0
    6.5580    2.4290  -22.4040 C   0  0  2  0  0  0  0  0  0  0  0  0
    4.9860    1.8070  -20.6920 C   0  0  0  0  0  0  0  0  0  0  0  0
   -2.5010    3.2950  -25.7910 C   0  0  0  0  0  0  0  0  0  0  0  0
   -1.6720    2.4380  -21.4520 C   0  0  0  0  0  0  0  0  0  0  0  0
   -0.6260    2.1010  -20.9710 C   0  0  0  0  0  0  0  0  0  0  0  0
   -1.0440    5.3560  -23.0320 F   0  0  0  0  0  0  0  0  0  0  0  0
   -3.8400    2.6350  -19.8840 F   0  0  0  0  0  0  0  0  0  0  0  0
    1.5990    5.7120  -22.6250 N   0  0  0  0  0  0  0  0  0  0  0  0
    3.8360    4.8410  -22.7550 N   0  0  0  0  0  0  0  0  0  0  0  0
    0.1430    2.2520  -24.4920 N   0  0  0  0  0  0  0  0  0  0  0  0
    4.3220    2.6700  -23.4430 N   0  0  0  0  0  0  0  0  0  0  0  0
    6.4070    0.9510  -22.3870 N   0  0  0  0  0  0  0  0  0  0  0  0
   -4.0580    3.5030  -27.5180 O   0  0  0  0  0  0  0  0  0  0  0  0
    3.3900    8.0640  -23.0830 O   0  0  0  0  0  0  0  0  0  0  0  0
    7.5730   10.0990  -21.2230 N   0  0  0  0  0  0  0  0  0  0  0  0
    8.4040   10.1230  -23.4350 N   0  0  0  0  0  0  0  0  0  0  0  0
    5.0340    9.6730  -22.1630 C   0  0  0  0  0  0  0  0  0  0  0  0
    7.3570   10.0050  -22.5630 C   0  0  0  0  0  0  0  0  0  0  0  0
    6.0680    9.7870  -23.0420 C   0  0  0  0  0  0  0  0  0  0  0  0
    6.5340    9.9850  -20.3390 C   0  0  0  0  0  0  0  0  0  0  0  0
    5.2770    9.7760  -20.7890 C   0  0  0  0  0  0  0  0  0  0  0  0
    3.6220    9.4250  -22.6660 C   0  0  0  0  0  0  0  0  0  0  0  0
    3.4570    7.1150  -22.0000 C   0  0  0  0  0  0  0  0  0  0  0  0
  1  2  2  0
  1  3  1  0
  2  6  1  0
  3  5  2  0
  3 27  1  0
  4  5  1  0
  4  6  2  0
  4 18  1  0
  5 24  1  0
  6 10  1  0
  7 10  2  0
  7 23  1  0
  7 33  1  0
 21  8  1  1
  8 22  1  0
  9 21  1  0
  9 31  1  0
 11 12  1  0
 11 14  1  0
 11 15  2  0
 12 17  2  0
 12 28  1  0
 13 28  2  0
 13 29  1  0
 13 43  1  0
 14 29  2  0
 14 31  1  0
 15 30  1  0
 16 17  1  0
 16 18  1  0
 16 30  2  0
 17 26  1  0
 18 23  2  0
 20 19  1  6
 19 31  1  0
 20 22  1  0
 20 32  1  0
 21 32  1  0
 24 25  3  0
 34 42  1  0
 34 43  1  0
 35 38  2  0
 35 40  1  0
 36 38  1  0
 37 39  2  0
 37 41  1  0
 37 42  1  0
 38 39  1  0
 40 41  2  0
M  END
>  <s_m_entry_id>  (52) 
352

>  <s_m_entry_name>  (52) 
000000194.1

>  <s_m_Source_Path>  (52) 
/Users/zaksoul/Documents/3r_UNI/2nd_SEMESTER/BSC/FRAG_RECON/RESULTS/2

>  <s_m_Source_File>  (52) 
000000194.mol2

>  <i_m_Source_File_Index>  (52) 
1

$$$$
No_0_207,No_0_208,No_0_209
     RDKit          3D

 40 46  0  0  1  0  0  0  0  0999 V2000
   -5.1260    3.3200  -21.8900 C   0  0  0  0  0  0  0  0  0  0  0  0
   -5.4090    3.4960  -23.2230 C   0  0  0  0  0  0  0  0  0  0  0  0
   -3.8790    3.0920  -21.5610 C   0  0  0  0  0  0  0  0  0  0  0  0
   -3.0130    3.2230  -23.7360 C   0  0  0  0  0  0  0  0  0  0  0  0
   -2.8330    2.9890  -22.3160 C   0  0  0  0  0  0  0  0  0  0  0  0
   -4.3710    3.4580  -24.2440 C   0  0  0  0  0  0  0  0  0  0  0  0
   -3.6390    3.4820  -26.4500 C   0  0  0  0  0  0  0  0  0  0  0  0
    6.1560    2.9560  -21.2850 C   0  0  0  0  0  0  0  0  0  0  0  0
    5.9880    3.0830  -23.8330 C   0  0  0  0  0  0  0  0  0  0  0  0
   -4.6390    3.5730  -25.5780 C   0  0  0  0  0  0  0  0  0  0  0  0
    2.1940    3.5600  -23.8130 C   0  0  0  0  0  0  0  0  0  0  0  0
    1.3560    4.6550  -23.5110 C   0  0  0  0  0  0  0  0  0  0  0  0
    3.1380    5.8870  -22.8560 C   0  0  0  0  0  0  0  0  0  0  0  0
    3.5940    3.7780  -23.5160 C   0  0  0  0  0  0  0  0  0  0  0  0
    1.6620    2.4290  -24.4630 C   0  0  0  0  0  0  0  0  0  0  0  0
   -0.4790    3.2040  -24.3340 C   0  0  0  0  0  0  0  0  0  0  0  0
    0.0310    4.4370  -23.7470 C   0  0  0  0  0  0  0  0  0  0  0  0
   -1.9350    3.1810  -24.6730 C   0  0  0  0  0  0  0  0  0  0  0  0
    4.2490    1.2940  -23.2180 C   0  0  0  0  0  0  0  0  0  0  0  0
    5.2010    0.9620  -22.0790 C   0  0  2  0  0  0  0  0  0  0  0  0
    6.7590    2.5290  -22.6400 C   0  0  2  0  0  0  0  0  0  0  0  0
    5.1770    1.9690  -20.9170 C   0  0  0  0  0  0  0  0  0  0  0  0
   -2.2790    3.3270  -26.0980 C   0  0  0  0  0  0  0  0  0  0  0  0
   -1.4750    2.6040  -21.7300 C   0  0  0  0  0  0  0  0  0  0  0  0
   -0.4330    2.2780  -21.2330 C   0  0  0  0  0  0  0  0  0  0  0  0
   -0.8260    5.4680  -23.3990 F   0  0  0  0  0  0  0  0  0  0  0  0
   -3.6500    2.8600  -20.1800 F   0  0  0  0  0  0  0  0  0  0  0  0
    1.8170    5.8250  -22.9910 N   0  0  0  0  0  0  0  0  0  0  0  0
    4.0500    4.9400  -23.0810 N   0  0  0  0  0  0  0  0  0  0  0  0
    0.3540    2.3140  -24.7540 N   0  0  0  0  0  0  0  0  0  0  0  0
    4.5300    2.7470  -23.6970 N   0  0  0  0  0  0  0  0  0  0  0  0
    6.6010    1.0520  -22.5770 N   0  0  0  0  0  0  0  0  0  0  0  0
   -3.8270    3.4860  -27.8380 O   0  0  0  0  0  0  0  0  0  0  0  0
    4.7140    7.0630  -21.3170 N   0  0  0  0  0  0  0  0  0  0  0  0
    5.4950    8.2770  -20.8680 C   0  0  0  0  0  0  0  0  0  0  0  0
    5.6900   10.6360  -20.3980 C   0  0  0  0  0  0  0  0  0  0  0  0
    6.8270   10.2460  -21.3660 C   0  0  0  0  0  0  0  0  0  0  0  0
    6.4910    8.8390  -21.8950 C   0  0  0  0  0  0  0  0  0  0  0  0
    4.6580    9.4990  -20.4660 C   0  0  0  0  0  0  0  0  0  0  0  0
    3.6780    7.2390  -22.4010 C   0  0  0  0  0  0  0  0  0  0  0  0
  1  2  2  0
  1  3  1  0
  2  6  1  0
  3  5  2  0
  3 27  1  0
  4  5  1  0
  4  6  2  0
  4 18  1  0
  5 24  1  0
  6 10  1  0
  7 10  2  0
  7 23  1  0
  7 33  1  0
 21  8  1  1
  8 22  1  0
  9 21  1  0
  9 31  1  0
 11 12  1  0
 11 14  1  0
 11 15  2  0
 12 17  2  0
 12 28  1  0
 13 28  2  0
 13 29  1  0
 13 40  1  0
 14 29  2  0
 14 31  1  0
 15 30  1  0
 16 17  1  0
 16 18  1  0
 16 30  2  0
 17 26  1  0
 18 23  2  0
 20 19  1  6
 19 31  1  0
 20 22  1  0
 20 32  1  0
 21 32  1  0
 24 25  3  0
 34 35  1  0
 34 40  1  0
 35 38  1  0
 35 39  1  0
 36 37  1  0
 36 39  1  0
 37 38  1  0
M  CHG  1  34   1
M  END
>  <s_m_entry_id>  (53) 
353

>  <s_m_entry_name>  (53) 
000000195.1

>  <s_m_Source_Path>  (53) 
/Users/zaksoul/Documents/3r_UNI/2nd_SEMESTER/BSC/FRAG_RECON/RESULTS/2

>  <s_m_Source_File>  (53) 
000000195.mol2

>  <i_m_Source_File_Index>  (53) 
1

$$$$
No_0_210
     RDKit          3D

 41 47  0  0  1  0  0  0  0  0999 V2000
   -5.2210    3.5090  -21.6720 C   0  0  0  0  0  0  0  0  0  0  0  0
   -5.5220    3.6750  -23.0030 C   0  0  0  0  0  0  0  0  0  0  0  0
   -3.9770    3.2440  -21.3620 C   0  0  0  0  0  0  0  0  0  0  0  0
   -3.1460    3.3140  -23.5540 C   0  0  0  0  0  0  0  0  0  0  0  0
   -2.9480    3.0950  -22.1340 C   0  0  0  0  0  0  0  0  0  0  0  0
   -4.5040    3.5860  -24.0420 C   0  0  0  0  0  0  0  0  0  0  0  0
   -3.8120    3.5530  -26.2600 C   0  0  0  0  0  0  0  0  0  0  0  0
    6.0520    2.7770  -21.2580 C   0  0  0  0  0  0  0  0  0  0  0  0
    5.8430    2.8710  -23.8050 C   0  0  0  0  0  0  0  0  0  0  0  0
   -4.7910    3.6910  -25.3720 C   0  0  0  0  0  0  0  0  0  0  0  0
    2.0680    3.4760  -23.7260 C   0  0  0  0  0  0  0  0  0  0  0  0
    1.2720    4.6020  -23.4260 C   0  0  0  0  0  0  0  0  0  0  0  0
    3.1050    5.7840  -22.8220 C   0  0  0  0  0  0  0  0  0  0  0  0
    3.4790    3.6520  -23.4570 C   0  0  0  0  0  0  0  0  0  0  0  0
    1.4870    2.3540  -24.3490 C   0  0  0  0  0  0  0  0  0  0  0  0
   -0.6250    3.2010  -24.1950 C   0  0  0  0  0  0  0  0  0  0  0  0
   -0.0640    4.4250  -23.6360 C   0  0  0  0  0  0  0  0  0  0  0  0
   -2.0870    3.2220  -24.5080 C   0  0  0  0  0  0  0  0  0  0  0  0
    4.0560    1.1510  -23.1320 C   0  0  0  0  0  0  0  0  0  0  0  0
    5.0170    0.8040  -22.0050 C   0  0  2  0  0  0  0  0  0  0  0  0
    6.6160    2.3100  -22.6170 C   0  0  2  0  0  0  0  0  0  0  0  0
    5.0470    1.8280  -20.8580 C   0  0  0  0  0  0  0  0  0  0  0  0
   -2.4510    3.3580  -25.9290 C   0  0  0  0  0  0  0  0  0  0  0  0
   -1.5940    2.6740  -21.5650 C   0  0  0  0  0  0  0  0  0  0  0  0
   -0.5540    2.3210  -21.0820 C   0  0  0  0  0  0  0  0  0  0  0  0
   -0.8800    5.4890  -23.2890 F   0  0  0  0  0  0  0  0  0  0  0  0
   -3.7310    3.0260  -19.9810 F   0  0  0  0  0  0  0  0  0  0  0  0
    1.7800    5.7640  -22.9320 N   0  0  0  0  0  0  0  0  0  0  0  0
    3.9810    4.8040  -23.0480 N   0  0  0  0  0  0  0  0  0  0  0  0
    0.1710    2.2780  -24.6150 N   0  0  0  0  0  0  0  0  0  0  0  0
    4.3760    2.5870  -23.6390 N   0  0  0  0  0  0  0  0  0  0  0  0
    6.4100    0.8400  -22.5280 N   0  0  0  0  0  0  0  0  0  0  0  0
   -4.0240    3.5430  -27.6450 O   0  0  0  0  0  0  0  0  0  0  0  0
    4.7460    6.9250  -21.3280 N   0  0  0  0  0  0  0  0  0  0  0  0
    6.5820    8.5520  -21.9930 C   0  0  0  0  0  0  0  0  0  0  0  0
    4.6740    9.3230  -20.4900 C   0  0  0  0  0  0  0  0  0  0  0  0
    5.5590    8.1280  -20.9120 C   0  0  0  0  0  0  0  0  0  0  0  0
    6.5140   10.9110  -21.1320 C   0  0  0  0  0  0  0  0  0  0  0  0
    7.4370    9.7270  -21.4790 C   0  0  0  0  0  0  0  0  0  0  0  0
    5.5560   10.4890  -20.0010 C   0  0  0  0  0  0  0  0  0  0  0  0
    3.6970    7.1230  -22.3970 C   0  0  0  0  0  0  0  0  0  0  0  0
  1  2  2  0
  1  3  1  0
  2  6  1  0
  3  5  2  0
  3 27  1  0
  4  5  1  0
  4  6  2  0
  4 18  1  0
  5 24  1  0
  6 10  1  0
  7 10  2  0
  7 23  1  0
  7 33  1  0
 21  8  1  1
  8 22  1  0
  9 21  1  0
  9 31  1  0
 11 12  1  0
 11 14  1  0
 11 15  2  0
 12 17  2  0
 12 28  1  0
 13 28  2  0
 13 29  1  0
 13 41  1  0
 14 29  2  0
 14 31  1  0
 15 30  1  0
 16 17  1  0
 16 18  1  0
 16 30  2  0
 17 26  1  0
 18 23  2  0
 20 19  1  6
 19 31  1  0
 20 22  1  0
 20 32  1  0
 21 32  1  0
 24 25  3  0
 34 37  1  0
 34 41  1  0
 35 37  1  0
 35 39  1  0
 36 37  1  0
 36 40  1  0
 38 39  1  0
 38 40  1  0
M  CHG  1  34   1
M  END
>  <s_m_entry_id>  (54) 
356

>  <s_m_entry_name>  (54) 
000000198.1

>  <s_m_Source_Path>  (54) 
/Users/zaksoul/Documents/3r_UNI/2nd_SEMESTER/BSC/FRAG_RECON/RESULTS/2

>  <s_m_Source_File>  (54) 
000000198.mol2

>  <i_m_Source_File_Index>  (54) 
1

$$$$
No_0_211,No_0_212
     RDKit          3D

 41 47  0  0  1  0  0  0  0  0999 V2000
   -5.2200    3.5770  -22.1420 C   0  0  0  0  0  0  0  0  0  0  0  0
   -5.4450    3.7280  -23.4890 C   0  0  0  0  0  0  0  0  0  0  0  0
   -3.9920    3.3420  -21.7550 C   0  0  0  0  0  0  0  0  0  0  0  0
   -3.0320    3.4170  -23.8930 C   0  0  0  0  0  0  0  0  0  0  0  0
   -2.9160    3.2120  -22.4620 C   0  0  0  0  0  0  0  0  0  0  0  0
   -4.3640    3.6560  -24.4640 C   0  0  0  0  0  0  0  0  0  0  0  0
   -3.5390    3.6240  -26.6370 C   0  0  0  0  0  0  0  0  0  0  0  0
    6.0200    3.1000  -21.0460 C   0  0  0  0  0  0  0  0  0  0  0  0
    5.9630    3.1730  -23.6010 C   0  0  0  0  0  0  0  0  0  0  0  0
   -4.5730    3.7460  -25.8100 C   0  0  0  0  0  0  0  0  0  0  0  0
    2.1770    3.6930  -23.7540 C   0  0  0  0  0  0  0  0  0  0  0  0
    1.3400    4.8040  -23.5110 C   0  0  0  0  0  0  0  0  0  0  0  0
    3.1080    6.0300  -22.8070 C   0  0  0  0  0  0  0  0  0  0  0  0
    3.5660    3.9020  -23.4010 C   0  0  0  0  0  0  0  0  0  0  0  0
    1.6590    2.5550  -24.4020 C   0  0  0  0  0  0  0  0  0  0  0  0
   -0.4750    3.3560  -24.3810 C   0  0  0  0  0  0  0  0  0  0  0  0
    0.0240    4.5960  -23.7990 C   0  0  0  0  0  0  0  0  0  0  0  0
   -1.9160    3.3420  -24.7820 C   0  0  0  0  0  0  0  0  0  0  0  0
    4.1770    1.4180  -23.0230 C   0  0  0  0  0  0  0  0  0  0  0  0
    5.0760    1.0990  -21.8380 C   0  0  2  0  0  0  0  0  0  0  0  0
    6.6750    2.6360  -22.3650 C   0  0  2  0  0  0  0  0  0  0  0  0
    5.0140    2.1310  -20.7000 C   0  0  0  0  0  0  0  0  0  0  0  0
   -2.1970    3.4610  -26.2230 C   0  0  0  0  0  0  0  0  0  0  0  0
   -1.5890    2.8240  -21.8100 C   0  0  0  0  0  0  0  0  0  0  0  0
   -0.5730    2.4970  -21.2630 C   0  0  0  0  0  0  0  0  0  0  0  0
   -0.8350    5.6430  -23.5100 F   0  0  0  0  0  0  0  0  0  0  0  0
   -3.8240    3.1380  -20.3600 F   0  0  0  0  0  0  0  0  0  0  0  0
    1.7930    5.9800  -22.9960 N   0  0  0  0  0  0  0  0  0  0  0  0
    4.0170    5.0680  -22.9720 N   0  0  0  0  0  0  0  0  0  0  0  0
    0.3640    2.4480  -24.7460 N   0  0  0  0  0  0  0  0  0  0  0  0
    4.4960    2.8570  -23.5210 N   0  0  0  0  0  0  0  0  0  0  0  0
    6.4970    1.1630  -22.2770 N   0  0  0  0  0  0  0  0  0  0  0  0
   -3.6670    3.6000  -28.0310 O   0  0  0  0  0  0  0  0  0  0  0  0
    6.4050   11.0760  -20.8490 O   0  0  0  0  0  0  0  0  0  0  0  0
    4.3960    7.2660  -21.0540 N   0  0  0  0  0  0  0  0  0  0  0  0
    5.1710    8.4780  -20.5910 C   0  0  0  0  0  0  0  0  0  0  0  0
    6.4830    8.6810  -21.3810 C   0  0  0  0  0  0  0  0  0  0  0  0
    4.3350    9.7750  -20.6130 C   0  0  0  0  0  0  0  0  0  0  0  0
    5.1960   10.9340  -20.0750 C   0  0  0  0  0  0  0  0  0  0  0  0
    7.2310    9.8960  -20.7980 C   0  0  0  0  0  0  0  0  0  0  0  0
    3.6440    7.3850  -22.3570 C   0  0  0  0  0  0  0  0  0  0  0  0
  1  2  2  0
  1  3  1  0
  2  6  1  0
  3  5  2  0
  3 27  1  0
  4  5  1  0
  4  6  2  0
  4 18  1  0
  5 24  1  0
  6 10  1  0
  7 10  2  0
  7 23  1  0
  7 33  1  0
 21  8  1  1
  8 22  1  0
  9 21  1  0
  9 31  1  0
 11 12  1  0
 11 14  1  0
 11 15  2  0
 12 17  2  0
 12 28  1  0
 13 28  2  0
 13 29  1  0
 13 41  1  0
 14 29  2  0
 14 31  1  0
 15 30  1  0
 16 17  1  0
 16 18  1  0
 16 30  2  0
 17 26  1  0
 18 23  2  0
 20 19  1  6
 19 31  1  0
 20 22  1  0
 20 32  1  0
 21 32  1  0
 24 25  3  0
 34 39  1  0
 34 40  1  0
 35 36  1  0
 35 41  1  0
 36 37  1  0
 36 38  1  0
 37 40  1  0
 38 39  1  0
M  CHG  1  35   1
M  END
>  <s_m_entry_id>  (55) 
357

>  <s_m_entry_name>  (55) 
000000199.1

>  <s_m_Source_Path>  (55) 
/Users/zaksoul/Documents/3r_UNI/2nd_SEMESTER/BSC/FRAG_RECON/RESULTS/2

>  <s_m_Source_File>  (55) 
000000199.mol2

>  <i_m_Source_File_Index>  (55) 
1

$$$$
No_0_213,No_0_214,No_0_215,No_0_216,No_0_217,No_0_218,No_0_219,No_0_220
     RDKit          3D

 40 46  0  0  1  0  0  0  0  0999 V2000
   -4.8950    3.3860  -21.8820 C   0  0  0  0  0  0  0  0  0  0  0  0
   -5.1760    3.5530  -23.2170 C   0  0  0  0  0  0  0  0  0  0  0  0
   -3.6570    3.1150  -21.5530 C   0  0  0  0  0  0  0  0  0  0  0  0
   -2.7950    3.1780  -23.7330 C   0  0  0  0  0  0  0  0  0  0  0  0
   -2.6190    2.9600  -22.3100 C   0  0  0  0  0  0  0  0  0  0  0  0
   -4.1440    3.4570  -24.2400 C   0  0  0  0  0  0  0  0  0  0  0  0
   -3.4200    3.4180  -26.4490 C   0  0  0  0  0  0  0  0  0  0  0  0
    6.3660    2.5940  -21.3030 C   0  0  0  0  0  0  0  0  0  0  0  0
    6.1950    2.6860  -23.8530 C   0  0  0  0  0  0  0  0  0  0  0  0
   -4.4110    3.5620  -25.5750 C   0  0  0  0  0  0  0  0  0  0  0  0
    2.4220    3.3110  -23.8300 C   0  0  0  0  0  0  0  0  0  0  0  0
    1.6280    4.4420  -23.5430 C   0  0  0  0  0  0  0  0  0  0  0  0
    3.4590    5.6140  -22.9130 C   0  0  0  0  0  0  0  0  0  0  0  0
    3.8300    3.4790  -23.5400 C   0  0  0  0  0  0  0  0  0  0  0  0
    1.8440    2.1920  -24.4600 C   0  0  0  0  0  0  0  0  0  0  0  0
   -0.2650    3.0510  -24.3370 C   0  0  0  0  0  0  0  0  0  0  0  0
    0.2950    4.2720  -23.7710 C   0  0  0  0  0  0  0  0  0  0  0  0
   -1.7220    3.0790  -24.6720 C   0  0  0  0  0  0  0  0  0  0  0  0
    4.3890    0.9760  -23.2040 C   0  0  0  0  0  0  0  0  0  0  0  0
    5.3320    0.6250  -22.0630 C   0  0  2  0  0  0  0  0  0  0  0  0
    6.9480    2.1210  -22.6540 C   0  0  2  0  0  0  0  0  0  0  0  0
    5.3500    1.6510  -20.9170 C   0  0  0  0  0  0  0  0  0  0  0  0
   -2.0650    3.2160  -26.0980 C   0  0  0  0  0  0  0  0  0  0  0  0
   -1.2750    2.5320  -21.7210 C   0  0  0  0  0  0  0  0  0  0  0  0
   -0.2440    2.1730  -21.2220 C   0  0  0  0  0  0  0  0  0  0  0  0
   -0.5210    5.3410  -23.4370 F   0  0  0  0  0  0  0  0  0  0  0  0
   -3.4320    2.8970  -20.1690 F   0  0  0  0  0  0  0  0  0  0  0  0
    2.1360    5.6020  -23.0420 N   0  0  0  0  0  0  0  0  0  0  0  0
    4.3330    4.6290  -23.1250 N   0  0  0  0  0  0  0  0  0  0  0  0
    0.5320    2.1230  -24.7450 N   0  0  0  0  0  0  0  0  0  0  0  0
    4.7240    2.4090  -23.7080 N   0  0  0  0  0  0  0  0  0  0  0  0
    6.7320    0.6530  -22.5660 N   0  0  0  0  0  0  0  0  0  0  0  0
   -3.6120    3.4070  -27.8360 O   0  0  0  0  0  0  0  0  0  0  0  0
    3.4520    7.4140  -21.1740 N   0  0  0  0  0  0  0  0  0  0  0  0
    5.5920    7.9060  -19.9310 C   0  0  0  0  0  0  0  0  0  0  0  0
    4.4720    9.7260  -21.2420 C   0  0  0  0  0  0  0  0  0  0  0  0
    4.2170    8.4570  -20.3900 C   0  0  0  0  0  0  0  0  0  0  0  0
    4.0520    6.9510  -22.4810 C   0  0  0  0  0  0  0  0  0  0  0  0
    5.9480    9.6210  -21.5030 C   0  0  0  0  0  0  0  0  0  0  0  0
    6.5340    8.6710  -20.8170 C   0  0  0  0  0  0  0  0  0  0  0  0
  1  2  2  0
  1  3  1  0
  2  6  1  0
  3  5  2  0
  3 27  1  0
  4  5  1  0
  4  6  2  0
  4 18  1  0
  5 24  1  0
  6 10  1  0
  7 10  2  0
  7 23  1  0
  7 33  1  0
 21  8  1  1
  8 22  1  0
  9 21  1  0
  9 31  1  0
 11 12  1  0
 11 14  1  0
 11 15  2  0
 12 17  2  0
 12 28  1  0
 13 28  2  0
 13 29  1  0
 13 38  1  0
 14 29  2  0
 14 31  1  0
 15 30  1  0
 16 17  1  0
 16 18  1  0
 16 30  2  0
 17 26  1  0
 18 23  2  0
 20 19  1  6
 19 31  1  0
 20 22  1  0
 20 32  1  0
 21 32  1  0
 24 25  3  0
 34 37  1  0
 34 38  1  0
 35 37  1  0
 35 40  1  0
 36 37  1  0
 36 39  1  0
 39 40  2  0
M  CHG  1  34   1
M  END
>  <s_m_entry_id>  (56) 
359

>  <s_m_entry_name>  (56) 
000000201.1

>  <s_m_Source_Path>  (56) 
/Users/zaksoul/Documents/3r_UNI/2nd_SEMESTER/BSC/FRAG_RECON/RESULTS/2

>  <s_m_Source_File>  (56) 
000000201.mol2

>  <i_m_Source_File_Index>  (56) 
1

$$$$
No_0_221,No_0_222,No_0_223,No_0_224,No_0_225,No_0_226,No_0_227,No_0_228
     RDKit          3D

 40 46  0  0  1  0  0  0  0  0999 V2000
   -5.3870    3.8560  -22.4310 C   0  0  0  0  0  0  0  0  0  0  0  0
   -5.6030    4.0310  -23.7770 C   0  0  0  0  0  0  0  0  0  0  0  0
   -4.1680    3.5750  -22.0450 C   0  0  0  0  0  0  0  0  0  0  0  0
   -3.2020    3.6440  -24.1810 C   0  0  0  0  0  0  0  0  0  0  0  0
   -3.0950    3.4170  -22.7530 C   0  0  0  0  0  0  0  0  0  0  0  0
   -4.5240    3.9350  -24.7510 C   0  0  0  0  0  0  0  0  0  0  0  0
   -3.6970    3.9020  -26.9230 C   0  0  0  0  0  0  0  0  0  0  0  0
    5.8300    2.9880  -21.3260 C   0  0  0  0  0  0  0  0  0  0  0  0
    5.7790    3.0950  -23.8800 C   0  0  0  0  0  0  0  0  0  0  0  0
   -4.7280    4.0480  -26.0950 C   0  0  0  0  0  0  0  0  0  0  0  0
    2.0140    3.7440  -24.0320 C   0  0  0  0  0  0  0  0  0  0  0  0
    1.2140    4.8790  -23.7760 C   0  0  0  0  0  0  0  0  0  0  0  0
    3.0210    6.0360  -23.0540 C   0  0  0  0  0  0  0  0  0  0  0  0
    3.4080    3.9020  -23.6750 C   0  0  0  0  0  0  0  0  0  0  0  0
    1.4590    2.6320  -24.6940 C   0  0  0  0  0  0  0  0  0  0  0  0
   -0.6480    3.5040  -24.6670 C   0  0  0  0  0  0  0  0  0  0  0  0
   -0.1080    4.7180  -24.0680 C   0  0  0  0  0  0  0  0  0  0  0  0
   -2.0880    3.5430  -25.0690 C   0  0  0  0  0  0  0  0  0  0  0  0
    3.9350    1.3930  -23.3270 C   0  0  0  0  0  0  0  0  0  0  0  0
    4.8200    1.0300  -22.1440 C   0  0  2  0  0  0  0  0  0  0  0  0
    6.4710    2.5190  -22.6500 C   0  0  2  0  0  0  0  0  0  0  0  0
    4.7910    2.0500  -20.9930 C   0  0  0  0  0  0  0  0  0  0  0  0
   -2.3610    3.6890  -26.5090 C   0  0  0  0  0  0  0  0  0  0  0  0
   -1.7830    2.9770  -22.1040 C   0  0  0  0  0  0  0  0  0  0  0  0
   -0.7800    2.6100  -21.5590 C   0  0  0  0  0  0  0  0  0  0  0  0
   -0.9320    5.7910  -23.7670 F   0  0  0  0  0  0  0  0  0  0  0  0
   -4.0090    3.3480  -20.6530 F   0  0  0  0  0  0  0  0  0  0  0  0
    1.7050    6.0320  -23.2460 N   0  0  0  0  0  0  0  0  0  0  0  0
    3.8970    5.0460  -23.2300 N   0  0  0  0  0  0  0  0  0  0  0  0
    0.1610    2.5730  -25.0420 N   0  0  0  0  0  0  0  0  0  0  0  0
    4.3020    2.8270  -23.8060 N   0  0  0  0  0  0  0  0  0  0  0  0
    6.2430    1.0520  -22.5810 N   0  0  0  0  0  0  0  0  0  0  0  0
   -3.8240    3.9000  -28.3170 O   0  0  0  0  0  0  0  0  0  0  0  0
    3.5370    7.4650  -21.0840 N   0  0  0  0  0  0  0  0  0  0  0  0
    4.7110    9.7190  -21.2910 N   0  0  0  0  0  0  0  0  0  0  0  0
    5.4640    8.2310  -19.7880 N   0  0  0  0  0  0  0  0  0  0  0  0
    4.2090    8.6470  -20.4220 C   0  0  0  0  0  0  0  0  0  0  0  0
    3.6010    7.3670  -22.5870 C   0  0  0  0  0  0  0  0  0  0  0  0
    6.5000    9.0100  -20.2170 C   0  0  0  0  0  0  0  0  0  0  0  0
    6.0580    9.8740  -21.1270 C   0  0  0  0  0  0  0  0  0  0  0  0
  1  2  2  0
  1  3  1  0
  2  6  1  0
  3  5  2  0
  3 27  1  0
  4  5  1  0
  4  6  2  0
  4 18  1  0
  5 24  1  0
  6 10  1  0
  7 10  2  0
  7 23  1  0
  7 33  1  0
 21  8  1  1
  8 22  1  0
  9 21  1  0
  9 31  1  0
 11 12  1  0
 11 14  1  0
 11 15  2  0
 12 17  2  0
 12 28  1  0
 13 28  2  0
 13 29  1  0
 13 38  1  0
 14 29  2  0
 14 31  1  0
 15 30  1  0
 16 17  1  0
 16 18  1  0
 16 30  2  0
 17 26  1  0
 18 23  2  0
 20 19  1  6
 19 31  1  0
 20 22  1  0
 20 32  1  0
 21 32  1  0
 24 25  3  0
 34 37  1  0
 34 38  1  0
 35 37  1  0
 35 40  1  0
 36 37  1  0
 36 39  1  0
 39 40  2  0
M  CHG  1  34   1
M  END
>  <s_m_entry_id>  (57) 
367

>  <s_m_entry_name>  (57) 
000000209.1

>  <s_m_Source_Path>  (57) 
/Users/zaksoul/Documents/3r_UNI/2nd_SEMESTER/BSC/FRAG_RECON/RESULTS/2

>  <s_m_Source_File>  (57) 
000000209.mol2

>  <i_m_Source_File_Index>  (57) 
1

$$$$
No_0_229,No_0_230,No_0_231,No_0_232
     RDKit          3D

 40 46  0  0  1  0  0  0  0  0999 V2000
   -5.2240    3.6590  -22.0160 C   0  0  0  0  0  0  0  0  0  0  0  0
   -5.4840    3.8460  -23.3530 C   0  0  0  0  0  0  0  0  0  0  0  0
   -3.9890    3.3970  -21.6710 C   0  0  0  0  0  0  0  0  0  0  0  0
   -3.0890    3.5110  -23.8330 C   0  0  0  0  0  0  0  0  0  0  0  0
   -2.9350    3.2690  -22.4120 C   0  0  0  0  0  0  0  0  0  0  0  0
   -4.4320    3.7830  -24.3600 C   0  0  0  0  0  0  0  0  0  0  0  0
   -3.6690    3.7930  -26.5550 C   0  0  0  0  0  0  0  0  0  0  0  0
    6.0350    3.0010  -21.2530 C   0  0  0  0  0  0  0  0  0  0  0  0
    5.9070    3.1380  -23.8030 C   0  0  0  0  0  0  0  0  0  0  0  0
   -4.6780    3.9090  -25.6960 C   0  0  0  0  0  0  0  0  0  0  0  0
    2.1260    3.7130  -23.8360 C   0  0  0  0  0  0  0  0  0  0  0  0
    1.3120    4.8290  -23.5420 C   0  0  0  0  0  0  0  0  0  0  0  0
    3.1170    6.0130  -22.8590 C   0  0  0  0  0  0  0  0  0  0  0  0
    3.5270    3.8950  -23.5180 C   0  0  0  0  0  0  0  0  0  0  0  0
    1.5740    2.5990  -24.4960 C   0  0  0  0  0  0  0  0  0  0  0  0
   -0.5470    3.4280  -24.3950 C   0  0  0  0  0  0  0  0  0  0  0  0
   -0.0140    4.6460  -23.7970 C   0  0  0  0  0  0  0  0  0  0  0  0
   -1.9990    3.4440  -24.7550 C   0  0  0  0  0  0  0  0  0  0  0  0
    4.1130    1.3930  -23.2180 C   0  0  0  0  0  0  0  0  0  0  0  0
    5.0400    1.0330  -22.0670 C   0  0  2  0  0  0  0  0  0  0  0  0
    6.6460    2.5610  -22.6010 C   0  0  2  0  0  0  0  0  0  0  0  0
    5.0250    2.0380  -20.9020 C   0  0  0  0  0  0  0  0  0  0  0  0
   -2.3180    3.6020  -26.1840 C   0  0  0  0  0  0  0  0  0  0  0  0
   -1.5960    2.8480  -21.8070 C   0  0  0  0  0  0  0  0  0  0  0  0
   -0.5700    2.4940  -21.2970 C   0  0  0  0  0  0  0  0  0  0  0  0
   -0.8490    5.6980  -23.4580 F   0  0  0  0  0  0  0  0  0  0  0  0
   -3.7850    3.1570  -20.2870 F   0  0  0  0  0  0  0  0  0  0  0  0
    1.7960    5.9850  -23.0120 N   0  0  0  0  0  0  0  0  0  0  0  0
    4.0070    5.0430  -23.0730 N   0  0  0  0  0  0  0  0  0  0  0  0
    0.2680    2.5180  -24.8060 N   0  0  0  0  0  0  0  0  0  0  0  0
    4.4380    2.8390  -23.6890 N   0  0  0  0  0  0  0  0  0  0  0  0
    6.4490    1.0890  -22.5440 N   0  0  0  0  0  0  0  0  0  0  0  0
   -3.8370    3.8060  -27.9460 O   0  0  0  0  0  0  0  0  0  0  0  0
    4.0120    7.3130  -20.9220 N   0  0  0  0  0  0  0  0  0  0  0  0
    6.1080    8.5850  -21.1840 N   0  0  0  0  0  0  0  0  0  0  0  0
    4.2730    9.7780  -20.8670 N   0  0  0  0  0  0  0  0  0  0  0  0
    4.8310    8.4710  -20.4300 C   0  0  0  0  0  0  0  0  0  0  0  0
    3.6850    7.3490  -22.3920 C   0  0  0  0  0  0  0  0  0  0  0  0
    5.0270   10.4360  -21.6660 C   0  0  0  0  0  0  0  0  0  0  0  0
    6.2240    9.6580  -21.8730 C   0  0  0  0  0  0  0  0  0  0  0  0
  1  2  2  0
  1  3  1  0
  2  6  1  0
  3  5  2  0
  3 27  1  0
  4  5  1  0
  4  6  2  0
  4 18  1  0
  5 24  1  0
  6 10  1  0
  7 10  2  0
  7 23  1  0
  7 33  1  0
 21  8  1  1
  8 22  1  0
  9 21  1  0
  9 31  1  0
 11 12  1  0
 11 14  1  0
 11 15  2  0
 12 17  2  0
 12 28  1  0
 13 28  2  0
 13 29  1  0
 13 38  1  0
 14 29  2  0
 14 31  1  0
 15 30  1  0
 16 17  1  0
 16 18  1  0
 16 30  2  0
 17 26  1  0
 18 23  2  0
 20 19  1  6
 19 31  1  0
 20 22  1  0
 20 32  1  0
 21 32  1  0
 24 25  3  0
 34 37  1  0
 34 38  1  0
 35 37  1  0
 35 40  2  0
 36 37  1  0
 36 39  2  0
 39 40  1  0
M  END
>  <s_m_entry_id>  (58) 
375

>  <s_m_entry_name>  (58) 
000000217.1

>  <s_m_Source_Path>  (58) 
/Users/zaksoul/Documents/3r_UNI/2nd_SEMESTER/BSC/FRAG_RECON/RESULTS/2

>  <s_m_Source_File>  (58) 
000000217.mol2

>  <i_m_Source_File_Index>  (58) 
1

$$$$
No_0_233
     RDKit          3D

 41 47  0  0  1  0  0  0  0  0999 V2000
   -5.4570    3.6130  -21.9130 C   0  0  0  0  0  0  0  0  0  0  0  0
   -5.7010    3.7970  -23.2530 C   0  0  0  0  0  0  0  0  0  0  0  0
   -4.2290    3.3370  -21.5530 C   0  0  0  0  0  0  0  0  0  0  0  0
   -3.3060    3.4270  -23.7070 C   0  0  0  0  0  0  0  0  0  0  0  0
   -3.1700    3.1910  -22.2830 C   0  0  0  0  0  0  0  0  0  0  0  0
   -4.6410    3.7140  -24.2490 C   0  0  0  0  0  0  0  0  0  0  0  0
   -3.8560    3.7030  -26.4360 C   0  0  0  0  0  0  0  0  0  0  0  0
    5.7840    2.8050  -21.0330 C   0  0  0  0  0  0  0  0  0  0  0  0
    5.6830    2.9300  -23.5850 C   0  0  0  0  0  0  0  0  0  0  0  0
   -4.8710    3.8370  -25.5880 C   0  0  0  0  0  0  0  0  0  0  0  0
    1.9110    3.5580  -23.6590 C   0  0  0  0  0  0  0  0  0  0  0  0
    1.1100    4.6860  -23.3790 C   0  0  0  0  0  0  0  0  0  0  0  0
    2.9230    5.8480  -22.6830 C   0  0  0  0  0  0  0  0  0  0  0  0
    3.3110    3.7210  -23.3280 C   0  0  0  0  0  0  0  0  0  0  0  0
    1.3500    2.4470  -24.3190 C   0  0  0  0  0  0  0  0  0  0  0  0
   -0.7610    3.3060  -24.2430 C   0  0  0  0  0  0  0  0  0  0  0  0
   -0.2170    4.5200  -23.6460 C   0  0  0  0  0  0  0  0  0  0  0  0
   -2.2090    3.3400  -24.6180 C   0  0  0  0  0  0  0  0  0  0  0  0
    3.8590    1.2140  -23.0090 C   0  0  0  0  0  0  0  0  0  0  0  0
    4.7700    0.8470  -21.8470 C   0  0  2  0  0  0  0  0  0  0  0  0
    6.4020    2.3500  -22.3730 C   0  0  2  0  0  0  0  0  0  0  0  0
    4.7570    1.8570  -20.6880 C   0  0  0  0  0  0  0  0  0  0  0  0
   -2.5110    3.4950  -26.0510 C   0  0  0  0  0  0  0  0  0  0  0  0
   -1.8430    2.7540  -21.6630 C   0  0  0  0  0  0  0  0  0  0  0  0
   -0.8270    2.3880  -21.1410 C   0  0  0  0  0  0  0  0  0  0  0  0
   -1.0410    5.5850  -23.3210 F   0  0  0  0  0  0  0  0  0  0  0  0
   -4.0430    3.1000  -20.1670 F   0  0  0  0  0  0  0  0  0  0  0  0
    1.6040    5.8380  -22.8490 N   0  0  0  0  0  0  0  0  0  0  0  0
    3.8020    4.8650  -22.8840 N   0  0  0  0  0  0  0  0  0  0  0  0
    0.0460    2.3830  -24.6410 N   0  0  0  0  0  0  0  0  0  0  0  0
    4.2090    2.6530  -23.4840 N   0  0  0  0  0  0  0  0  0  0  0  0
    6.1840    0.8810  -22.3110 N   0  0  0  0  0  0  0  0  0  0  0  0
   -4.0090    3.7110  -27.8280 O   0  0  0  0  0  0  0  0  0  0  0  0
    4.7470    6.9680  -21.3870 N   0  0  0  0  0  0  0  0  0  0  0  0
    5.6480    8.1600  -21.1480 C   0  0  0  0  0  0  0  0  0  0  0  0
    4.4920   10.2550  -21.7220 C   0  0  0  0  0  0  0  0  0  0  0  0
    5.5180    9.9800  -22.8350 C   0  0  0  0  0  0  0  0  0  0  0  0
    3.5050    7.1790  -22.2170 C   0  0  0  0  0  0  0  0  0  0  0  0
    6.2630    8.6810  -22.4650 C   0  0  0  0  0  0  0  0  0  0  0  0
    4.8950    9.3600  -20.5380 C   0  0  0  0  0  0  0  0  0  0  0  0
    6.7740    7.7160  -20.1900 C   0  0  0  0  0  0  0  0  0  0  0  0
  1  2  2  0
  1  3  1  0
  2  6  1  0
  3  5  2  0
  3 27  1  0
  4  5  1  0
  4  6  2  0
  4 18  1  0
  5 24  1  0
  6 10  1  0
  7 10  2  0
  7 23  1  0
  7 33  1  0
 21  8  1  1
  8 22  1  0
  9 21  1  0
  9 31  1  0
 11 12  1  0
 11 14  1  0
 11 15  2  0
 12 17  2  0
 12 28  1  0
 13 28  2  0
 13 29  1  0
 13 38  1  0
 14 29  2  0
 14 31  1  0
 15 30  1  0
 16 17  1  0
 16 18  1  0
 16 30  2  0
 17 26  1  0
 18 23  2  0
 20 19  1  6
 19 31  1  0
 20 22  1  0
 20 32  1  0
 21 32  1  0
 24 25  3  0
 34 35  1  0
 34 38  1  0
 35 39  1  0
 35 40  1  0
 35 41  1  0
 36 37  1  0
 36 40  1  0
 37 39  1  0
M  CHG  1  34   1
M  END
>  <s_m_entry_id>  (59) 
379

>  <s_m_entry_name>  (59) 
000000221.1

>  <s_m_Source_Path>  (59) 
/Users/zaksoul/Documents/3r_UNI/2nd_SEMESTER/BSC/FRAG_RECON/RESULTS/2

>  <s_m_Source_File>  (59) 
000000221.mol2

>  <i_m_Source_File_Index>  (59) 
1

$$$$
No_0_234,No_0_235,No_0_236
     RDKit          3D

 43 49  0  0  1  0  0  0  0  0999 V2000
   -5.3910    3.3410  -22.1670 C   0  0  0  0  0  0  0  0  0  0  0  0
   -5.6460    3.5550  -23.5010 C   0  0  0  0  0  0  0  0  0  0  0  0
   -4.1550    3.0820  -21.8200 C   0  0  0  0  0  0  0  0  0  0  0  0
   -3.2460    3.2500  -23.9750 C   0  0  0  0  0  0  0  0  0  0  0  0
   -3.0970    2.9780  -22.5580 C   0  0  0  0  0  0  0  0  0  0  0  0
   -4.5890    3.5220  -24.5030 C   0  0  0  0  0  0  0  0  0  0  0  0
   -3.8150    3.5860  -26.6940 C   0  0  0  0  0  0  0  0  0  0  0  0
    5.8690    2.7540  -21.3600 C   0  0  0  0  0  0  0  0  0  0  0  0
    5.7520    2.9460  -23.9080 C   0  0  0  0  0  0  0  0  0  0  0  0
   -4.8290    3.6750  -25.8380 C   0  0  0  0  0  0  0  0  0  0  0  0
    1.9680    3.4920  -23.9470 C   0  0  0  0  0  0  0  0  0  0  0  0
    1.1430    4.5950  -23.6340 C   0  0  0  0  0  0  0  0  0  0  0  0
    2.9350    5.7780  -22.9160 C   0  0  0  0  0  0  0  0  0  0  0  0
    3.3650    3.6780  -23.6180 C   0  0  0  0  0  0  0  0  0  0  0  0
    1.4270    2.3880  -24.6340 C   0  0  0  0  0  0  0  0  0  0  0  0
   -0.7010    3.1980  -24.5260 C   0  0  0  0  0  0  0  0  0  0  0  0
   -0.1800    4.4070  -23.8990 C   0  0  0  0  0  0  0  0  0  0  0  0
   -2.1510    3.2100  -24.8930 C   0  0  0  0  0  0  0  0  0  0  0  0
    3.9690    1.1750  -23.3690 C   0  0  0  0  0  0  0  0  0  0  0  0
    4.8940    0.7970  -22.2210 C   0  0  2  0  0  0  0  0  0  0  0  0
    6.4900    2.3490  -22.7150 C   0  0  2  0  0  0  0  0  0  0  0  0
    4.8650    1.7760  -21.0360 C   0  0  0  0  0  0  0  0  0  0  0  0
   -2.4640    3.3970  -26.3200 C   0  0  0  0  0  0  0  0  0  0  0  0
   -1.7580    2.5540  -21.9570 C   0  0  0  0  0  0  0  0  0  0  0  0
   -0.7310    2.1970  -21.4490 C   0  0  0  0  0  0  0  0  0  0  0  0
   -1.0250    5.4450  -23.5420 F   0  0  0  0  0  0  0  0  0  0  0  0
   -3.9570    2.8130  -20.4410 F   0  0  0  0  0  0  0  0  0  0  0  0
    1.6150    5.7430  -23.0760 N   0  0  0  0  0  0  0  0  0  0  0  0
    3.8340    4.8200  -23.1470 N   0  0  0  0  0  0  0  0  0  0  0  0
    0.1240    2.3040  -24.9520 N   0  0  0  0  0  0  0  0  0  0  0  0
    4.2850    2.6340  -23.8080 N   0  0  0  0  0  0  0  0  0  0  0  0
    6.3040    0.8740  -22.6910 N   0  0  0  0  0  0  0  0  0  0  0  0
   -3.9760    3.6270  -28.0840 O   0  0  0  0  0  0  0  0  0  0  0  0
    4.1990   10.2200  -20.7220 O   0  0  0  0  0  0  0  0  0  0  0  0
    4.7400    6.8930  -21.6000 N   0  0  0  0  0  0  0  0  0  0  0  0
    3.6050    8.4510  -19.4470 N   0  0  0  0  0  0  0  0  0  0  0  0
    5.3830    8.1280  -21.0060 C   0  0  0  0  0  0  0  0  0  0  0  0
    7.7110    7.3770  -20.7570 C   0  0  0  0  0  0  0  0  0  0  0  0
    7.6210    8.1840  -22.0650 C   0  0  0  0  0  0  0  0  0  0  0  0
    3.4900    7.1080  -22.4170 C   0  0  0  0  0  0  0  0  0  0  0  0
    6.2420    8.8720  -22.0520 C   0  0  0  0  0  0  0  0  0  0  0  0
    6.4480    7.7400  -19.9600 C   0  0  0  0  0  0  0  0  0  0  0  0
    4.3460    9.0530  -20.3900 C   0  0  0  0  0  0  0  0  0  0  0  0
  1  2  2  0
  1  3  1  0
  2  6  1  0
  3  5  2  0
  3 27  1  0
  4  5  1  0
  4  6  2  0
  4 18  1  0
  5 24  1  0
  6 10  1  0
  7 10  2  0
  7 23  1  0
  7 33  1  0
 21  8  1  1
  8 22  1  0
  9 21  1  0
  9 31  1  0
 11 12  1  0
 11 14  1  0
 11 15  2  0
 12 17  2  0
 12 28  1  0
 13 28  2  0
 13 29  1  0
 13 40  1  0
 14 29  2  0
 14 31  1  0
 15 30  1  0
 16 17  1  0
 16 18  1  0
 16 30  2  0
 17 26  1  0
 18 23  2  0
 20 19  1  6
 19 31  1  0
 20 22  1  0
 20 32  1  0
 21 32  1  0
 24 25  3  0
 34 43  2  0
 35 37  1  0
 35 40  1  0
 36 43  1  0
 37 41  1  0
 37 42  1  0
 37 43  1  0
 38 39  1  0
 38 42  1  0
 39 41  1  0
M  END
>  <s_m_entry_id>  (60) 
380

>  <s_m_entry_name>  (60) 
000000222.1

>  <s_m_Source_Path>  (60) 
/Users/zaksoul/Documents/3r_UNI/2nd_SEMESTER/BSC/FRAG_RECON/RESULTS/2

>  <s_m_Source_File>  (60) 
000000222.mol2

>  <i_m_Source_File_Index>  (60) 
1

$$$$
No_0_237
     RDKit          3D

 41 47  0  0  1  0  0  0  0  0999 V2000
   -5.4690    3.3430  -21.9170 C   0  0  0  0  0  0  0  0  0  0  0  0
   -5.7100    3.5630  -23.2530 C   0  0  0  0  0  0  0  0  0  0  0  0
   -4.2390    3.0710  -21.5610 C   0  0  0  0  0  0  0  0  0  0  0  0
   -3.3100    3.2340  -23.7090 C   0  0  0  0  0  0  0  0  0  0  0  0
   -3.1750    2.9580  -22.2910 C   0  0  0  0  0  0  0  0  0  0  0  0
   -4.6460    3.5210  -24.2460 C   0  0  0  0  0  0  0  0  0  0  0  0
   -3.8540    3.5810  -26.4310 C   0  0  0  0  0  0  0  0  0  0  0  0
    5.7780    2.6400  -21.0210 C   0  0  0  0  0  0  0  0  0  0  0  0
    5.6840    2.8380  -23.5680 C   0  0  0  0  0  0  0  0  0  0  0  0
   -4.8730    3.6790  -25.5830 C   0  0  0  0  0  0  0  0  0  0  0  0
    1.9050    3.4230  -23.6370 C   0  0  0  0  0  0  0  0  0  0  0  0
    1.0900    4.5330  -23.3280 C   0  0  0  0  0  0  0  0  0  0  0  0
    2.8880    5.6970  -22.5930 C   0  0  0  0  0  0  0  0  0  0  0  0
    3.3020    3.5940  -23.2970 C   0  0  0  0  0  0  0  0  0  0  0  0
    1.3600    2.3260  -24.3310 C   0  0  0  0  0  0  0  0  0  0  0  0
   -0.7610    3.1580  -24.2390 C   0  0  0  0  0  0  0  0  0  0  0  0
   -0.2330    4.3600  -23.6050 C   0  0  0  0  0  0  0  0  0  0  0  0
   -2.2080    3.1850  -24.6170 C   0  0  0  0  0  0  0  0  0  0  0  0
    3.8790    1.0840  -23.0480 C   0  0  0  0  0  0  0  0  0  0  0  0
    4.7890    0.6950  -21.8940 C   0  0  2  0  0  0  0  0  0  0  0  0
    6.4060    2.2310  -22.3710 C   0  0  2  0  0  0  0  0  0  0  0  0
    4.7610    1.6720  -20.7060 C   0  0  0  0  0  0  0  0  0  0  0  0
   -2.5080    3.3780  -26.0460 C   0  0  0  0  0  0  0  0  0  0  0  0
   -1.8450    2.5190  -21.6790 C   0  0  0  0  0  0  0  0  0  0  0  0
   -0.8270    2.1500  -21.1640 C   0  0  0  0  0  0  0  0  0  0  0  0
   -1.0710    5.4050  -23.2520 F   0  0  0  0  0  0  0  0  0  0  0  0
   -4.0540    2.7970  -20.1810 F   0  0  0  0  0  0  0  0  0  0  0  0
    1.5690    5.6760  -22.7640 N   0  0  0  0  0  0  0  0  0  0  0  0
    3.7780    4.7300  -22.8190 N   0  0  0  0  0  0  0  0  0  0  0  0
    0.0580    2.2560  -24.6600 N   0  0  0  0  0  0  0  0  0  0  0  0
    4.2130    2.5410  -23.4810 N   0  0  0  0  0  0  0  0  0  0  0  0
    6.2050    0.7590  -22.3510 N   0  0  0  0  0  0  0  0  0  0  0  0
   -4.0030    3.6270  -27.8230 O   0  0  0  0  0  0  0  0  0  0  0  0
    4.9530    6.9230  -21.9320 N   0  0  0  0  0  0  0  0  0  0  0  0
    5.7150    8.1350  -21.4410 C   0  0  0  0  0  0  0  0  0  0  0  0
    3.4520    7.0200  -22.0870 C   0  0  0  0  0  0  0  0  0  0  0  0
    4.7010   10.2720  -21.5720 C   0  0  0  0  0  0  0  0  0  0  0  0
    4.5390    9.8690  -20.3360 C   0  0  0  0  0  0  0  0  0  0  0  0
    5.2290    8.5680  -20.0330 C   0  0  0  0  0  0  0  0  0  0  0  0
    5.5380    9.3400  -22.4020 C   0  0  0  0  0  0  0  0  0  0  0  0
    7.2110    7.7710  -21.3630 C   0  0  0  0  0  0  0  0  0  0  0  0
  1  2  2  0
  1  3  1  0
  2  6  1  0
  3  5  2  0
  3 27  1  0
  4  5  1  0
  4  6  2  0
  4 18  1  0
  5 24  1  0
  6 10  1  0
  7 10  2  0
  7 23  1  0
  7 33  1  0
 21  8  1  1
  8 22  1  0
  9 21  1  0
  9 31  1  0
 11 12  1  0
 11 14  1  0
 11 15  2  0
 12 17  2  0
 12 28  1  0
 13 28  2  0
 13 29  1  0
 13 36  1  0
 14 29  2  0
 14 31  1  0
 15 30  1  0
 16 17  1  0
 16 18  1  0
 16 30  2  0
 17 26  1  0
 18 23  2  0
 20 19  1  6
 19 31  1  0
 20 22  1  0
 20 32  1  0
 21 32  1  0
 24 25  3  0
 34 35  1  0
 34 36  1  0
 35 39  1  0
 35 40  1  0
 35 41  1  0
 37 38  2  0
 37 40  1  0
 38 39  1  0
M  CHG  1  34   1
M  END
>  <s_m_entry_id>  (61) 
383

>  <s_m_entry_name>  (61) 
000000225.1

>  <s_m_Source_Path>  (61) 
/Users/zaksoul/Documents/3r_UNI/2nd_SEMESTER/BSC/FRAG_RECON/RESULTS/2

>  <s_m_Source_File>  (61) 
000000225.mol2

>  <i_m_Source_File_Index>  (61) 
1

$$$$
No_0_238,No_0_239
     RDKit          3D

 42 48  0  0  1  0  0  0  0  0999 V2000
   -5.4160    3.5830  -21.7200 C   0  0  0  0  0  0  0  0  0  0  0  0
   -5.6860    3.7800  -23.0530 C   0  0  0  0  0  0  0  0  0  0  0  0
   -4.1770    3.3230  -21.3850 C   0  0  0  0  0  0  0  0  0  0  0  0
   -3.2940    3.4570  -23.5540 C   0  0  0  0  0  0  0  0  0  0  0  0
   -3.1280    3.2040  -22.1350 C   0  0  0  0  0  0  0  0  0  0  0  0
   -4.6420    3.7280  -24.0680 C   0  0  0  0  0  0  0  0  0  0  0  0
   -3.8960    3.7580  -26.2690 C   0  0  0  0  0  0  0  0  0  0  0  0
    5.8510    2.9560  -21.0460 C   0  0  0  0  0  0  0  0  0  0  0  0
    5.7030    3.1120  -23.5940 C   0  0  0  0  0  0  0  0  0  0  0  0
   -4.8980    3.8630  -25.4020 C   0  0  0  0  0  0  0  0  0  0  0  0
    1.9200    3.6760  -23.5940 C   0  0  0  0  0  0  0  0  0  0  0  0
    1.1050    4.7860  -23.2860 C   0  0  0  0  0  0  0  0  0  0  0  0
    2.9110    5.9710  -22.6070 C   0  0  0  0  0  0  0  0  0  0  0  0
    3.3230    3.8590  -23.2850 C   0  0  0  0  0  0  0  0  0  0  0  0
    1.3670    2.5640  -24.2590 C   0  0  0  0  0  0  0  0  0  0  0  0
   -0.7570    3.3860  -24.1350 C   0  0  0  0  0  0  0  0  0  0  0  0
   -0.2220    4.6010  -23.5320 C   0  0  0  0  0  0  0  0  0  0  0  0
   -2.2110    3.4000  -24.4840 C   0  0  0  0  0  0  0  0  0  0  0  0
    3.9190    1.3570  -23.0090 C   0  0  0  0  0  0  0  0  0  0  0  0
    4.8560    0.9920  -21.8670 C   0  0  2  0  0  0  0  0  0  0  0  0
    6.4530    2.5280  -22.4030 C   0  0  2  0  0  0  0  0  0  0  0  0
    4.8470    1.9870  -20.6950 C   0  0  0  0  0  0  0  0  0  0  0  0
   -2.5410    3.5680  -25.9100 C   0  0  0  0  0  0  0  0  0  0  0  0
   -1.7840    2.7820  -21.5440 C   0  0  0  0  0  0  0  0  0  0  0  0
   -0.7520    2.4280  -21.0440 C   0  0  0  0  0  0  0  0  0  0  0  0
   -1.0580    5.6480  -23.1790 F   0  0  0  0  0  0  0  0  0  0  0  0
   -3.9620    3.0730  -20.0050 F   0  0  0  0  0  0  0  0  0  0  0  0
    1.5890    5.9400  -22.7500 N   0  0  0  0  0  0  0  0  0  0  0  0
    3.8030    5.0050  -22.8360 N   0  0  0  0  0  0  0  0  0  0  0  0
    0.0590    2.4820  -24.5590 N   0  0  0  0  0  0  0  0  0  0  0  0
    4.2360    2.8080  -23.4710 N   0  0  0  0  0  0  0  0  0  0  0  0
    6.2610    1.0550  -22.3550 N   0  0  0  0  0  0  0  0  0  0  0  0
   -4.0740    3.7800  -27.6580 O   0  0  0  0  0  0  0  0  0  0  0  0
    5.0830    9.3880  -23.6520 O   0  0  0  0  0  0  0  0  0  0  0  0
    5.6840   10.8160  -21.9750 O   0  0  0  0  0  0  0  0  0  0  0  0
    4.9780    7.2210  -22.0090 N   0  0  0  0  0  0  0  0  0  0  0  0
    6.8430    8.4480  -19.9430 N   0  0  0  0  0  0  0  0  0  0  0  0
    7.1870    8.2220  -21.3400 C   0  0  0  0  0  0  0  0  0  0  0  0
    5.4240    8.7650  -20.0350 C   0  0  0  0  0  0  0  0  0  0  0  0
    5.4620    9.6490  -22.4570 C   0  0  0  0  0  0  0  0  0  0  0  0
    5.6730    8.4700  -21.5360 C   0  0  0  0  0  0  0  0  0  0  0  0
    3.4780    7.3050  -22.1340 C   0  0  0  0  0  0  0  0  0  0  0  0
  1  2  2  0
  1  3  1  0
  2  6  1  0
  3  5  2  0
  3 27  1  0
  4  5  1  0
  4  6  2  0
  4 18  1  0
  5 24  1  0
  6 10  1  0
  7 10  2  0
  7 23  1  0
  7 33  1  0
 21  8  1  1
  8 22  1  0
  9 21  1  0
  9 31  1  0
 11 12  1  0
 11 14  1  0
 11 15  2  0
 12 17  2  0
 12 28  1  0
 13 28  2  0
 13 29  1  0
 13 42  1  0
 14 29  2  0
 14 31  1  0
 15 30  1  0
 16 17  1  0
 16 18  1  0
 16 30  2  0
 17 26  1  0
 18 23  2  0
 20 19  1  6
 19 31  1  0
 20 22  1  0
 20 32  1  0
 21 32  1  0
 24 25  3  0
 34 40  1  0
 35 40  2  0
 36 41  1  0
 36 42  1  0
 37 38  1  0
 37 39  1  0
 38 41  1  0
 39 41  1  0
 40 41  1  0
M  CHG  2  34  -1  37   1
M  END
>  <s_m_entry_id>  (62) 
384

>  <s_m_entry_name>  (62) 
000000226.1

>  <s_m_Source_Path>  (62) 
/Users/zaksoul/Documents/3r_UNI/2nd_SEMESTER/BSC/FRAG_RECON/RESULTS/2

>  <s_m_Source_File>  (62) 
000000226.mol2

>  <i_m_Source_File_Index>  (62) 
1

$$$$
No_0_240,No_0_241,No_0_242,No_0_243,No_0_244
     RDKit          3D

 40 46  0  0  1  0  0  0  0  0999 V2000
   -5.2740    3.3800  -21.9160 C   0  0  0  0  0  0  0  0  0  0  0  0
   -5.5620    3.5310  -23.2520 C   0  0  0  0  0  0  0  0  0  0  0  0
   -4.0300    3.1390  -21.5880 C   0  0  0  0  0  0  0  0  0  0  0  0
   -3.1730    3.2080  -23.7700 C   0  0  0  0  0  0  0  0  0  0  0  0
   -2.9900    3.0030  -22.3460 C   0  0  0  0  0  0  0  0  0  0  0  0
   -4.5290    3.4530  -24.2760 C   0  0  0  0  0  0  0  0  0  0  0  0
   -3.8090    3.4170  -26.4860 C   0  0  0  0  0  0  0  0  0  0  0  0
    6.0030    2.8510  -21.3550 C   0  0  0  0  0  0  0  0  0  0  0  0
    5.8250    2.9230  -23.9050 C   0  0  0  0  0  0  0  0  0  0  0  0
   -4.8020    3.5430  -25.6110 C   0  0  0  0  0  0  0  0  0  0  0  0
    2.0390    3.4610  -23.8780 C   0  0  0  0  0  0  0  0  0  0  0  0
    1.2190    4.5750  -23.5970 C   0  0  0  0  0  0  0  0  0  0  0  0
    3.0240    5.7930  -22.9780 C   0  0  0  0  0  0  0  0  0  0  0  0
    3.4430    3.6640  -23.5920 C   0  0  0  0  0  0  0  0  0  0  0  0
    1.4850    2.3250  -24.5000 C   0  0  0  0  0  0  0  0  0  0  0  0
   -0.6420    3.1360  -24.3780 C   0  0  0  0  0  0  0  0  0  0  0  0
   -0.1100    4.3730  -23.8210 C   0  0  0  0  0  0  0  0  0  0  0  0
   -2.1010    3.1280  -24.7100 C   0  0  0  0  0  0  0  0  0  0  0  0
    4.0600    1.1760  -23.2420 C   0  0  0  0  0  0  0  0  0  0  0  0
    5.0130    0.8540  -22.1010 C   0  0  2  0  0  0  0  0  0  0  0  0
    6.5930    2.3840  -22.7040 C   0  0  2  0  0  0  0  0  0  0  0  0
    5.0100    1.8870  -20.9610 C   0  0  0  0  0  0  0  0  0  0  0  0
   -2.4490    3.2480  -26.1370 C   0  0  0  0  0  0  0  0  0  0  0  0
   -1.6350    2.6100  -21.7570 C   0  0  0  0  0  0  0  0  0  0  0  0
   -0.5950    2.2790  -21.2580 C   0  0  0  0  0  0  0  0  0  0  0  0
   -0.9490    5.4250  -23.4920 F   0  0  0  0  0  0  0  0  0  0  0  0
   -3.7980    2.9350  -20.2030 F   0  0  0  0  0  0  0  0  0  0  0  0
    1.7010    5.7490  -23.1040 N   0  0  0  0  0  0  0  0  0  0  0  0
    3.9200    4.8270  -23.1860 N   0  0  0  0  0  0  0  0  0  0  0  0
    0.1750    2.2240  -24.7820 N   0  0  0  0  0  0  0  0  0  0  0  0
    4.3610    2.6130  -23.7550 N   0  0  0  0  0  0  0  0  0  0  0  0
    6.4120    0.9120  -22.6070 N   0  0  0  0  0  0  0  0  0  0  0  0
   -4.0030    3.3930  -27.8730 O   0  0  0  0  0  0  0  0  0  0  0  0
    5.7190    9.4540  -20.9580 O   0  0  0  0  0  0  0  0  0  0  0  0
    3.2620    7.4170  -21.1050 N   0  0  0  0  0  0  0  0  0  0  0  0
    3.9700    8.5500  -20.3970 C   0  0  0  0  0  0  0  0  0  0  0  0
    3.5870    7.1460  -22.5550 C   0  0  0  0  0  0  0  0  0  0  0  0
    4.3590    9.7980  -21.2290 C   0  0  0  0  0  0  0  0  0  0  0  0
    5.4770    8.2960  -20.1580 C   0  0  0  0  0  0  0  0  0  0  0  0
    3.2610    8.9330  -19.0860 C   0  0  0  0  0  0  0  0  0  0  0  0
  1  2  2  0
  1  3  1  0
  2  6  1  0
  3  5  2  0
  3 27  1  0
  4  5  1  0
  4  6  2  0
  4 18  1  0
  5 24  1  0
  6 10  1  0
  7 10  2  0
  7 23  1  0
  7 33  1  0
 21  8  1  1
  8 22  1  0
  9 21  1  0
  9 31  1  0
 11 12  1  0
 11 14  1  0
 11 15  2  0
 12 17  2  0
 12 28  1  0
 13 28  2  0
 13 29  1  0
 13 37  1  0
 14 29  2  0
 14 31  1  0
 15 30  1  0
 16 17  1  0
 16 18  1  0
 16 30  2  0
 17 26  1  0
 18 23  2  0
 20 19  1  6
 19 31  1  0
 20 22  1  0
 20 32  1  0
 21 32  1  0
 24 25  3  0
 34 38  1  0
 34 39  1  0
 35 36  1  0
 35 37  1  0
 36 38  1  0
 36 39  1  0
 36 40  1  0
M  CHG  1  35   1
M  END
>  <s_m_entry_id>  (63) 
386

>  <s_m_entry_name>  (63) 
000000228.1

>  <s_m_Source_Path>  (63) 
/Users/zaksoul/Documents/3r_UNI/2nd_SEMESTER/BSC/FRAG_RECON/RESULTS/2

>  <s_m_Source_File>  (63) 
000000228.mol2

>  <i_m_Source_File_Index>  (63) 
1

$$$$
No_0_245,No_0_246,No_0_247,No_0_248
     RDKit          3D

 42 48  0  0  1  0  0  0  0  0999 V2000
   -5.1090    3.6490  -22.0870 C   0  0  0  0  0  0  0  0  0  0  0  0
   -5.3840    3.8460  -23.4200 C   0  0  0  0  0  0  0  0  0  0  0  0
   -3.8680    3.3970  -21.7560 C   0  0  0  0  0  0  0  0  0  0  0  0
   -2.9910    3.5400  -23.9270 C   0  0  0  0  0  0  0  0  0  0  0  0
   -2.8200    3.2860  -22.5090 C   0  0  0  0  0  0  0  0  0  0  0  0
   -4.3420    3.8030  -24.4370 C   0  0  0  0  0  0  0  0  0  0  0  0
   -3.6020    3.8410  -26.6400 C   0  0  0  0  0  0  0  0  0  0  0  0
    6.1640    3.0970  -21.4430 C   0  0  0  0  0  0  0  0  0  0  0  0
    6.0080    3.2570  -23.9900 C   0  0  0  0  0  0  0  0  0  0  0  0
   -4.6030    3.9380  -25.7700 C   0  0  0  0  0  0  0  0  0  0  0  0
    2.2220    3.7950  -23.9790 C   0  0  0  0  0  0  0  0  0  0  0  0
    1.4000    4.8990  -23.6670 C   0  0  0  0  0  0  0  0  0  0  0  0
    3.1990    6.0950  -22.9910 C   0  0  0  0  0  0  0  0  0  0  0  0
    3.6240    3.9870  -23.6740 C   0  0  0  0  0  0  0  0  0  0  0  0
    1.6740    2.6810  -24.6440 C   0  0  0  0  0  0  0  0  0  0  0  0
   -0.4550    3.4870  -24.5150 C   0  0  0  0  0  0  0  0  0  0  0  0
    0.0730    4.7050  -23.9110 C   0  0  0  0  0  0  0  0  0  0  0  0
   -1.9100    3.4920  -24.8600 C   0  0  0  0  0  0  0  0  0  0  0  0
    4.2380    1.4890  -23.4030 C   0  0  0  0  0  0  0  0  0  0  0  0
    5.1800    1.1280  -22.2650 C   0  0  2  0  0  0  0  0  0  0  0  0
    6.7650    2.6760  -22.8010 C   0  0  2  0  0  0  0  0  0  0  0  0
    5.1670    2.1210  -21.0910 C   0  0  0  0  0  0  0  0  0  0  0  0
   -2.2450    3.6600  -26.2840 C   0  0  0  0  0  0  0  0  0  0  0  0
   -1.4710    2.8730  -21.9220 C   0  0  0  0  0  0  0  0  0  0  0  0
   -0.4360    2.5240  -21.4250 C   0  0  0  0  0  0  0  0  0  0  0  0
   -0.7690    5.7450  -23.5540 F   0  0  0  0  0  0  0  0  0  0  0  0
   -3.6480    3.1450  -20.3770 F   0  0  0  0  0  0  0  0  0  0  0  0
    1.8770    6.0560  -23.1310 N   0  0  0  0  0  0  0  0  0  0  0  0
    4.0970    5.1360  -23.2230 N   0  0  0  0  0  0  0  0  0  0  0  0
    0.3660    2.5900  -24.9420 N   0  0  0  0  0  0  0  0  0  0  0  0
    4.5430    2.9430  -23.8640 N   0  0  0  0  0  0  0  0  0  0  0  0
    6.5830    1.2020  -22.7560 N   0  0  0  0  0  0  0  0  0  0  0  0
   -3.7830    3.8650  -28.0280 O   0  0  0  0  0  0  0  0  0  0  0  0
    4.5680    9.5570  -19.9790 O   0  0  0  0  0  0  0  0  0  0  0  0
    7.7580    7.7130  -19.9200 O   0  0  0  0  0  0  0  0  0  0  0  0
    7.9000    8.6040  -22.0150 O   0  0  0  0  0  0  0  0  0  0  0  0
    5.1840    7.2660  -22.0460 N   0  0  0  0  0  0  0  0  0  0  0  0
    5.2450    9.7350  -21.2240 C   0  0  0  0  0  0  0  0  0  0  0  0
    5.0270    8.2360  -19.6930 C   0  0  0  0  0  0  0  0  0  0  0  0
    7.2470    8.1920  -20.9930 C   0  0  0  0  0  0  0  0  0  0  0  0
    3.7580    7.4320  -22.5170 C   0  0  0  0  0  0  0  0  0  0  0  0
    5.7380    8.2750  -21.0680 C   0  0  0  0  0  0  0  0  0  0  0  0
  1  2  2  0
  1  3  1  0
  2  6  1  0
  3  5  2  0
  3 27  1  0
  4  5  1  0
  4  6  2  0
  4 18  1  0
  5 24  1  0
  6 10  1  0
  7 10  2  0
  7 23  1  0
  7 33  1  0
 21  8  1  1
  8 22  1  0
  9 21  1  0
  9 31  1  0
 11 12  1  0
 11 14  1  0
 11 15  2  0
 12 17  2  0
 12 28  1  0
 13 28  2  0
 13 29  1  0
 13 41  1  0
 14 29  2  0
 14 31  1  0
 15 30  1  0
 16 17  1  0
 16 18  1  0
 16 30  2  0
 17 26  1  0
 18 23  2  0
 20 19  1  6
 19 31  1  0
 20 22  1  0
 20 32  1  0
 21 32  1  0
 24 25  3  0
 34 38  1  0
 34 39  1  0
 35 40  1  0
 36 40  2  0
 37 41  1  0
 37 42  1  0
 38 42  1  0
 39 42  1  0
 40 42  1  0
M  CHG  1  35  -1
M  END
>  <s_m_entry_id>  (64) 
391

>  <s_m_entry_name>  (64) 
000000233.1

>  <s_m_Source_Path>  (64) 
/Users/zaksoul/Documents/3r_UNI/2nd_SEMESTER/BSC/FRAG_RECON/RESULTS/2

>  <s_m_Source_File>  (64) 
000000233.mol2

>  <i_m_Source_File_Index>  (64) 
1

$$$$
No_0_249,No_0_250,No_0_251,No_0_252
     RDKit          3D

 41 47  0  0  1  0  0  0  0  0999 V2000
   -5.1790    3.7300  -21.7480 C   0  0  0  0  0  0  0  0  0  0  0  0
   -5.4850    3.8920  -23.0790 C   0  0  0  0  0  0  0  0  0  0  0  0
   -3.9300    3.4900  -21.4390 C   0  0  0  0  0  0  0  0  0  0  0  0
   -3.1030    3.5790  -23.6320 C   0  0  0  0  0  0  0  0  0  0  0  0
   -2.9000    3.3630  -22.2120 C   0  0  0  0  0  0  0  0  0  0  0  0
   -4.4670    3.8240  -24.1180 C   0  0  0  0  0  0  0  0  0  0  0  0
   -3.7760    3.8070  -26.3370 C   0  0  0  0  0  0  0  0  0  0  0  0
    6.1060    3.2250  -21.3450 C   0  0  0  0  0  0  0  0  0  0  0  0
    5.8930    3.3170  -23.8910 C   0  0  0  0  0  0  0  0  0  0  0  0
   -4.7570    3.9250  -25.4480 C   0  0  0  0  0  0  0  0  0  0  0  0
    2.1060    3.8450  -23.8090 C   0  0  0  0  0  0  0  0  0  0  0  0
    1.2880    4.9550  -23.5070 C   0  0  0  0  0  0  0  0  0  0  0  0
    3.0980    6.1730  -22.9030 C   0  0  0  0  0  0  0  0  0  0  0  0
    3.5140    4.0490  -23.5400 C   0  0  0  0  0  0  0  0  0  0  0  0
    1.5470    2.7130  -24.4320 C   0  0  0  0  0  0  0  0  0  0  0  0
   -0.5810    3.5170  -24.2750 C   0  0  0  0  0  0  0  0  0  0  0  0
   -0.0440    4.7510  -23.7160 C   0  0  0  0  0  0  0  0  0  0  0  0
   -2.0430    3.5090  -24.5870 C   0  0  0  0  0  0  0  0  0  0  0  0
    4.1420    1.5600  -23.2180 C   0  0  0  0  0  0  0  0  0  0  0  0
    5.1100    1.2320  -22.0920 C   0  0  2  0  0  0  0  0  0  0  0  0
    6.6780    2.7700  -22.7050 C   0  0  2  0  0  0  0  0  0  0  0  0
    5.1210    2.2550  -20.9450 C   0  0  0  0  0  0  0  0  0  0  0  0
   -2.4110    3.6390  -26.0080 C   0  0  0  0  0  0  0  0  0  0  0  0
   -1.5360    2.9680  -21.6450 C   0  0  0  0  0  0  0  0  0  0  0  0
   -0.4900    2.6350  -21.1630 C   0  0  0  0  0  0  0  0  0  0  0  0
   -0.8810    5.7990  -23.3670 F   0  0  0  0  0  0  0  0  0  0  0  0
   -3.6790    3.2760  -20.0590 F   0  0  0  0  0  0  0  0  0  0  0  0
    1.7740    6.1270  -23.0120 N   0  0  0  0  0  0  0  0  0  0  0  0
    3.9930    5.2110  -23.1310 N   0  0  0  0  0  0  0  0  0  0  0  0
    0.2330    2.6100  -24.6970 N   0  0  0  0  0  0  0  0  0  0  0  0
    4.4320    3.0020  -23.7240 N   0  0  0  0  0  0  0  0  0  0  0  0
    6.5020    1.2960  -22.6170 N   0  0  0  0  0  0  0  0  0  0  0  0
   -3.9890    3.7940  -27.7220 O   0  0  0  0  0  0  0  0  0  0  0  0
    4.3050    7.4380  -21.1170 N   0  0  0  0  0  0  0  0  0  0  0  0
    6.3620    8.8360  -20.8760 C   0  0  0  0  0  0  0  0  0  0  0  0
    8.4930    9.0710  -22.0360 C   0  0  0  0  0  0  0  0  0  0  0  0
    4.8800    8.7310  -20.6040 C   0  0  0  0  0  0  0  0  0  0  0  0
    3.6640    7.5240  -22.4780 C   0  0  0  0  0  0  0  0  0  0  0  0
    8.7340    9.0600  -20.5150 C   0  0  0  0  0  0  0  0  0  0  0  0
    6.9770    8.8610  -22.2550 C   0  0  0  0  0  0  0  0  0  0  0  0
    7.3300    8.9420  -19.9940 C   0  0  0  0  0  0  0  0  0  0  0  0
  1  2  2  0
  1  3  1  0
  2  6  1  0
  3  5  2  0
  3 27  1  0
  4  5  1  0
  4  6  2  0
  4 18  1  0
  5 24  1  0
  6 10  1  0
  7 10  2  0
  7 23  1  0
  7 33  1  0
 21  8  1  1
  8 22  1  0
  9 21  1  0
  9 31  1  0
 11 12  1  0
 11 14  1  0
 11 15  2  0
 12 17  2  0
 12 28  1  0
 13 28  2  0
 13 29  1  0
 13 38  1  0
 14 29  2  0
 14 31  1  0
 15 30  1  0
 16 17  1  0
 16 18  1  0
 16 30  2  0
 17 26  1  0
 18 23  2  0
 20 19  1  6
 19 31  1  0
 20 22  1  0
 20 32  1  0
 21 32  1  0
 24 25  3  0
 34 37  1  0
 34 38  1  0
 35 37  1  0
 35 40  1  0
 35 41  2  0
 36 39  1  0
 36 40  1  0
 39 41  1  0
M  CHG  1  34   1
M  END
>  <s_m_entry_id>  (65) 
395

>  <s_m_entry_name>  (65) 
000000237.1

>  <s_m_Source_Path>  (65) 
/Users/zaksoul/Documents/3r_UNI/2nd_SEMESTER/BSC/FRAG_RECON/RESULTS/2

>  <s_m_Source_File>  (65) 
000000237.mol2

>  <i_m_Source_File_Index>  (65) 
1

$$$$
No_0_253,No_0_254
     RDKit          3D

 42 48  0  0  1  0  0  0  0  0999 V2000
   -5.1760    3.5170  -21.5810 C   0  0  0  0  0  0  0  0  0  0  0  0
   -5.4910    3.6600  -22.9120 C   0  0  0  0  0  0  0  0  0  0  0  0
   -3.9230    3.2950  -21.2760 C   0  0  0  0  0  0  0  0  0  0  0  0
   -3.1080    3.3670  -23.4740 C   0  0  0  0  0  0  0  0  0  0  0  0
   -2.8950    3.1700  -22.0530 C   0  0  0  0  0  0  0  0  0  0  0  0
   -4.4770    3.5920  -23.9560 C   0  0  0  0  0  0  0  0  0  0  0  0
   -3.7980    3.5570  -26.1780 C   0  0  0  0  0  0  0  0  0  0  0  0
    6.1170    3.1430  -21.2350 C   0  0  0  0  0  0  0  0  0  0  0  0
    5.8880    3.2030  -23.7810 C   0  0  0  0  0  0  0  0  0  0  0  0
   -4.7760    3.6730  -25.2850 C   0  0  0  0  0  0  0  0  0  0  0  0
    2.0960    3.6900  -23.6830 C   0  0  0  0  0  0  0  0  0  0  0  0
    1.2670    4.7940  -23.3900 C   0  0  0  0  0  0  0  0  0  0  0  0
    3.0670    6.0390  -22.8100 C   0  0  0  0  0  0  0  0  0  0  0  0
    3.5030    3.9130  -23.4250 C   0  0  0  0  0  0  0  0  0  0  0  0
    1.5470    2.5440  -24.2900 C   0  0  0  0  0  0  0  0  0  0  0  0
   -0.5890    3.3260  -24.1310 C   0  0  0  0  0  0  0  0  0  0  0  0
   -0.0630    4.5730  -23.5890 C   0  0  0  0  0  0  0  0  0  0  0  0
   -2.0530    3.2980  -24.4350 C   0  0  0  0  0  0  0  0  0  0  0  0
    4.1610    1.4350  -23.0780 C   0  0  0  0  0  0  0  0  0  0  0  0
    5.1390    1.1310  -21.9540 C   0  0  2  0  0  0  0  0  0  0  0  0
    6.6860    2.6790  -22.5930 C   0  0  2  0  0  0  0  0  0  0  0  0
    5.1440    2.1680  -20.8180 C   0  0  0  0  0  0  0  0  0  0  0  0
   -2.4300    3.4070  -25.8550 C   0  0  0  0  0  0  0  0  0  0  0  0
   -1.5240    2.7970  -21.4890 C   0  0  0  0  0  0  0  0  0  0  0  0
   -0.4710    2.4820  -21.0090 C   0  0  0  0  0  0  0  0  0  0  0  0
   -0.9100    5.6150  -23.2470 F   0  0  0  0  0  0  0  0  0  0  0  0
   -3.6610    3.0990  -19.8950 F   0  0  0  0  0  0  0  0  0  0  0  0
    1.7430    5.9770  -22.9110 N   0  0  0  0  0  0  0  0  0  0  0  0
    3.9720    5.0840  -23.0320 N   0  0  0  0  0  0  0  0  0  0  0  0
    0.2330    2.4240  -24.5470 N   0  0  0  0  0  0  0  0  0  0  0  0
    4.4330    2.8750  -23.6020 N   0  0  0  0  0  0  0  0  0  0  0  0
    6.5270    1.2050  -22.4870 N   0  0  0  0  0  0  0  0  0  0  0  0
   -4.0190    3.5250  -27.5610 O   0  0  0  0  0  0  0  0  0  0  0  0
    3.6590    7.5370  -20.9040 N   0  0  0  0  0  0  0  0  0  0  0  0
    4.1610    8.8470  -20.3520 C   0  0  0  0  0  0  0  0  0  0  0  0
    5.4060   10.1920  -22.1740 C   0  0  0  0  0  0  0  0  0  0  0  0
    7.8990    9.8490  -22.3700 C   0  0  0  0  0  0  0  0  0  0  0  0
    6.6260    8.9430  -20.4170 C   0  0  0  0  0  0  0  0  0  0  0  0
    5.4740    9.2670  -20.9740 C   0  0  0  0  0  0  0  0  0  0  0  0
    3.6200    7.4010  -22.4040 C   0  0  0  0  0  0  0  0  0  0  0  0
    6.7600   10.8780  -22.4380 C   0  0  0  0  0  0  0  0  0  0  0  0
    8.0020    9.2810  -20.9430 C   0  0  0  0  0  0  0  0  0  0  0  0
  1  2  2  0
  1  3  1  0
  2  6  1  0
  3  5  2  0
  3 27  1  0
  4  5  1  0
  4  6  2  0
  4 18  1  0
  5 24  1  0
  6 10  1  0
  7 10  2  0
  7 23  1  0
  7 33  1  0
 21  8  1  1
  8 22  1  0
  9 21  1  0
  9 31  1  0
 11 12  1  0
 11 14  1  0
 11 15  2  0
 12 17  2  0
 12 28  1  0
 13 28  2  0
 13 29  1  0
 13 40  1  0
 14 29  2  0
 14 31  1  0
 15 30  1  0
 16 17  1  0
 16 18  1  0
 16 30  2  0
 17 26  1  0
 18 23  2  0
 20 19  1  6
 19 31  1  0
 20 22  1  0
 20 32  1  0
 21 32  1  0
 24 25  3  0
 34 35  1  0
 34 40  1  0
 35 39  1  0
 36 39  1  0
 36 41  1  0
 37 41  1  0
 37 42  1  0
 38 39  2  0
 38 42  1  0
M  CHG  1  34   1
M  END
>  <s_m_entry_id>  (66) 
399

>  <s_m_entry_name>  (66) 
000000241.1

>  <s_m_Source_Path>  (66) 
/Users/zaksoul/Documents/3r_UNI/2nd_SEMESTER/BSC/FRAG_RECON/RESULTS/2

>  <s_m_Source_File>  (66) 
000000241.mol2

>  <i_m_Source_File_Index>  (66) 
1

$$$$
No_0_255
     RDKit          3D

 43 49  0  0  1  0  0  0  0  0999 V2000
   -5.2890    3.6690  -21.9120 C   0  0  0  0  0  0  0  0  0  0  0  0
   -5.5560    3.8500  -23.2490 C   0  0  0  0  0  0  0  0  0  0  0  0
   -4.0510    3.4160  -21.5710 C   0  0  0  0  0  0  0  0  0  0  0  0
   -3.1610    3.5280  -23.7380 C   0  0  0  0  0  0  0  0  0  0  0  0
   -3.0000    3.2920  -22.3160 C   0  0  0  0  0  0  0  0  0  0  0  0
   -4.5090    3.7900  -24.2590 C   0  0  0  0  0  0  0  0  0  0  0  0
   -3.7550    3.7970  -26.4580 C   0  0  0  0  0  0  0  0  0  0  0  0
    5.9770    3.0800  -21.1960 C   0  0  0  0  0  0  0  0  0  0  0  0
    5.8360    3.2070  -23.7460 C   0  0  0  0  0  0  0  0  0  0  0  0
   -4.7610    3.9090  -25.5950 C   0  0  0  0  0  0  0  0  0  0  0  0
    2.0520    3.7610  -23.7640 C   0  0  0  0  0  0  0  0  0  0  0  0
    1.2330    4.8720  -23.4710 C   0  0  0  0  0  0  0  0  0  0  0  0
    3.0340    6.0690  -22.7990 C   0  0  0  0  0  0  0  0  0  0  0  0
    3.4530    3.9510  -23.4530 C   0  0  0  0  0  0  0  0  0  0  0  0
    1.5040    2.6400  -24.4180 C   0  0  0  0  0  0  0  0  0  0  0  0
   -0.6220    3.4580  -24.3110 C   0  0  0  0  0  0  0  0  0  0  0  0
   -0.0930    4.6810  -23.7190 C   0  0  0  0  0  0  0  0  0  0  0  0
   -2.0750    3.4640  -24.6640 C   0  0  0  0  0  0  0  0  0  0  0  0
    4.0550    1.4540  -23.1470 C   0  0  0  0  0  0  0  0  0  0  0  0
    4.9900    1.1040  -21.9990 C   0  0  2  0  0  0  0  0  0  0  0  0
    6.5840    2.6390  -22.5460 C   0  0  2  0  0  0  0  0  0  0  0  0
    4.9740    2.1120  -20.8370 C   0  0  0  0  0  0  0  0  0  0  0  0
   -2.4020    3.6150  -26.0920 C   0  0  0  0  0  0  0  0  0  0  0  0
   -1.6560    2.8800  -21.7160 C   0  0  0  0  0  0  0  0  0  0  0  0
   -0.6250    2.5340  -21.2090 C   0  0  0  0  0  0  0  0  0  0  0  0
   -0.9330    5.7290  -23.3800 F   0  0  0  0  0  0  0  0  0  0  0  0
   -3.8400    3.1820  -20.1870 F   0  0  0  0  0  0  0  0  0  0  0  0
    1.7130    6.0340  -22.9460 N   0  0  0  0  0  0  0  0  0  0  0  0
    3.9290    5.1040  -23.0150 N   0  0  0  0  0  0  0  0  0  0  0  0
    0.1970    2.5510  -24.7220 N   0  0  0  0  0  0  0  0  0  0  0  0
    4.3700    2.9010  -23.6250 N   0  0  0  0  0  0  0  0  0  0  0  0
    6.3960    1.1660  -22.4830 N   0  0  0  0  0  0  0  0  0  0  0  0
   -3.9290    3.8040  -27.8480 O   0  0  0  0  0  0  0  0  0  0  0  0
    3.9330    7.3920  -20.8720 N   0  0  0  0  0  0  0  0  0  0  0  0
    6.9710   10.2880  -22.3750 N   0  0  0  0  0  0  0  0  0  0  0  0
    7.7580    9.4760  -21.5330 N   0  0  0  0  0  0  0  0  0  0  0  0
    5.6490    9.1480  -21.0600 C   0  0  0  0  0  0  0  0  0  0  0  0
    4.4150    8.7020  -20.3130 C   0  0  0  0  0  0  0  0  0  0  0  0
    3.5960    7.4100  -22.3400 C   0  0  0  0  0  0  0  0  0  0  0  0
    4.6510   10.8830  -22.8440 C   0  0  0  0  0  0  0  0  0  0  0  0
    7.5660    7.8530  -19.7150 C   0  0  0  0  0  0  0  0  0  0  0  0
    6.9810    8.8010  -20.7330 C   0  0  0  0  0  0  0  0  0  0  0  0
    5.7100   10.1120  -22.0950 C   0  0  0  0  0  0  0  0  0  0  0  0
  1  2  2  0
  1  3  1  0
  2  6  1  0
  3  5  2  0
  3 27  1  0
  4  5  1  0
  4  6  2  0
  4 18  1  0
  5 24  1  0
  6 10  1  0
  7 10  2  0
  7 23  1  0
  7 33  1  0
 21  8  1  1
  8 22  1  0
  9 21  1  0
  9 31  1  0
 11 12  1  0
 11 14  1  0
 11 15  2  0
 12 17  2  0
 12 28  1  0
 13 28  2  0
 13 29  1  0
 13 39  1  0
 14 29  2  0
 14 31  1  0
 15 30  1  0
 16 17  1  0
 16 18  1  0
 16 30  2  0
 17 26  1  0
 18 23  2  0
 20 19  1  6
 19 31  1  0
 20 22  1  0
 20 32  1  0
 21 32  1  0
 24 25  3  0
 34 38  1  0
 34 39  1  0
 35 36  1  0
 35 43  1  0
 36 42  2  0
 37 38  1  0
 37 42  1  0
 37 43  2  0
 40 43  1  0
 41 42  1  0
M  END
>  <s_m_entry_id>  (67) 
401

>  <s_m_entry_name>  (67) 
000000243.1

>  <s_m_Source_Path>  (67) 
/Users/zaksoul/Documents/3r_UNI/2nd_SEMESTER/BSC/FRAG_RECON/RESULTS/2

>  <s_m_Source_File>  (67) 
000000243.mol2

>  <i_m_Source_File_Index>  (67) 
1

$$$$
No_0_256,No_0_257,No_0_258,No_0_259
     RDKit          3D

 41 46  0  0  1  0  0  0  0  0999 V2000
   -5.1290    3.5470  -21.8970 C   0  0  0  0  0  0  0  0  0  0  0  0
   -5.4240    3.7150  -23.2300 C   0  0  0  0  0  0  0  0  0  0  0  0
   -3.8810    3.3210  -21.5770 C   0  0  0  0  0  0  0  0  0  0  0  0
   -3.0320    3.4380  -23.7600 C   0  0  0  0  0  0  0  0  0  0  0  0
   -2.8410    3.2130  -22.3400 C   0  0  0  0  0  0  0  0  0  0  0  0
   -4.3940    3.6690  -24.2590 C   0  0  0  0  0  0  0  0  0  0  0  0
   -3.6800    3.6790  -26.4710 C   0  0  0  0  0  0  0  0  0  0  0  0
    6.1570    3.1870  -21.3810 C   0  0  0  0  0  0  0  0  0  0  0  0
    5.9680    3.2960  -23.9290 C   0  0  0  0  0  0  0  0  0  0  0  0
   -4.6720    3.7760  -25.5910 C   0  0  0  0  0  0  0  0  0  0  0  0
    2.1750    3.7740  -23.8810 C   0  0  0  0  0  0  0  0  0  0  0  0
    1.3390    4.8710  -23.5800 C   0  0  0  0  0  0  0  0  0  0  0  0
    3.1270    6.1080  -22.9480 C   0  0  0  0  0  0  0  0  0  0  0  0
    3.5770    3.9950  -23.5970 C   0  0  0  0  0  0  0  0  0  0  0  0
    1.6370    2.6390  -24.5190 C   0  0  0  0  0  0  0  0  0  0  0  0
   -0.5030    3.4150  -24.3780 C   0  0  0  0  0  0  0  0  0  0  0  0
    0.0120    4.6510  -23.8030 C   0  0  0  0  0  0  0  0  0  0  0  0
   -1.9620    3.3900  -24.7050 C   0  0  0  0  0  0  0  0  0  0  0  0
    4.2340    1.5120  -23.2870 C   0  0  0  0  0  0  0  0  0  0  0  0
    5.1950    1.1870  -22.1540 C   0  0  2  0  0  0  0  0  0  0  0  0
    6.7490    2.7500  -22.7390 C   0  0  2  0  0  0  0  0  0  0  0  0
    5.1800    2.2020  -20.9990 C   0  0  0  0  0  0  0  0  0  0  0  0
   -2.3170    3.5260  -26.1290 C   0  0  0  0  0  0  0  0  0  0  0  0
   -1.4780    2.8320  -21.7620 C   0  0  0  0  0  0  0  0  0  0  0  0
   -0.4320    2.5100  -21.2720 C   0  0  0  0  0  0  0  0  0  0  0  0
   -0.8420    5.6850  -23.4550 F   0  0  0  0  0  0  0  0  0  0  0  0
   -3.6400    3.0990  -20.1960 F   0  0  0  0  0  0  0  0  0  0  0  0
    1.8040    6.0450  -23.0710 N   0  0  0  0  0  0  0  0  0  0  0  0
    4.0370    5.1590  -23.1730 N   0  0  0  0  0  0  0  0  0  0  0  0
    0.3270    2.5220  -24.7990 N   0  0  0  0  0  0  0  0  0  0  0  0
    4.5110    2.9620  -23.7790 N   0  0  0  0  0  0  0  0  0  0  0  0
    6.5910    1.2740  -22.6640 N   0  0  0  0  0  0  0  0  0  0  0  0
   -3.8790    3.6740  -27.8570 O   0  0  0  0  0  0  0  0  0  0  0  0
    7.7230   10.9940  -21.5210 O   0  0  0  0  0  0  0  0  0  0  0  0
    9.1100    9.2380  -21.0680 O   0  0  0  0  0  0  0  0  0  0  0  0
    4.0330    7.4590  -21.0450 N   0  0  0  0  0  0  0  0  0  0  0  0
    4.2550    8.8150  -20.4250 C   0  0  0  0  0  0  0  0  0  0  0  0
    3.6700    7.4620  -22.5050 C   0  0  0  0  0  0  0  0  0  0  0  0
    5.4510    9.5990  -21.0030 C   0  0  0  0  0  0  0  0  0  0  0  0
    6.8010    9.0220  -20.5380 C   0  0  0  0  0  0  0  0  0  0  0  0
    7.9670    9.8140  -21.0830 C   0  0  0  0  0  0  0  0  0  0  0  0
  1  2  2  0
  1  3  1  0
  2  6  1  0
  3  5  2  0
  3 27  1  0
  4  5  1  0
  4  6  2  0
  4 18  1  0
  5 24  1  0
  6 10  1  0
  7 10  2  0
  7 23  1  0
  7 33  1  0
 21  8  1  1
  8 22  1  0
  9 21  1  0
  9 31  1  0
 11 12  2  0
 11 14  1  0
 11 15  1  0
 12 17  1  0
 12 28  1  0
 13 28  2  0
 13 29  1  0
 13 38  1  0
 14 29  2  0
 14 31  1  0
 15 30  2  0
 16 17  2  0
 16 18  1  0
 16 30  1  0
 17 26  1  0
 18 23  2  0
 20 19  1  6
 19 31  1  0
 20 22  1  0
 20 32  1  0
 21 32  1  0
 24 25  3  0
 34 41  1  0
 35 41  2  0
 36 37  1  0
 36 38  1  0
 37 39  1  0
 39 40  1  0
 40 41  1  0
M  CHG  2  34  -1  36   1
M  END
>  <s_m_entry_id>  (68) 
402

>  <s_m_entry_name>  (68) 
000000244.1

>  <s_m_Source_Path>  (68) 
/Users/zaksoul/Documents/3r_UNI/2nd_SEMESTER/BSC/FRAG_RECON/RESULTS/2

>  <s_m_Source_File>  (68) 
000000244.mol2

>  <i_m_Source_File_Index>  (68) 
1

$$$$
No_0_260,No_0_261,No_0_262
     RDKit          3D

 40 45  0  0  1  0  0  0  0  0999 V2000
   -5.2440    3.6180  -21.6250 C   0  0  0  0  0  0  0  0  0  0  0  0
   -5.5500    3.7570  -22.9580 C   0  0  0  0  0  0  0  0  0  0  0  0
   -3.9950    3.3840  -21.3130 C   0  0  0  0  0  0  0  0  0  0  0  0
   -3.1680    3.4380  -23.5070 C   0  0  0  0  0  0  0  0  0  0  0  0
   -2.9640    3.2450  -22.0840 C   0  0  0  0  0  0  0  0  0  0  0  0
   -4.5320    3.6740  -23.9970 C   0  0  0  0  0  0  0  0  0  0  0  0
   -3.8410    3.6220  -26.2160 C   0  0  0  0  0  0  0  0  0  0  0  0
    6.0420    3.1290  -21.2160 C   0  0  0  0  0  0  0  0  0  0  0  0
    5.8280    3.1800  -23.7640 C   0  0  0  0  0  0  0  0  0  0  0  0
   -4.8230    3.7530  -25.3280 C   0  0  0  0  0  0  0  0  0  0  0  0
    2.0410    3.7060  -23.6890 C   0  0  0  0  0  0  0  0  0  0  0  0
    1.2220    4.8200  -23.4050 C   0  0  0  0  0  0  0  0  0  0  0  0
    3.0320    6.0490  -22.8210 C   0  0  0  0  0  0  0  0  0  0  0  0
    3.4490    3.9150  -23.4240 C   0  0  0  0  0  0  0  0  0  0  0  0
    1.4830    2.5630  -24.2940 C   0  0  0  0  0  0  0  0  0  0  0  0
   -0.6450    3.3680  -24.1500 C   0  0  0  0  0  0  0  0  0  0  0  0
   -0.1090    4.6120  -23.6100 C   0  0  0  0  0  0  0  0  0  0  0  0
   -2.1080    3.3540  -24.4610 C   0  0  0  0  0  0  0  0  0  0  0  0
    4.0790    1.4330  -23.0620 C   0  0  0  0  0  0  0  0  0  0  0  0
    5.0480    1.1230  -21.9320 C   0  0  2  0  0  0  0  0  0  0  0  0
    6.6150    2.6520  -22.5690 C   0  0  2  0  0  0  0  0  0  0  0  0
    5.0580    2.1650  -20.8010 C   0  0  0  0  0  0  0  0  0  0  0  0
   -2.4760    3.4610  -25.8840 C   0  0  0  0  0  0  0  0  0  0  0  0
   -1.6000    2.8600  -21.5110 C   0  0  0  0  0  0  0  0  0  0  0  0
   -0.5530    2.5360  -21.0240 C   0  0  0  0  0  0  0  0  0  0  0  0
   -0.9480    5.6640  -23.2780 F   0  0  0  0  0  0  0  0  0  0  0  0
   -3.7420    3.1910  -19.9300 F   0  0  0  0  0  0  0  0  0  0  0  0
    1.7070    6.0000  -22.9290 N   0  0  0  0  0  0  0  0  0  0  0  0
    3.9270    5.0840  -23.0340 N   0  0  0  0  0  0  0  0  0  0  0  0
    0.1690    2.4560  -24.5570 N   0  0  0  0  0  0  0  0  0  0  0  0
    4.3680    2.8670  -23.5910 N   0  0  0  0  0  0  0  0  0  0  0  0
    6.4400    1.1810  -22.4580 N   0  0  0  0  0  0  0  0  0  0  0  0
   -4.0550    3.5870  -27.5990 O   0  0  0  0  0  0  0  0  0  0  0  0
    8.5640    9.1450  -20.9740 O   0  0  0  0  0  0  0  0  0  0  0  0
    4.3050    7.3410  -21.0870 N   0  0  0  0  0  0  0  0  0  0  0  0
    6.1400    9.0920  -21.2120 C   0  0  0  0  0  0  0  0  0  0  0  0
    3.5960    7.4070  -22.4170 C   0  0  0  0  0  0  0  0  0  0  0  0
    4.8100    8.6580  -20.5580 C   0  0  0  0  0  0  0  0  0  0  0  0
    7.3490    8.7220  -20.3340 C   0  0  0  0  0  0  0  0  0  0  0  0
    9.7180    8.8940  -20.1550 C   0  0  0  0  0  0  0  0  0  0  0  0
  1  2  2  0
  1  3  1  0
  2  6  1  0
  3  5  2  0
  3 27  1  0
  4  5  1  0
  4  6  2  0
  4 18  1  0
  5 24  1  0
  6 10  1  0
  7 10  2  0
  7 23  1  0
  7 33  1  0
 21  8  1  1
  8 22  1  0
  9 21  1  0
  9 31  1  0
 11 12  2  0
 11 14  1  0
 11 15  1  0
 12 17  1  0
 12 28  1  0
 13 28  2  0
 13 29  1  0
 13 37  1  0
 14 29  2  0
 14 31  1  0
 15 30  2  0
 16 17  2  0
 16 18  1  0
 16 30  1  0
 17 26  1  0
 18 23  2  0
 20 19  1  6
 19 31  1  0
 20 22  1  0
 20 32  1  0
 21 32  1  0
 24 25  3  0
 34 39  1  0
 34 40  1  0
 35 37  1  0
 35 38  1  0
 36 38  1  0
 36 39  1  0
M  CHG  1  35   1
M  END
>  <s_m_entry_id>  (69) 
406

>  <s_m_entry_name>  (69) 
000000248.1

>  <s_m_Source_Path>  (69) 
/Users/zaksoul/Documents/3r_UNI/2nd_SEMESTER/BSC/FRAG_RECON/RESULTS/2

>  <s_m_Source_File>  (69) 
000000248.mol2

>  <i_m_Source_File_Index>  (69) 
1

$$$$
No_0_263,No_0_264,No_0_265
     RDKit          3D

 41 46  0  0  1  0  0  0  0  0999 V2000
   -4.9110    3.5200  -22.0990 C   0  0  0  0  0  0  0  0  0  0  0  0
   -5.1750    3.6910  -23.4370 C   0  0  0  0  0  0  0  0  0  0  0  0
   -3.6720    3.2770  -21.7520 C   0  0  0  0  0  0  0  0  0  0  0  0
   -2.7760    3.3820  -23.9160 C   0  0  0  0  0  0  0  0  0  0  0  0
   -2.6180    3.1560  -22.4930 C   0  0  0  0  0  0  0  0  0  0  0  0
   -4.1240    3.6310  -24.4440 C   0  0  0  0  0  0  0  0  0  0  0  0
   -3.3630    3.6300  -26.6400 C   0  0  0  0  0  0  0  0  0  0  0  0
    6.3560    3.0130  -21.3420 C   0  0  0  0  0  0  0  0  0  0  0  0
    6.2230    3.1240  -23.8930 C   0  0  0  0  0  0  0  0  0  0  0  0
   -4.3720    3.7410  -25.7810 C   0  0  0  0  0  0  0  0  0  0  0  0
    2.4360    3.6510  -23.9270 C   0  0  0  0  0  0  0  0  0  0  0  0
    1.6080    4.7580  -23.6430 C   0  0  0  0  0  0  0  0  0  0  0  0
    3.3980    5.9720  -22.9730 C   0  0  0  0  0  0  0  0  0  0  0  0
    3.8340    3.8530  -23.6120 C   0  0  0  0  0  0  0  0  0  0  0  0
    1.8970    2.5230  -24.5760 C   0  0  0  0  0  0  0  0  0  0  0  0
   -0.2350    3.3260  -24.4800 C   0  0  0  0  0  0  0  0  0  0  0  0
    0.2840    4.5560  -23.8950 C   0  0  0  0  0  0  0  0  0  0  0  0
   -1.6870    3.3200  -24.8380 C   0  0  0  0  0  0  0  0  0  0  0  0
    4.4530    1.3620  -23.2880 C   0  0  0  0  0  0  0  0  0  0  0  0
    5.3850    1.0250  -22.1350 C   0  0  2  0  0  0  0  0  0  0  0  0
    6.9710    2.5680  -22.6860 C   0  0  2  0  0  0  0  0  0  0  0  0
    5.3590    2.0410  -20.9800 C   0  0  0  0  0  0  0  0  0  0  0  0
   -2.0090    3.4600  -26.2690 C   0  0  0  0  0  0  0  0  0  0  0  0
   -1.2730    2.7570  -21.8860 C   0  0  0  0  0  0  0  0  0  0  0  0
   -0.2420    2.4210  -21.3730 C   0  0  0  0  0  0  0  0  0  0  0  0
   -0.5640    5.6010  -23.5650 F   0  0  0  0  0  0  0  0  0  0  0  0
   -3.4640    3.0530  -20.3660 F   0  0  0  0  0  0  0  0  0  0  0  0
    2.0770    5.9260  -23.1240 N   0  0  0  0  0  0  0  0  0  0  0  0
    4.3000    5.0120  -23.1790 N   0  0  0  0  0  0  0  0  0  0  0  0
    0.5920    2.4220  -24.8830 N   0  0  0  0  0  0  0  0  0  0  0  0
    4.7590    2.8080  -23.7740 N   0  0  0  0  0  0  0  0  0  0  0  0
    6.7930    1.0940  -22.6150 N   0  0  0  0  0  0  0  0  0  0  0  0
   -3.5320    3.6270  -28.0310 O   0  0  0  0  0  0  0  0  0  0  0  0
    6.2900   10.7740  -21.2490 O   0  0  0  0  0  0  0  0  0  0  0  0
    6.9700    8.6990  -21.7890 O   0  0  0  0  0  0  0  0  0  0  0  0
    3.3100    7.7420  -21.2240 N   0  0  0  0  0  0  0  0  0  0  0  0
    3.9490    7.3200  -22.5200 C   0  0  0  0  0  0  0  0  0  0  0  0
    3.7840    9.0520  -20.6500 C   0  0  0  0  0  0  0  0  0  0  0  0
    5.2310    8.9920  -20.1120 C   0  0  0  0  0  0  0  0  0  0  0  0
    6.2450    9.4340  -21.1420 C   0  0  0  0  0  0  0  0  0  0  0  0
    7.2560   11.3240  -22.1590 C   0  0  0  0  0  0  0  0  0  0  0  0
  1  2  2  0
  1  3  1  0
  2  6  1  0
  3  5  2  0
  3 27  1  0
  4  5  1  0
  4  6  2  0
  4 18  1  0
  5 24  1  0
  6 10  1  0
  7 10  2  0
  7 23  1  0
  7 33  1  0
 21  8  1  1
  8 22  1  0
  9 21  1  0
  9 31  1  0
 11 12  2  0
 11 14  1  0
 11 15  1  0
 12 17  1  0
 12 28  1  0
 13 28  2  0
 13 29  1  0
 13 37  1  0
 14 29  2  0
 14 31  1  0
 15 30  2  0
 16 17  2  0
 16 18  1  0
 16 30  1  0
 17 26  1  0
 18 23  2  0
 20 19  1  6
 19 31  1  0
 20 22  1  0
 20 32  1  0
 21 32  1  0
 24 25  3  0
 34 40  1  0
 34 41  1  0
 35 40  2  0
 36 37  1  0
 36 38  1  0
 38 39  1  0
 39 40  1  0
M  CHG  1  36   1
M  END
>  <s_m_entry_id>  (70) 
409

>  <s_m_entry_name>  (70) 
000000251.1

>  <s_m_Source_Path>  (70) 
/Users/zaksoul/Documents/3r_UNI/2nd_SEMESTER/BSC/FRAG_RECON/RESULTS/2

>  <s_m_Source_File>  (70) 
000000251.mol2

>  <i_m_Source_File_Index>  (70) 
1

$$$$
No_0_266,No_0_267,No_0_268,No_0_269,No_0_270,No_0_271,No_0_272,No_0_273,No_0_274,No_0_275
     RDKit          3D

 40 45  0  0  1  0  0  0  0  0999 V2000
   -4.8340    3.7280  -21.7770 C   0  0  0  0  0  0  0  0  0  0  0  0
   -5.1270    3.9050  -23.1090 C   0  0  0  0  0  0  0  0  0  0  0  0
   -3.5960    3.4480  -21.4610 C   0  0  0  0  0  0  0  0  0  0  0  0
   -2.7520    3.5210  -23.6480 C   0  0  0  0  0  0  0  0  0  0  0  0
   -2.5640    3.2920  -22.2280 C   0  0  0  0  0  0  0  0  0  0  0  0
   -4.1040    3.8110  -24.1420 C   0  0  0  0  0  0  0  0  0  0  0  0
   -3.4000    3.7830  -26.3570 C   0  0  0  0  0  0  0  0  0  0  0  0
    6.4270    2.8700  -21.3050 C   0  0  0  0  0  0  0  0  0  0  0  0
    6.2330    2.9810  -23.8520 C   0  0  0  0  0  0  0  0  0  0  0  0
   -4.3830    3.9270  -25.4730 C   0  0  0  0  0  0  0  0  0  0  0  0
    2.4640    3.6260  -23.7910 C   0  0  0  0  0  0  0  0  0  0  0  0
    1.6790    4.7600  -23.4890 C   0  0  0  0  0  0  0  0  0  0  0  0
    3.5220    5.9180  -22.8680 C   0  0  0  0  0  0  0  0  0  0  0  0
    3.8760    3.7850  -23.5130 C   0  0  0  0  0  0  0  0  0  0  0  0
    1.8740    2.5150  -24.4240 C   0  0  0  0  0  0  0  0  0  0  0  0
   -0.2280    3.3840  -24.2760 C   0  0  0  0  0  0  0  0  0  0  0  0
    0.3430    4.5990  -23.7070 C   0  0  0  0  0  0  0  0  0  0  0  0
   -1.6890    3.4230  -24.5970 C   0  0  0  0  0  0  0  0  0  0  0  0
    4.4240    1.2760  -23.1990 C   0  0  0  0  0  0  0  0  0  0  0  0
    5.3750    0.9120  -22.0690 C   0  0  2  0  0  0  0  0  0  0  0  0
    6.9940    2.4040  -22.6640 C   0  0  2  0  0  0  0  0  0  0  0  0
    5.4090    1.9300  -20.9160 C   0  0  0  0  0  0  0  0  0  0  0  0
   -2.0430    3.5710  -26.0200 C   0  0  0  0  0  0  0  0  0  0  0  0
   -1.2180    2.8520  -21.6550 C   0  0  0  0  0  0  0  0  0  0  0  0
   -0.1850    2.4850  -21.1680 C   0  0  0  0  0  0  0  0  0  0  0  0
   -0.4630    5.6700  -23.3580 F   0  0  0  0  0  0  0  0  0  0  0  0
   -3.3590    3.2190  -20.0810 F   0  0  0  0  0  0  0  0  0  0  0  0
    2.1980    5.9130  -22.9850 N   0  0  0  0  0  0  0  0  0  0  0  0
    4.3890    4.9290  -23.0940 N   0  0  0  0  0  0  0  0  0  0  0  0
    0.5590    2.4550  -24.6980 N   0  0  0  0  0  0  0  0  0  0  0  0
    4.7630    2.7110  -23.6960 N   0  0  0  0  0  0  0  0  0  0  0  0
    6.7710    0.9360  -22.5850 N   0  0  0  0  0  0  0  0  0  0  0  0
   -3.6040    3.7840  -27.7420 O   0  0  0  0  0  0  0  0  0  0  0  0
    5.4160   10.4800  -23.5940 O   0  0  0  0  0  0  0  0  0  0  0  0
    6.4740    9.2460  -21.9910 O   0  0  0  0  0  0  0  0  0  0  0  0
    3.3270    7.9060  -21.3380 N   0  0  0  0  0  0  0  0  0  0  0  0
    4.1270    7.2480  -22.4310 C   0  0  0  0  0  0  0  0  0  0  0  0
    4.3570   10.2260  -21.4810 C   0  0  0  0  0  0  0  0  0  0  0  0
    4.0280    9.0110  -20.5920 C   0  0  0  0  0  0  0  0  0  0  0  0
    5.5040    9.9630  -22.4260 C   0  0  0  0  0  0  0  0  0  0  0  0
  1  2  2  0
  1  3  1  0
  2  6  1  0
  3  5  2  0
  3 27  1  0
  4  5  1  0
  4  6  2  0
  4 18  1  0
  5 24  1  0
  6 10  1  0
  7 10  2  0
  7 23  1  0
  7 33  1  0
 21  8  1  1
  8 22  1  0
  9 21  1  0
  9 31  1  0
 11 12  2  0
 11 14  1  0
 11 15  1  0
 12 17  1  0
 12 28  1  0
 13 28  2  0
 13 29  1  0
 13 37  1  0
 14 29  2  0
 14 31  1  0
 15 30  2  0
 16 17  2  0
 16 18  1  0
 16 30  1  0
 17 26  1  0
 18 23  2  0
 20 19  1  6
 19 31  1  0
 20 22  1  0
 20 32  1  0
 21 32  1  0
 24 25  3  0
 34 40  1  0
 35 40  2  0
 36 37  1  0
 36 39  1  0
 38 39  1  0
 38 40  1  0
M  CHG  2  34  -1  36   1
M  END
>  <s_m_entry_id>  (71) 
412

>  <s_m_entry_name>  (71) 
000000254.1

>  <s_m_Source_Path>  (71) 
/Users/zaksoul/Documents/3r_UNI/2nd_SEMESTER/BSC/FRAG_RECON/RESULTS/2

>  <s_m_Source_File>  (71) 
000000254.mol2

>  <i_m_Source_File_Index>  (71) 
1

$$$$
No_0_285,No_0_286,No_0_287
     RDKit          3D

 41 46  0  0  1  0  0  0  0  0999 V2000
   -5.1810    3.6090  -21.8530 C   0  0  0  0  0  0  0  0  0  0  0  0
   -5.4520    3.8050  -23.1860 C   0  0  0  0  0  0  0  0  0  0  0  0
   -3.9420    3.3510  -21.5190 C   0  0  0  0  0  0  0  0  0  0  0  0
   -3.0590    3.4860  -23.6870 C   0  0  0  0  0  0  0  0  0  0  0  0
   -2.8930    3.2340  -22.2690 C   0  0  0  0  0  0  0  0  0  0  0  0
   -4.4090    3.7540  -24.2010 C   0  0  0  0  0  0  0  0  0  0  0  0
   -3.6630    3.7850  -26.4030 C   0  0  0  0  0  0  0  0  0  0  0  0
    6.0870    3.0010  -21.1820 C   0  0  0  0  0  0  0  0  0  0  0  0
    5.9380    3.1560  -23.7310 C   0  0  0  0  0  0  0  0  0  0  0  0
   -4.6650    3.8890  -25.5350 C   0  0  0  0  0  0  0  0  0  0  0  0
    2.1540    3.7130  -23.7290 C   0  0  0  0  0  0  0  0  0  0  0  0
    1.3370    4.8230  -23.4210 C   0  0  0  0  0  0  0  0  0  0  0  0
    3.1410    6.0110  -22.7430 C   0  0  0  0  0  0  0  0  0  0  0  0
    3.5570    3.8990  -23.4210 C   0  0  0  0  0  0  0  0  0  0  0  0
    1.6030    2.6010  -24.3930 C   0  0  0  0  0  0  0  0  0  0  0  0
   -0.5220    3.4190  -24.2700 C   0  0  0  0  0  0  0  0  0  0  0  0
    0.0100    4.6350  -23.6670 C   0  0  0  0  0  0  0  0  0  0  0  0
   -1.9770    3.4300  -24.6180 C   0  0  0  0  0  0  0  0  0  0  0  0
    4.1570    1.3990  -23.1440 C   0  0  0  0  0  0  0  0  0  0  0  0
    5.0950    1.0350  -22.0030 C   0  0  2  0  0  0  0  0  0  0  0  0
    6.6890    2.5740  -22.5390 C   0  0  2  0  0  0  0  0  0  0  0  0
    5.0840    2.0310  -20.8310 C   0  0  0  0  0  0  0  0  0  0  0  0
   -2.3080    3.5970  -26.0440 C   0  0  0  0  0  0  0  0  0  0  0  0
   -1.5470    2.8150  -21.6780 C   0  0  0  0  0  0  0  0  0  0  0  0
   -0.5150    2.4620  -21.1780 C   0  0  0  0  0  0  0  0  0  0  0  0
   -0.8280    5.6800  -23.3140 F   0  0  0  0  0  0  0  0  0  0  0  0
   -3.7260    3.1020  -20.1390 F   0  0  0  0  0  0  0  0  0  0  0  0
    1.8200    5.9780  -22.8860 N   0  0  0  0  0  0  0  0  0  0  0  0
    4.0350    5.0470  -22.9720 N   0  0  0  0  0  0  0  0  0  0  0  0
    0.2950    2.5160  -24.6930 N   0  0  0  0  0  0  0  0  0  0  0  0
    4.4710    2.8500  -23.6070 N   0  0  0  0  0  0  0  0  0  0  0  0
    6.5000    1.1010  -22.4910 N   0  0  0  0  0  0  0  0  0  0  0  0
   -3.8410    3.8060  -27.7920 O   0  0  0  0  0  0  0  0  0  0  0  0
    5.5790    9.8430  -22.1730 O   0  0  0  0  0  0  0  0  0  0  0  0
    4.3770    7.2050  -20.9290 N   0  0  0  0  0  0  0  0  0  0  0  0
    7.2300    8.8100  -20.9880 N   0  0  0  0  0  0  0  0  0  0  0  0
    5.9410    9.1100  -21.2630 C   0  0  0  0  0  0  0  0  0  0  0  0
    7.6640    7.9050  -19.9080 C   0  0  0  0  0  0  0  0  0  0  0  0
    8.3040    9.4180  -21.7850 C   0  0  0  0  0  0  0  0  0  0  0  0
    3.7060    7.3460  -22.2710 C   0  0  0  0  0  0  0  0  0  0  0  0
    4.9070    8.4860  -20.3480 C   0  0  0  0  0  0  0  0  0  0  0  0
  1  2  2  0
  1  3  1  0
  2  6  1  0
  3  5  2  0
  3 27  1  0
  4  5  1  0
  4  6  2  0
  4 18  1  0
  5 24  1  0
  6 10  1  0
  7 10  2  0
  7 23  1  0
  7 33  1  0
 21  8  1  1
  8 22  1  0
  9 21  1  0
  9 31  1  0
 11 12  2  0
 11 14  1  0
 11 15  1  0
 12 17  1  0
 12 28  1  0
 13 28  2  0
 13 29  1  0
 13 40  1  0
 14 29  2  0
 14 31  1  0
 15 30  2  0
 16 17  2  0
 16 18  1  0
 16 30  1  0
 17 26  1  0
 18 23  2  0
 20 19  1  6
 19 31  1  0
 20 22  1  0
 20 32  1  0
 21 32  1  0
 24 25  3  0
 34 37  2  0
 35 40  1  0
 35 41  1  0
 36 37  1  0
 36 38  1  0
 36 39  1  0
 37 41  1  0
M  END
>  <s_m_entry_id>  (72) 
426

>  <s_m_entry_name>  (72) 
000000268.1

>  <s_m_Source_Path>  (72) 
/Users/zaksoul/Documents/3r_UNI/2nd_SEMESTER/BSC/FRAG_RECON/RESULTS/2

>  <s_m_Source_File>  (72) 
000000268.mol2

>  <i_m_Source_File_Index>  (72) 
1

$$$$
No_0_288,No_0_289,No_0_290,No_0_291,No_0_292,No_0_293,No_0_294
     RDKit          3D

 42 48  0  0  1  0  0  0  0  0999 V2000
   -4.9400    3.4080  -22.1100 C   0  0  0  0  0  0  0  0  0  0  0  0
   -5.1890    3.5930  -23.4490 C   0  0  0  0  0  0  0  0  0  0  0  0
   -3.7090    3.1380  -21.7540 C   0  0  0  0  0  0  0  0  0  0  0  0
   -2.7940    3.2360  -23.9110 C   0  0  0  0  0  0  0  0  0  0  0  0
   -2.6520    2.9980  -22.4880 C   0  0  0  0  0  0  0  0  0  0  0  0
   -4.1320    3.5170  -24.4480 C   0  0  0  0  0  0  0  0  0  0  0  0
   -3.3540    3.5130  -26.6380 C   0  0  0  0  0  0  0  0  0  0  0  0
    6.3080    2.6540  -21.2680 C   0  0  0  0  0  0  0  0  0  0  0  0
    6.1970    2.7830  -23.8200 C   0  0  0  0  0  0  0  0  0  0  0  0
   -4.3670    3.6400  -25.7870 C   0  0  0  0  0  0  0  0  0  0  0  0
    2.4230    3.3920  -23.8790 C   0  0  0  0  0  0  0  0  0  0  0  0
    1.6170    4.5150  -23.5950 C   0  0  0  0  0  0  0  0  0  0  0  0
    3.4270    5.6860  -22.9040 C   0  0  0  0  0  0  0  0  0  0  0  0
    3.8230    3.5620  -23.5530 C   0  0  0  0  0  0  0  0  0  0  0  0
    1.8650    2.2800  -24.5390 C   0  0  0  0  0  0  0  0  0  0  0  0
   -0.2500    3.1280  -24.4560 C   0  0  0  0  0  0  0  0  0  0  0  0
    0.2900    4.3430  -23.8590 C   0  0  0  0  0  0  0  0  0  0  0  0
   -1.6990    3.1550  -24.8250 C   0  0  0  0  0  0  0  0  0  0  0  0
    4.3850    1.0570  -23.2400 C   0  0  0  0  0  0  0  0  0  0  0  0
    5.3000    0.6930  -22.0810 C   0  0  2  0  0  0  0  0  0  0  0  0
    6.9240    2.2040  -22.6110 C   0  0  2  0  0  0  0  0  0  0  0  0
    5.2870    1.7010  -20.9210 C   0  0  0  0  0  0  0  0  0  0  0  0
   -2.0070    3.3110  -26.2570 C   0  0  0  0  0  0  0  0  0  0  0  0
   -1.3210    2.5660  -21.8730 C   0  0  0  0  0  0  0  0  0  0  0  0
   -0.3010    2.2050  -21.3540 C   0  0  0  0  0  0  0  0  0  0  0  0
   -0.5380    5.4040  -23.5290 F   0  0  0  0  0  0  0  0  0  0  0  0
   -3.5170    2.9000  -20.3690 F   0  0  0  0  0  0  0  0  0  0  0  0
    2.1070    5.6700  -23.0660 N   0  0  0  0  0  0  0  0  0  0  0  0
    4.3100    4.7080  -23.1090 N   0  0  0  0  0  0  0  0  0  0  0  0
    0.5610    2.2090  -24.8580 N   0  0  0  0  0  0  0  0  0  0  0  0
    4.7250    2.4980  -23.7140 N   0  0  0  0  0  0  0  0  0  0  0  0
    6.7130    0.7340  -22.5500 N   0  0  0  0  0  0  0  0  0  0  0  0
   -3.5120    3.5220  -28.0300 O   0  0  0  0  0  0  0  0  0  0  0  0
    3.3750    7.4660  -21.1430 N   0  0  0  0  0  0  0  0  0  0  0  0
    6.9580    7.4630  -21.1470 N   0  0  0  0  0  0  0  0  0  0  0  0
    7.9750    7.6350  -22.0280 N   0  0  0  0  0  0  0  0  0  0  0  0
    3.8450    8.7960  -20.6070 C   0  0  0  0  0  0  0  0  0  0  0  0
    4.0030    7.0190  -22.4380 C   0  0  0  0  0  0  0  0  0  0  0  0
    5.2210    8.7390  -19.9100 C   0  0  0  0  0  0  0  0  0  0  0  0
    6.4000    8.6100  -20.8520 C   0  0  0  0  0  0  0  0  0  0  0  0
    7.0600    9.6180  -21.5600 C   0  0  0  0  0  0  0  0  0  0  0  0
    8.0000    8.9720  -22.2540 C   0  0  0  0  0  0  0  0  0  0  0  0
  1  2  2  0
  1  3  1  0
  2  6  1  0
  3  5  2  0
  3 27  1  0
  4  5  1  0
  4  6  2  0
  4 18  1  0
  5 24  1  0
  6 10  1  0
  7 10  2  0
  7 23  1  0
  7 33  1  0
 21  8  1  1
  8 22  1  0
  9 21  1  0
  9 31  1  0
 11 12  1  0
 11 14  1  0
 11 15  2  0
 12 17  2  0
 12 28  1  0
 13 28  2  0
 13 29  1  0
 13 38  1  0
 14 29  2  0
 14 31  1  0
 15 30  1  0
 16 17  1  0
 16 18  1  0
 16 30  2  0
 17 26  1  0
 18 23  2  0
 20 19  1  6
 19 31  1  0
 20 22  1  0
 20 32  1  0
 21 32  1  0
 24 25  3  0
 34 37  1  0
 34 38  1  0
 35 36  1  0
 35 40  2  0
 36 42  1  0
 37 39  1  0
 39 40  1  0
 40 41  1  0
 41 42  2  0
M  CHG  1  34   1
M  END
>  <s_m_entry_id>  (73) 
429

>  <s_m_entry_name>  (73) 
000000271.1

>  <s_m_Source_Path>  (73) 
/Users/zaksoul/Documents/3r_UNI/2nd_SEMESTER/BSC/FRAG_RECON/RESULTS/2

>  <s_m_Source_File>  (73) 
000000271.mol2

>  <i_m_Source_File_Index>  (73) 
1

$$$$
No_0_295
     RDKit          3D

 43 49  0  0  1  0  0  0  0  0999 V2000
   -5.1810    3.6090  -21.8530 C   0  0  0  0  0  0  0  0  0  0  0  0
   -5.4520    3.8050  -23.1860 C   0  0  0  0  0  0  0  0  0  0  0  0
   -3.9420    3.3510  -21.5190 C   0  0  0  0  0  0  0  0  0  0  0  0
   -3.0590    3.4860  -23.6870 C   0  0  0  0  0  0  0  0  0  0  0  0
   -2.8930    3.2340  -22.2690 C   0  0  0  0  0  0  0  0  0  0  0  0
   -4.4090    3.7540  -24.2010 C   0  0  0  0  0  0  0  0  0  0  0  0
   -3.6630    3.7850  -26.4030 C   0  0  0  0  0  0  0  0  0  0  0  0
    6.0870    3.0010  -21.1820 C   0  0  0  0  0  0  0  0  0  0  0  0
    5.9380    3.1560  -23.7310 C   0  0  0  0  0  0  0  0  0  0  0  0
   -4.6650    3.8890  -25.5350 C   0  0  0  0  0  0  0  0  0  0  0  0
    2.1540    3.7130  -23.7290 C   0  0  0  0  0  0  0  0  0  0  0  0
    1.3370    4.8230  -23.4210 C   0  0  0  0  0  0  0  0  0  0  0  0
    3.1410    6.0110  -22.7430 C   0  0  0  0  0  0  0  0  0  0  0  0
    3.5570    3.8990  -23.4210 C   0  0  0  0  0  0  0  0  0  0  0  0
    1.6030    2.6010  -24.3930 C   0  0  0  0  0  0  0  0  0  0  0  0
   -0.5220    3.4190  -24.2700 C   0  0  0  0  0  0  0  0  0  0  0  0
    0.0100    4.6350  -23.6670 C   0  0  0  0  0  0  0  0  0  0  0  0
   -1.9770    3.4300  -24.6180 C   0  0  0  0  0  0  0  0  0  0  0  0
    4.1570    1.3990  -23.1440 C   0  0  0  0  0  0  0  0  0  0  0  0
    5.0950    1.0350  -22.0030 C   0  0  2  0  0  0  0  0  0  0  0  0
    6.6890    2.5740  -22.5390 C   0  0  2  0  0  0  0  0  0  0  0  0
    5.0840    2.0310  -20.8310 C   0  0  0  0  0  0  0  0  0  0  0  0
   -2.3080    3.5970  -26.0440 C   0  0  0  0  0  0  0  0  0  0  0  0
   -1.5470    2.8150  -21.6780 C   0  0  0  0  0  0  0  0  0  0  0  0
   -0.5150    2.4620  -21.1780 C   0  0  0  0  0  0  0  0  0  0  0  0
   -0.8280    5.6800  -23.3140 F   0  0  0  0  0  0  0  0  0  0  0  0
   -3.7260    3.1020  -20.1390 F   0  0  0  0  0  0  0  0  0  0  0  0
    1.8200    5.9780  -22.8860 N   0  0  0  0  0  0  0  0  0  0  0  0
    4.0350    5.0470  -22.9720 N   0  0  0  0  0  0  0  0  0  0  0  0
    0.2950    2.5160  -24.6930 N   0  0  0  0  0  0  0  0  0  0  0  0
    4.4710    2.8500  -23.6070 N   0  0  0  0  0  0  0  0  0  0  0  0
    6.5000    1.1010  -22.4910 N   0  0  0  0  0  0  0  0  0  0  0  0
   -3.8410    3.8060  -27.7920 O   0  0  0  0  0  0  0  0  0  0  0  0
    4.3760    7.2030  -20.9310 N   0  0  0  0  0  0  0  0  0  0  0  0
    9.1310    8.9690  -20.4720 N   0  0  0  0  0  0  0  0  0  0  0  0
    7.4170    7.7060  -20.9420 N   0  0  0  0  0  0  0  0  0  0  0  0
    8.0260    9.7560  -20.4470 N   0  0  0  0  0  0  0  0  0  0  0  0
    4.5700    8.4850  -20.1640 C   0  0  0  0  0  0  0  0  0  0  0  0
    3.7060    7.3460  -22.2710 C   0  0  0  0  0  0  0  0  0  0  0  0
    5.5850    9.4470  -20.8130 C   0  0  0  0  0  0  0  0  0  0  0  0
    7.0220    8.9770  -20.7310 C   0  0  0  0  0  0  0  0  0  0  0  0
    8.7260    7.7140  -20.7760 C   0  0  0  0  0  0  0  0  0  0  0  0
   10.4870    9.4460  -20.1860 C   0  0  0  0  0  0  0  0  0  0  0  0
  1  2  2  0
  1  3  1  0
  2  6  1  0
  3  5  2  0
  3 27  1  0
  4  5  1  0
  4  6  2  0
  4 18  1  0
  5 24  1  0
  6 10  1  0
  7 10  2  0
  7 23  1  0
  7 33  1  0
 21  8  1  1
  8 22  1  0
  9 21  1  0
  9 31  1  0
 11 12  1  0
 11 14  1  0
 11 15  2  0
 12 17  2  0
 12 28  1  0
 13 28  2  0
 13 29  1  0
 13 39  1  0
 14 29  2  0
 14 31  1  0
 15 30  1  0
 16 17  1  0
 16 18  1  0
 16 30  2  0
 17 26  1  0
 18 23  2  0
 20 19  1  6
 19 31  1  0
 20 22  1  0
 20 32  1  0
 21 32  1  0
 24 25  3  0
 34 38  1  0
 34 39  1  0
 35 37  1  0
 35 42  1  0
 35 43  1  0
 36 41  1  0
 36 42  2  0
 37 41  2  0
 38 40  1  0
 40 41  1  0
M  CHG  1  34   1
M  END
>  <s_m_entry_id>  (74) 
436

>  <s_m_entry_name>  (74) 
000000278.1

>  <s_m_Source_Path>  (74) 
/Users/zaksoul/Documents/3r_UNI/2nd_SEMESTER/BSC/FRAG_RECON/RESULTS/2

>  <s_m_Source_File>  (74) 
000000278.mol2

>  <i_m_Source_File_Index>  (74) 
1

$$$$
No_0_296,No_0_297,No_0_298,No_0_299
     RDKit          3D

 43 49  0  0  1  0  0  0  0  0999 V2000
   -4.8730    3.7490  -21.9100 C   0  0  0  0  0  0  0  0  0  0  0  0
   -5.1640    3.9490  -23.2380 C   0  0  0  0  0  0  0  0  0  0  0  0
   -3.6290    3.4930  -21.5940 C   0  0  0  0  0  0  0  0  0  0  0  0
   -2.7770    3.6400  -23.7740 C   0  0  0  0  0  0  0  0  0  0  0  0
   -2.5910    3.3830  -22.3580 C   0  0  0  0  0  0  0  0  0  0  0  0
   -4.1340    3.9070  -24.2680 C   0  0  0  0  0  0  0  0  0  0  0  0
   -3.4180    3.9490  -26.4790 C   0  0  0  0  0  0  0  0  0  0  0  0
    6.4040    3.1750  -21.3960 C   0  0  0  0  0  0  0  0  0  0  0  0
    6.2200    3.3400  -23.9410 C   0  0  0  0  0  0  0  0  0  0  0  0
   -4.4090    4.0460  -25.5970 C   0  0  0  0  0  0  0  0  0  0  0  0
    2.4350    3.8850  -23.8850 C   0  0  0  0  0  0  0  0  0  0  0  0
    1.6190    4.9900  -23.5610 C   0  0  0  0  0  0  0  0  0  0  0  0
    3.4280    6.1810  -22.9030 C   0  0  0  0  0  0  0  0  0  0  0  0
    3.8410    4.0740  -23.5960 C   0  0  0  0  0  0  0  0  0  0  0  0
    1.8780    2.7740  -24.5470 C   0  0  0  0  0  0  0  0  0  0  0  0
   -0.2480    3.5840  -24.3910 C   0  0  0  0  0  0  0  0  0  0  0  0
    0.2890    4.7990  -23.7900 C   0  0  0  0  0  0  0  0  0  0  0  0
   -1.7070    3.5920  -24.7190 C   0  0  0  0  0  0  0  0  0  0  0  0
    4.4530    1.5740  -23.3380 C   0  0  0  0  0  0  0  0  0  0  0  0
    5.4080    1.2090  -22.2120 C   0  0  2  0  0  0  0  0  0  0  0  0
    6.9900    2.7560  -22.7620 C   0  0  2  0  0  0  0  0  0  0  0  0
    5.4100    2.1990  -21.0350 C   0  0  0  0  0  0  0  0  0  0  0  0
   -2.0580    3.7650  -26.1390 C   0  0  0  0  0  0  0  0  0  0  0  0
   -1.2350    2.9650  -21.7880 C   0  0  0  0  0  0  0  0  0  0  0  0
   -0.1960    2.6140  -21.3040 C   0  0  0  0  0  0  0  0  0  0  0  0
   -0.5470    5.8410  -23.4210 F   0  0  0  0  0  0  0  0  0  0  0  0
   -3.3940    3.2380  -20.2180 F   0  0  0  0  0  0  0  0  0  0  0  0
    2.1050    6.1450  -23.0280 N   0  0  0  0  0  0  0  0  0  0  0  0
    4.3210    5.2210  -23.1480 N   0  0  0  0  0  0  0  0  0  0  0  0
    0.5660    2.6860  -24.8300 N   0  0  0  0  0  0  0  0  0  0  0  0
    4.7560    3.0290  -23.7990 N   0  0  0  0  0  0  0  0  0  0  0  0
    6.8050    1.2820  -22.7190 N   0  0  0  0  0  0  0  0  0  0  0  0
   -3.6160    3.9770  -27.8650 O   0  0  0  0  0  0  0  0  0  0  0  0
    3.3940    7.9290  -21.1150 N   0  0  0  0  0  0  0  0  0  0  0  0
    6.2650    9.3290  -20.9130 N   0  0  0  0  0  0  0  0  0  0  0  0
    6.8120    8.1860  -21.3900 N   0  0  0  0  0  0  0  0  0  0  0  0
    3.7580    9.3070  -20.6230 C   0  0  0  0  0  0  0  0  0  0  0  0
    3.9950    7.5160  -22.4320 C   0  0  0  0  0  0  0  0  0  0  0  0
    5.1490    9.3790  -19.9620 C   0  0  0  0  0  0  0  0  0  0  0  0
    6.9660   10.3370  -21.4970 C   0  0  0  0  0  0  0  0  0  0  0  0
    7.7830    8.4720  -22.2170 C   0  0  0  0  0  0  0  0  0  0  0  0
    7.9140    9.8600  -22.3110 C   0  0  0  0  0  0  0  0  0  0  0  0
    6.6900   11.8050  -21.2370 C   0  0  0  0  0  0  0  0  0  0  0  0
  1  2  2  0
  1  3  1  0
  2  6  1  0
  3  5  2  0
  3 27  1  0
  4  5  1  0
  4  6  2  0
  4 18  1  0
  5 24  1  0
  6 10  1  0
  7 10  2  0
  7 23  1  0
  7 33  1  0
 21  8  1  1
  8 22  1  0
  9 21  1  0
  9 31  1  0
 11 12  1  0
 11 14  1  0
 11 15  2  0
 12 17  2  0
 12 28  1  0
 13 28  2  0
 13 29  1  0
 13 38  1  0
 14 29  2  0
 14 31  1  0
 15 30  1  0
 16 17  1  0
 16 18  1  0
 16 30  2  0
 17 26  1  0
 18 23  2  0
 20 19  1  6
 19 31  1  0
 20 22  1  0
 20 32  1  0
 21 32  1  0
 24 25  3  0
 34 37  1  0
 34 38  1  0
 35 36  1  0
 35 39  1  0
 35 40  1  0
 36 41  2  0
 37 39  1  0
 40 42  2  0
 40 43  1  0
 41 42  1  0
M  CHG  1  34   1
M  END
>  <s_m_entry_id>  (75) 
437

>  <s_m_entry_name>  (75) 
000000279.1

>  <s_m_Source_Path>  (75) 
/Users/zaksoul/Documents/3r_UNI/2nd_SEMESTER/BSC/FRAG_RECON/RESULTS/2

>  <s_m_Source_File>  (75) 
000000279.mol2

>  <i_m_Source_File_Index>  (75) 
1

$$$$
No_0_300
     RDKit          3D

 42 48  0  0  1  0  0  0  0  0999 V2000
   -5.2660    3.5300  -21.8090 C   0  0  0  0  0  0  0  0  0  0  0  0
   -5.5640    3.6930  -23.1410 C   0  0  0  0  0  0  0  0  0  0  0  0
   -4.0180    3.2970  -21.4920 C   0  0  0  0  0  0  0  0  0  0  0  0
   -3.1760    3.3960  -23.6780 C   0  0  0  0  0  0  0  0  0  0  0  0
   -2.9810    3.1780  -22.2580 C   0  0  0  0  0  0  0  0  0  0  0  0
   -4.5380    3.6340  -24.1730 C   0  0  0  0  0  0  0  0  0  0  0  0
   -3.8320    3.6270  -26.3880 C   0  0  0  0  0  0  0  0  0  0  0  0
    6.0200    3.0940  -21.3310 C   0  0  0  0  0  0  0  0  0  0  0  0
    5.8230    3.1910  -23.8780 C   0  0  0  0  0  0  0  0  0  0  0  0
   -4.8200    3.7360  -25.5050 C   0  0  0  0  0  0  0  0  0  0  0  0
    2.0320    3.6950  -23.8200 C   0  0  0  0  0  0  0  0  0  0  0  0
    1.2050    4.7990  -23.5210 C   0  0  0  0  0  0  0  0  0  0  0  0
    3.0040    6.0270  -22.9020 C   0  0  0  0  0  0  0  0  0  0  0  0
    3.4370    3.9070  -23.5410 C   0  0  0  0  0  0  0  0  0  0  0  0
    1.4850    2.5610  -24.4500 C   0  0  0  0  0  0  0  0  0  0  0  0
   -0.6490    3.3520  -24.3050 C   0  0  0  0  0  0  0  0  0  0  0  0
   -0.1240    4.5880  -23.7390 C   0  0  0  0  0  0  0  0  0  0  0  0
   -2.1100    3.3350  -24.6270 C   0  0  0  0  0  0  0  0  0  0  0  0
    4.0780    1.4220  -23.2210 C   0  0  0  0  0  0  0  0  0  0  0  0
    5.0410    1.0960  -22.0900 C   0  0  2  0  0  0  0  0  0  0  0  0
    6.6040    2.6460  -22.6880 C   0  0  2  0  0  0  0  0  0  0  0  0
    5.0370    2.1170  -20.9400 C   0  0  0  0  0  0  0  0  0  0  0  0
   -2.4690    3.4670  -26.0500 C   0  0  0  0  0  0  0  0  0  0  0  0
   -1.6190    2.7900  -21.6830 C   0  0  0  0  0  0  0  0  0  0  0  0
   -0.5730    2.4630  -21.1950 C   0  0  0  0  0  0  0  0  0  0  0  0
   -0.9700    5.6290  -23.3930 F   0  0  0  0  0  0  0  0  0  0  0  0
   -3.7740    3.0800  -20.1110 F   0  0  0  0  0  0  0  0  0  0  0  0
    1.6800    5.9730  -23.0200 N   0  0  0  0  0  0  0  0  0  0  0  0
    3.9060    5.0710  -23.1260 N   0  0  0  0  0  0  0  0  0  0  0  0
    0.1730    2.4510  -24.7240 N   0  0  0  0  0  0  0  0  0  0  0  0
    4.3630    2.8670  -23.7220 N   0  0  0  0  0  0  0  0  0  0  0  0
    6.4360    1.1710  -22.6050 N   0  0  0  0  0  0  0  0  0  0  0  0
   -4.0360    3.6160  -27.7740 O   0  0  0  0  0  0  0  0  0  0  0  0
    3.9250    7.3760  -21.0070 N   0  0  0  0  0  0  0  0  0  0  0  0
    6.4030    9.7460  -21.6670 N   0  0  0  0  0  0  0  0  0  0  0  0
    6.9170    8.2410  -20.1910 N   0  0  0  0  0  0  0  0  0  0  0  0
    4.4540    8.6820  -20.4720 C   0  0  0  0  0  0  0  0  0  0  0  0
    3.5580    7.3800  -22.4690 C   0  0  0  0  0  0  0  0  0  0  0  0
    5.9240    8.8890  -20.7830 C   0  0  0  0  0  0  0  0  0  0  0  0
    8.6830   10.5010  -22.5340 C   0  0  0  0  0  0  0  0  0  0  0  0
    8.0730    8.7410  -20.7530 C   0  0  0  0  0  0  0  0  0  0  0  0
    7.7720    9.6660  -21.6600 C   0  0  0  0  0  0  0  0  0  0  0  0
  1  2  2  0
  1  3  1  0
  2  6  1  0
  3  5  2  0
  3 27  1  0
  4  5  1  0
  4  6  2  0
  4 18  1  0
  5 24  1  0
  6 10  1  0
  7 10  2  0
  7 23  1  0
  7 33  1  0
 21  8  1  1
  8 22  1  0
  9 21  1  0
  9 31  1  0
 11 12  1  0
 11 14  1  0
 11 15  2  0
 12 17  2  0
 12 28  1  0
 13 28  2  0
 13 29  1  0
 13 38  1  0
 14 29  2  0
 14 31  1  0
 15 30  1  0
 16 17  1  0
 16 18  1  0
 16 30  2  0
 17 26  1  0
 18 23  2  0
 20 19  1  6
 19 31  1  0
 20 22  1  0
 20 32  1  0
 21 32  1  0
 24 25  3  0
 34 37  1  0
 34 38  1  0
 35 39  1  0
 35 42  1  0
 36 39  1  0
 36 41  1  0
 37 39  1  0
 40 42  1  0
 41 42  2  0
M  END
>  <s_m_entry_id>  (76) 
441

>  <s_m_entry_name>  (76) 
000000283.1

>  <s_m_Source_Path>  (76) 
/Users/zaksoul/Documents/3r_UNI/2nd_SEMESTER/BSC/FRAG_RECON/RESULTS/2

>  <s_m_Source_File>  (76) 
000000283.mol2

>  <i_m_Source_File_Index>  (76) 
1

$$$$
No_0_301,No_0_302,No_0_303
     RDKit          3D

 44 50  0  0  1  0  0  0  0  0999 V2000
   -5.2530    3.4850  -21.8950 C   0  0  0  0  0  0  0  0  0  0  0  0
   -5.5200    3.6450  -23.2340 C   0  0  0  0  0  0  0  0  0  0  0  0
   -4.0180    3.2190  -21.5520 C   0  0  0  0  0  0  0  0  0  0  0  0
   -3.1320    3.2770  -23.7230 C   0  0  0  0  0  0  0  0  0  0  0  0
   -2.9700    3.0650  -22.2970 C   0  0  0  0  0  0  0  0  0  0  0  0
   -4.4770    3.5500  -24.2460 C   0  0  0  0  0  0  0  0  0  0  0  0
   -3.7290    3.5040  -26.4470 C   0  0  0  0  0  0  0  0  0  0  0  0
    6.0050    2.7350  -21.1950 C   0  0  0  0  0  0  0  0  0  0  0  0
    5.8590    2.8170  -23.7470 C   0  0  0  0  0  0  0  0  0  0  0  0
   -4.7310    3.6480  -25.5840 C   0  0  0  0  0  0  0  0  0  0  0  0
    2.0850    3.4280  -23.7660 C   0  0  0  0  0  0  0  0  0  0  0  0
    1.2830    4.5580  -23.4920 C   0  0  0  0  0  0  0  0  0  0  0  0
    3.1040    5.7390  -22.8470 C   0  0  0  0  0  0  0  0  0  0  0  0
    3.4890    3.6030  -23.4620 C   0  0  0  0  0  0  0  0  0  0  0  0
    1.5170    2.3050  -24.3980 C   0  0  0  0  0  0  0  0  0  0  0  0
   -0.5960    3.1570  -24.3000 C   0  0  0  0  0  0  0  0  0  0  0  0
   -0.0460    4.3820  -23.7330 C   0  0  0  0  0  0  0  0  0  0  0  0
   -2.0500    3.1790  -24.6500 C   0  0  0  0  0  0  0  0  0  0  0  0
    4.0530    1.1030  -23.1100 C   0  0  0  0  0  0  0  0  0  0  0  0
    4.9850    0.7600  -21.9580 C   0  0  2  0  0  0  0  0  0  0  0  0
    6.6020    2.2600  -22.5380 C   0  0  2  0  0  0  0  0  0  0  0  0
    4.9880    1.7900  -20.8160 C   0  0  0  0  0  0  0  0  0  0  0  0
   -2.3780    3.3080  -26.0810 C   0  0  0  0  0  0  0  0  0  0  0  0
   -1.6310    2.6440  -21.6930 C   0  0  0  0  0  0  0  0  0  0  0  0
   -0.6050    2.2910  -21.1820 C   0  0  0  0  0  0  0  0  0  0  0  0
   -0.8690    5.4500  -23.4120 F   0  0  0  0  0  0  0  0  0  0  0  0
   -3.8060    3.0070  -20.1650 F   0  0  0  0  0  0  0  0  0  0  0  0
    1.7820    5.7210  -22.9900 N   0  0  0  0  0  0  0  0  0  0  0  0
    3.9830    4.7560  -23.0460 N   0  0  0  0  0  0  0  0  0  0  0  0
    0.2080    2.2300  -24.6960 N   0  0  0  0  0  0  0  0  0  0  0  0
    4.3890    2.5360  -23.6160 N   0  0  0  0  0  0  0  0  0  0  0  0
    6.3910    0.7910  -22.4470 N   0  0  0  0  0  0  0  0  0  0  0  0
   -3.9070    3.4880  -27.8360 O   0  0  0  0  0  0  0  0  0  0  0  0
    4.0280    7.0810  -20.9460 N   0  0  0  0  0  0  0  0  0  0  0  0
    8.3870    8.0790  -20.4030 N   0  0  0  0  0  0  0  0  0  0  0  0
    6.7930    6.9740  -19.0990 N   0  0  0  0  0  0  0  0  0  0  0  0
    4.5940    8.3730  -20.4110 C   0  0  0  0  0  0  0  0  0  0  0  0
    6.0710    8.5810  -20.7670 C   0  0  0  0  0  0  0  0  0  0  0  0
    7.0800    7.8780  -20.0900 C   0  0  0  0  0  0  0  0  0  0  0  0
    3.6880    7.0800  -22.4140 C   0  0  0  0  0  0  0  0  0  0  0  0
    6.4450    9.4610  -21.7500 C   0  0  0  0  0  0  0  0  0  0  0  0
    5.4670   10.3000  -22.5600 C   0  0  0  0  0  0  0  0  0  0  0  0
    8.7470    8.9560  -21.3860 C   0  0  0  0  0  0  0  0  0  0  0  0
    7.7990    9.6420  -22.0560 C   0  0  0  0  0  0  0  0  0  0  0  0
  1  2  2  0
  1  3  1  0
  2  6  1  0
  3  5  2  0
  3 27  1  0
  4  5  1  0
  4  6  2  0
  4 18  1  0
  5 24  1  0
  6 10  1  0
  7 10  2  0
  7 23  1  0
  7 33  1  0
 21  8  1  1
  8 22  1  0
  9 21  1  0
  9 31  1  0
 11 12  1  0
 11 14  1  0
 11 15  2  0
 12 17  2  0
 12 28  1  0
 13 28  2  0
 13 29  1  0
 13 40  1  0
 14 29  2  0
 14 31  1  0
 15 30  1  0
 16 17  1  0
 16 18  1  0
 16 30  2  0
 17 26  1  0
 18 23  2  0
 20 19  1  6
 19 31  1  0
 20 22  1  0
 20 32  1  0
 21 32  1  0
 24 25  3  0
 34 37  1  0
 34 40  1  0
 35 39  1  0
 35 43  1  0
 36 39  1  0
 37 38  1  0
 38 39  2  0
 38 41  1  0
 41 42  1  0
 41 44  1  0
 43 44  2  0
M  END
>  <s_m_entry_id>  (77) 
442

>  <s_m_entry_name>  (77) 
000000284.1

>  <s_m_Source_Path>  (77) 
/Users/zaksoul/Documents/3r_UNI/2nd_SEMESTER/BSC/FRAG_RECON/RESULTS/2

>  <s_m_Source_File>  (77) 
000000284.mol2

>  <i_m_Source_File_Index>  (77) 
1

$$$$
No_0_304,No_0_305,No_0_306
     RDKit          3D

 43 49  0  0  1  0  0  0  0  0999 V2000
   -5.1810    3.6090  -21.8530 C   0  0  0  0  0  0  0  0  0  0  0  0
   -5.4520    3.8050  -23.1860 C   0  0  0  0  0  0  0  0  0  0  0  0
   -3.9420    3.3510  -21.5190 C   0  0  0  0  0  0  0  0  0  0  0  0
   -3.0590    3.4860  -23.6870 C   0  0  0  0  0  0  0  0  0  0  0  0
   -2.8930    3.2340  -22.2690 C   0  0  0  0  0  0  0  0  0  0  0  0
   -4.4090    3.7540  -24.2010 C   0  0  0  0  0  0  0  0  0  0  0  0
   -3.6630    3.7850  -26.4030 C   0  0  0  0  0  0  0  0  0  0  0  0
    6.0870    3.0010  -21.1820 C   0  0  0  0  0  0  0  0  0  0  0  0
    5.9380    3.1560  -23.7310 C   0  0  0  0  0  0  0  0  0  0  0  0
   -4.6650    3.8890  -25.5350 C   0  0  0  0  0  0  0  0  0  0  0  0
    2.1540    3.7130  -23.7290 C   0  0  0  0  0  0  0  0  0  0  0  0
    1.3370    4.8230  -23.4210 C   0  0  0  0  0  0  0  0  0  0  0  0
    3.1410    6.0110  -22.7430 C   0  0  0  0  0  0  0  0  0  0  0  0
    3.5570    3.8990  -23.4210 C   0  0  0  0  0  0  0  0  0  0  0  0
    1.6030    2.6010  -24.3930 C   0  0  0  0  0  0  0  0  0  0  0  0
   -0.5220    3.4190  -24.2700 C   0  0  0  0  0  0  0  0  0  0  0  0
    0.0100    4.6350  -23.6670 C   0  0  0  0  0  0  0  0  0  0  0  0
   -1.9770    3.4300  -24.6180 C   0  0  0  0  0  0  0  0  0  0  0  0
    4.1570    1.3990  -23.1440 C   0  0  0  0  0  0  0  0  0  0  0  0
    5.0950    1.0350  -22.0030 C   0  0  2  0  0  0  0  0  0  0  0  0
    6.6890    2.5740  -22.5390 C   0  0  2  0  0  0  0  0  0  0  0  0
    5.0840    2.0310  -20.8310 C   0  0  0  0  0  0  0  0  0  0  0  0
   -2.3080    3.5970  -26.0440 C   0  0  0  0  0  0  0  0  0  0  0  0
   -1.5470    2.8150  -21.6780 C   0  0  0  0  0  0  0  0  0  0  0  0
   -0.5150    2.4620  -21.1780 C   0  0  0  0  0  0  0  0  0  0  0  0
   -0.8280    5.6800  -23.3140 F   0  0  0  0  0  0  0  0  0  0  0  0
   -3.7260    3.1020  -20.1390 F   0  0  0  0  0  0  0  0  0  0  0  0
    1.8200    5.9780  -22.8860 N   0  0  0  0  0  0  0  0  0  0  0  0
    4.0350    5.0470  -22.9720 N   0  0  0  0  0  0  0  0  0  0  0  0
    0.2950    2.5160  -24.6930 N   0  0  0  0  0  0  0  0  0  0  0  0
    4.4710    2.8500  -23.6070 N   0  0  0  0  0  0  0  0  0  0  0  0
    6.5000    1.1010  -22.4910 N   0  0  0  0  0  0  0  0  0  0  0  0
   -3.8410    3.8060  -27.7920 O   0  0  0  0  0  0  0  0  0  0  0  0
    3.7040    7.4310  -20.7670 N   0  0  0  0  0  0  0  0  0  0  0  0
    6.4820    9.6460  -21.1640 N   0  0  0  0  0  0  0  0  0  0  0  0
    7.7940    9.3390  -21.1570 N   0  0  0  0  0  0  0  0  0  0  0  0
    5.8800    8.6740  -20.4280 C   0  0  0  0  0  0  0  0  0  0  0  0
    4.3770    8.6470  -20.1830 C   0  0  0  0  0  0  0  0  0  0  0  0
    3.7060    7.3460  -22.2710 C   0  0  0  0  0  0  0  0  0  0  0  0
    6.5340    6.5440  -19.1090 C   0  0  0  0  0  0  0  0  0  0  0  0
    5.9080   10.8080  -21.8510 C   0  0  0  0  0  0  0  0  0  0  0  0
    7.9810    8.2500  -20.4600 C   0  0  0  0  0  0  0  0  0  0  0  0
    6.7620    7.7770  -19.9600 C   0  0  0  0  0  0  0  0  0  0  0  0
  1  2  2  0
  1  3  1  0
  2  6  1  0
  3  5  2  0
  3 27  1  0
  4  5  1  0
  4  6  2  0
  4 18  1  0
  5 24  1  0
  6 10  1  0
  7 10  2  0
  7 23  1  0
  7 33  1  0
 21  8  1  1
  8 22  1  0
  9 21  1  0
  9 31  1  0
 11 12  1  0
 11 14  1  0
 11 15  2  0
 12 17  2  0
 12 28  1  0
 13 28  2  0
 13 29  1  0
 13 39  1  0
 14 29  2  0
 14 31  1  0
 15 30  1  0
 16 17  1  0
 16 18  1  0
 16 30  2  0
 17 26  1  0
 18 23  2  0
 20 19  1  6
 19 31  1  0
 20 22  1  0
 20 32  1  0
 21 32  1  0
 24 25  3  0
 34 38  1  0
 34 39  1  0
 35 36  1  0
 35 37  1  0
 35 41  1  0
 36 42  2  0
 37 38  1  0
 37 43  2  0
 40 43  1  0
 42 43  1  0
M  END
>  <s_m_entry_id>  (78) 
445

>  <s_m_entry_name>  (78) 
000000287.1

>  <s_m_Source_Path>  (78) 
/Users/zaksoul/Documents/3r_UNI/2nd_SEMESTER/BSC/FRAG_RECON/RESULTS/2

>  <s_m_Source_File>  (78) 
000000287.mol2

>  <i_m_Source_File_Index>  (78) 
1

$$$$
No_0_307,No_0_308,No_0_309
     RDKit          3D

 42 48  0  0  1  0  0  0  0  0999 V2000
   -5.1810    3.6090  -21.8530 C   0  0  0  0  0  0  0  0  0  0  0  0
   -5.4520    3.8050  -23.1860 C   0  0  0  0  0  0  0  0  0  0  0  0
   -3.9420    3.3510  -21.5190 C   0  0  0  0  0  0  0  0  0  0  0  0
   -3.0590    3.4860  -23.6870 C   0  0  0  0  0  0  0  0  0  0  0  0
   -2.8930    3.2340  -22.2690 C   0  0  0  0  0  0  0  0  0  0  0  0
   -4.4090    3.7540  -24.2010 C   0  0  0  0  0  0  0  0  0  0  0  0
   -3.6630    3.7850  -26.4030 C   0  0  0  0  0  0  0  0  0  0  0  0
    6.0870    3.0010  -21.1820 C   0  0  0  0  0  0  0  0  0  0  0  0
    5.9380    3.1560  -23.7310 C   0  0  0  0  0  0  0  0  0  0  0  0
   -4.6650    3.8890  -25.5350 C   0  0  0  0  0  0  0  0  0  0  0  0
    2.1540    3.7130  -23.7290 C   0  0  0  0  0  0  0  0  0  0  0  0
    1.3370    4.8230  -23.4210 C   0  0  0  0  0  0  0  0  0  0  0  0
    3.1410    6.0110  -22.7430 C   0  0  0  0  0  0  0  0  0  0  0  0
    3.5570    3.8990  -23.4210 C   0  0  0  0  0  0  0  0  0  0  0  0
    1.6030    2.6010  -24.3930 C   0  0  0  0  0  0  0  0  0  0  0  0
   -0.5220    3.4190  -24.2700 C   0  0  0  0  0  0  0  0  0  0  0  0
    0.0100    4.6350  -23.6670 C   0  0  0  0  0  0  0  0  0  0  0  0
   -1.9770    3.4300  -24.6180 C   0  0  0  0  0  0  0  0  0  0  0  0
    4.1570    1.3990  -23.1440 C   0  0  0  0  0  0  0  0  0  0  0  0
    5.0950    1.0350  -22.0030 C   0  0  2  0  0  0  0  0  0  0  0  0
    6.6890    2.5740  -22.5390 C   0  0  2  0  0  0  0  0  0  0  0  0
    5.0840    2.0310  -20.8310 C   0  0  0  0  0  0  0  0  0  0  0  0
   -2.3080    3.5970  -26.0440 C   0  0  0  0  0  0  0  0  0  0  0  0
   -1.5470    2.8150  -21.6780 C   0  0  0  0  0  0  0  0  0  0  0  0
   -0.5150    2.4620  -21.1780 C   0  0  0  0  0  0  0  0  0  0  0  0
   -0.8280    5.6800  -23.3140 F   0  0  0  0  0  0  0  0  0  0  0  0
   -3.7260    3.1020  -20.1390 F   0  0  0  0  0  0  0  0  0  0  0  0
    1.8200    5.9780  -22.8860 N   0  0  0  0  0  0  0  0  0  0  0  0
    4.0350    5.0470  -22.9720 N   0  0  0  0  0  0  0  0  0  0  0  0
    0.2950    2.5160  -24.6930 N   0  0  0  0  0  0  0  0  0  0  0  0
    4.4710    2.8500  -23.6070 N   0  0  0  0  0  0  0  0  0  0  0  0
    6.5000    1.1010  -22.4910 N   0  0  0  0  0  0  0  0  0  0  0  0
   -3.8410    3.8060  -27.7920 O   0  0  0  0  0  0  0  0  0  0  0  0
    7.5300    9.4620  -22.9460 O   0  0  0  0  0  0  0  0  0  0  0  0
    4.4410    7.1980  -20.9650 N   0  0  0  0  0  0  0  0  0  0  0  0
    6.2090    9.1860  -22.5290 N   0  0  0  0  0  0  0  0  0  0  0  0
    5.0950    8.4550  -20.4530 C   0  0  0  0  0  0  0  0  0  0  0  0
    3.7060    7.3460  -22.2710 C   0  0  0  0  0  0  0  0  0  0  0  0
    6.3080    8.8400  -21.2810 C   0  0  0  0  0  0  0  0  0  0  0  0
    8.1930    8.5340  -19.4530 C   0  0  0  0  0  0  0  0  0  0  0  0
    8.3270    9.2560  -21.8980 C   0  0  0  0  0  0  0  0  0  0  0  0
    7.6500    8.8690  -20.8270 C   0  0  0  0  0  0  0  0  0  0  0  0
  1  2  2  0
  1  3  1  0
  2  6  1  0
  3  5  2  0
  3 27  1  0
  4  5  1  0
  4  6  2  0
  4 18  1  0
  5 24  1  0
  6 10  1  0
  7 10  2  0
  7 23  1  0
  7 33  1  0
 21  8  1  1
  8 22  1  0
  9 21  1  0
  9 31  1  0
 11 12  1  0
 11 14  1  0
 11 15  2  0
 12 17  2  0
 12 28  1  0
 13 28  2  0
 13 29  1  0
 13 38  1  0
 14 29  2  0
 14 31  1  0
 15 30  1  0
 16 17  1  0
 16 18  1  0
 16 30  2  0
 17 26  1  0
 18 23  2  0
 20 19  1  6
 19 31  1  0
 20 22  1  0
 20 32  1  0
 21 32  1  0
 24 25  3  0
 34 36  1  0
 34 41  1  0
 35 37  1  0
 35 38  1  0
 36 39  2  0
 37 39  1  0
 39 42  1  0
 40 42  1  0
 41 42  2  0
M  END
>  <s_m_entry_id>  (79) 
448

>  <s_m_entry_name>  (79) 
000000290.1

>  <s_m_Source_Path>  (79) 
/Users/zaksoul/Documents/3r_UNI/2nd_SEMESTER/BSC/FRAG_RECON/RESULTS/2

>  <s_m_Source_File>  (79) 
000000290.mol2

>  <i_m_Source_File_Index>  (79) 
1

$$$$
No_0_310,No_0_311,No_0_312
     RDKit          3D

 44 50  0  0  1  0  0  0  0  0999 V2000
   -4.9260    3.5110  -22.1810 C   0  0  0  0  0  0  0  0  0  0  0  0
   -5.1930    3.7090  -23.5150 C   0  0  0  0  0  0  0  0  0  0  0  0
   -3.6880    3.2510  -21.8430 C   0  0  0  0  0  0  0  0  0  0  0  0
   -2.7990    3.3870  -24.0090 C   0  0  0  0  0  0  0  0  0  0  0  0
   -2.6380    3.1330  -22.5900 C   0  0  0  0  0  0  0  0  0  0  0  0
   -4.1460    3.6580  -24.5260 C   0  0  0  0  0  0  0  0  0  0  0  0
   -3.3930    3.6900  -26.7250 C   0  0  0  0  0  0  0  0  0  0  0  0
    6.3390    2.8820  -21.4760 C   0  0  0  0  0  0  0  0  0  0  0  0
    6.1980    3.0400  -24.0240 C   0  0  0  0  0  0  0  0  0  0  0  0
   -4.3980    3.7950  -25.8610 C   0  0  0  0  0  0  0  0  0  0  0  0
    2.4150    3.6050  -24.0340 C   0  0  0  0  0  0  0  0  0  0  0  0
    1.6000    4.7150  -23.7270 C   0  0  0  0  0  0  0  0  0  0  0  0
    3.4040    5.8990  -23.0420 C   0  0  0  0  0  0  0  0  0  0  0  0
    3.8170    3.7870  -23.7210 C   0  0  0  0  0  0  0  0  0  0  0  0
    1.8640    2.4940  -24.7010 C   0  0  0  0  0  0  0  0  0  0  0  0
   -0.2600    3.3160  -24.5830 C   0  0  0  0  0  0  0  0  0  0  0  0
    0.2730    4.5300  -23.9770 C   0  0  0  0  0  0  0  0  0  0  0  0
   -1.7130    3.3300  -24.9360 C   0  0  0  0  0  0  0  0  0  0  0  0
    4.4120    1.2850  -23.4450 C   0  0  0  0  0  0  0  0  0  0  0  0
    5.3460    0.9180  -22.3020 C   0  0  2  0  0  0  0  0  0  0  0  0
    6.9450    2.4560  -22.8310 C   0  0  2  0  0  0  0  0  0  0  0  0
    5.3330    1.9130  -21.1290 C   0  0  0  0  0  0  0  0  0  0  0  0
   -2.0400    3.5000  -26.3620 C   0  0  0  0  0  0  0  0  0  0  0  0
   -1.2940    2.7100  -21.9950 C   0  0  0  0  0  0  0  0  0  0  0  0
   -0.2650    2.3550  -21.4930 C   0  0  0  0  0  0  0  0  0  0  0  0
   -0.5640    5.5770  -23.6250 F   0  0  0  0  0  0  0  0  0  0  0  0
   -3.4770    2.9990  -20.4620 F   0  0  0  0  0  0  0  0  0  0  0  0
    2.0820    5.8680  -23.1890 N   0  0  0  0  0  0  0  0  0  0  0  0
    4.2960    4.9330  -23.2690 N   0  0  0  0  0  0  0  0  0  0  0  0
    0.5560    2.4120  -25.0050 N   0  0  0  0  0  0  0  0  0  0  0  0
    4.7300    2.7370  -23.9060 N   0  0  0  0  0  0  0  0  0  0  0  0
    6.7520    0.9820  -22.7850 N   0  0  0  0  0  0  0  0  0  0  0  0
   -3.5680    3.7140  -28.1150 O   0  0  0  0  0  0  0  0  0  0  0  0
    6.1270    6.6180  -19.0170 Cl  0  0  0  0  0  0  0  0  0  0  0  0
    3.6450    7.4910  -21.1180 N   0  0  0  0  0  0  0  0  0  0  0  0
    7.6990    9.4710  -21.1490 N   0  0  0  0  0  0  0  0  0  0  0  0
    6.3920    9.7740  -21.3230 N   0  0  0  0  0  0  0  0  0  0  0  0
    4.1920    8.7780  -20.5530 C   0  0  0  0  0  0  0  0  0  0  0  0
    5.7100    8.8350  -20.6170 C   0  0  0  0  0  0  0  0  0  0  0  0
    3.9690    7.2330  -22.5660 C   0  0  0  0  0  0  0  0  0  0  0  0
    6.5430    7.9790  -20.0160 C   0  0  0  0  0  0  0  0  0  0  0  0
    5.9000   10.8940  -22.1320 C   0  0  0  0  0  0  0  0  0  0  0  0
    9.1530    7.8120  -19.9980 C   0  0  0  0  0  0  0  0  0  0  0  0
    7.8210    8.4170  -20.3830 C   0  0  0  0  0  0  0  0  0  0  0  0
  1  2  2  0
  1  3  1  0
  2  6  1  0
  3  5  2  0
  3 27  1  0
  4  5  1  0
  4  6  2  0
  4 18  1  0
  5 24  1  0
  6 10  1  0
  7 10  2  0
  7 23  1  0
  7 33  1  0
 21  8  1  1
  8 22  1  0
  9 21  1  0
  9 31  1  0
 11 12  1  0
 11 14  1  0
 11 15  2  0
 12 17  2  0
 12 28  1  0
 13 28  2  0
 13 29  1  0
 13 40  1  0
 14 29  2  0
 14 31  1  0
 15 30  1  0
 16 17  1  0
 16 18  1  0
 16 30  2  0
 17 26  1  0
 18 23  2  0
 20 19  1  6
 19 31  1  0
 20 22  1  0
 20 32  1  0
 21 32  1  0
 24 25  3  0
 34 41  1  0
 35 38  1  0
 35 40  1  0
 36 37  1  0
 36 44  2  0
 37 39  1  0
 37 42  1  0
 38 39  1  0
 39 41  2  0
 41 44  1  0
 43 44  1  0
M  END
>  <s_m_entry_id>  (80) 
451

>  <s_m_entry_name>  (80) 
000000293.1

>  <s_m_Source_Path>  (80) 
/Users/zaksoul/Documents/3r_UNI/2nd_SEMESTER/BSC/FRAG_RECON/RESULTS/2

>  <s_m_Source_File>  (80) 
000000293.mol2

>  <i_m_Source_File_Index>  (80) 
1

$$$$
No_0_313
     RDKit          3D

 43 49  0  0  1  0  0  0  0  0999 V2000
   -5.2900    3.5720  -21.9960 C   0  0  0  0  0  0  0  0  0  0  0  0
   -5.5630    3.7720  -23.3280 C   0  0  0  0  0  0  0  0  0  0  0  0
   -4.0510    3.3090  -21.6640 C   0  0  0  0  0  0  0  0  0  0  0  0
   -3.1720    3.4460  -23.8340 C   0  0  0  0  0  0  0  0  0  0  0  0
   -3.0040    3.1900  -22.4160 C   0  0  0  0  0  0  0  0  0  0  0  0
   -4.5200    3.7210  -24.3450 C   0  0  0  0  0  0  0  0  0  0  0  0
   -3.7780    3.7540  -26.5470 C   0  0  0  0  0  0  0  0  0  0  0  0
    5.9770    2.9230  -21.3430 C   0  0  0  0  0  0  0  0  0  0  0  0
    5.8240    3.0850  -23.8910 C   0  0  0  0  0  0  0  0  0  0  0  0
   -4.7780    3.8590  -25.6780 C   0  0  0  0  0  0  0  0  0  0  0  0
    2.0430    3.6550  -23.8820 C   0  0  0  0  0  0  0  0  0  0  0  0
    1.2300    4.7670  -23.5700 C   0  0  0  0  0  0  0  0  0  0  0  0
    3.0400    5.9460  -22.8920 C   0  0  0  0  0  0  0  0  0  0  0  0
    3.4460    3.8360  -23.5760 C   0  0  0  0  0  0  0  0  0  0  0  0
    1.4860    2.5470  -24.5490 C   0  0  0  0  0  0  0  0  0  0  0  0
   -0.6350    3.3720  -24.4200 C   0  0  0  0  0  0  0  0  0  0  0  0
   -0.0980    4.5840  -23.8150 C   0  0  0  0  0  0  0  0  0  0  0  0
   -2.0900    3.3890  -24.7660 C   0  0  0  0  0  0  0  0  0  0  0  0
    4.0380    1.3320  -23.3060 C   0  0  0  0  0  0  0  0  0  0  0  0
    4.9760    0.9620  -22.1670 C   0  0  2  0  0  0  0  0  0  0  0  0
    6.5760    2.4970  -22.7010 C   0  0  2  0  0  0  0  0  0  0  0  0
    4.9710    1.9550  -20.9930 C   0  0  0  0  0  0  0  0  0  0  0  0
   -2.4230    3.5610  -26.1910 C   0  0  0  0  0  0  0  0  0  0  0  0
   -1.6590    2.7640  -21.8280 C   0  0  0  0  0  0  0  0  0  0  0  0
   -0.6280    2.4070  -21.3310 C   0  0  0  0  0  0  0  0  0  0  0  0
   -0.9320    5.6320  -23.4580 F   0  0  0  0  0  0  0  0  0  0  0  0
   -3.8340    3.0550  -20.2850 F   0  0  0  0  0  0  0  0  0  0  0  0
    1.7170    5.9190  -23.0330 N   0  0  0  0  0  0  0  0  0  0  0  0
    3.9290    4.9800  -23.1240 N   0  0  0  0  0  0  0  0  0  0  0  0
    0.1780    2.4670  -24.8470 N   0  0  0  0  0  0  0  0  0  0  0  0
    4.3570    2.7830  -23.7660 N   0  0  0  0  0  0  0  0  0  0  0  0
    6.3810    1.0240  -22.6570 N   0  0  0  0  0  0  0  0  0  0  0  0
   -3.9580    3.7800  -27.9360 O   0  0  0  0  0  0  0  0  0  0  0  0
    4.7020   10.0010  -22.6820 F   0  0  0  0  0  0  0  0  0  0  0  0
    4.2800    7.1220  -21.0750 N   0  0  0  0  0  0  0  0  0  0  0  0
    7.0200    8.9060  -20.1290 N   0  0  0  0  0  0  0  0  0  0  0  0
    3.6100    7.2790  -22.4170 C   0  0  0  0  0  0  0  0  0  0  0  0
    4.6330    8.4030  -20.3610 C   0  0  0  0  0  0  0  0  0  0  0  0
    5.8990    9.0840  -20.8570 C   0  0  0  0  0  0  0  0  0  0  0  0
    5.8460    9.8570  -21.9970 C   0  0  0  0  0  0  0  0  0  0  0  0
    6.9850   10.4890  -22.4280 C   0  0  0  0  0  0  0  0  0  0  0  0
    8.1180    9.5440  -20.5810 C   0  0  0  0  0  0  0  0  0  0  0  0
    8.1370   10.3310  -21.7070 C   0  0  0  0  0  0  0  0  0  0  0  0
  1  2  2  0
  1  3  1  0
  2  6  1  0
  3  5  2  0
  3 27  1  0
  4  5  1  0
  4  6  2  0
  4 18  1  0
  5 24  1  0
  6 10  1  0
  7 10  2  0
  7 23  1  0
  7 33  1  0
 21  8  1  1
  8 22  1  0
  9 21  1  0
  9 31  1  0
 11 12  1  0
 11 14  1  0
 11 15  2  0
 12 17  2  0
 12 28  1  0
 13 28  2  0
 13 29  1  0
 13 37  1  0
 14 29  2  0
 14 31  1  0
 15 30  1  0
 16 17  1  0
 16 18  1  0
 16 30  2  0
 17 26  1  0
 18 23  2  0
 20 19  1  6
 19 31  1  0
 20 22  1  0
 20 32  1  0
 21 32  1  0
 24 25  3  0
 34 40  1  0
 35 37  1  0
 35 38  1  0
 36 39  2  0
 36 42  1  0
 38 39  1  0
 39 40  1  0
 40 41  2  0
 41 43  1  0
 42 43  2  0
M  END
>  <s_m_entry_id>  (81) 
454

>  <s_m_entry_name>  (81) 
000000296.1

>  <s_m_Source_Path>  (81) 
/Users/zaksoul/Documents/3r_UNI/2nd_SEMESTER/BSC/FRAG_RECON/RESULTS/2

>  <s_m_Source_File>  (81) 
000000296.mol2

>  <i_m_Source_File_Index>  (81) 
1

$$$$
No_0_314
     RDKit          3D

 43 49  0  0  1  0  0  0  0  0999 V2000
   -5.0160    3.7230  -22.0580 C   0  0  0  0  0  0  0  0  0  0  0  0
   -5.2570    3.9000  -23.4000 C   0  0  0  0  0  0  0  0  0  0  0  0
   -3.7930    3.4260  -21.6960 C   0  0  0  0  0  0  0  0  0  0  0  0
   -2.8700    3.4800  -23.8510 C   0  0  0  0  0  0  0  0  0  0  0  0
   -2.7370    3.2530  -22.4250 C   0  0  0  0  0  0  0  0  0  0  0  0
   -4.1980    3.7880  -24.3950 C   0  0  0  0  0  0  0  0  0  0  0  0
   -3.4140    3.7420  -26.5820 C   0  0  0  0  0  0  0  0  0  0  0  0
    6.2070    2.7030  -21.1730 C   0  0  0  0  0  0  0  0  0  0  0  0
    6.1080    2.8070  -23.7260 C   0  0  0  0  0  0  0  0  0  0  0  0
   -4.4270    3.9030  -25.7350 C   0  0  0  0  0  0  0  0  0  0  0  0
    2.3490    3.5080  -23.8040 C   0  0  0  0  0  0  0  0  0  0  0  0
    1.5700    4.6540  -23.5340 C   0  0  0  0  0  0  0  0  0  0  0  0
    3.4070    5.7870  -22.8500 C   0  0  0  0  0  0  0  0  0  0  0  0
    3.7520    3.6470  -23.4750 C   0  0  0  0  0  0  0  0  0  0  0  0
    1.7660    2.4030  -24.4540 C   0  0  0  0  0  0  0  0  0  0  0  0
   -0.3270    3.3040  -24.3860 C   0  0  0  0  0  0  0  0  0  0  0  0
    0.2410    4.5110  -23.8000 C   0  0  0  0  0  0  0  0  0  0  0  0
   -1.7740    3.3630  -24.7610 C   0  0  0  0  0  0  0  0  0  0  0  0
    4.2510    1.1320  -23.1340 C   0  0  0  0  0  0  0  0  0  0  0  0
    5.1550    0.7580  -21.9690 C   0  0  2  0  0  0  0  0  0  0  0  0
    6.8160    2.2240  -22.5090 C   0  0  2  0  0  0  0  0  0  0  0  0
    5.1620    1.7790  -20.8190 C   0  0  0  0  0  0  0  0  0  0  0  0
   -2.0740    3.5110  -26.1950 C   0  0  0  0  0  0  0  0  0  0  0  0
   -1.4190    2.7950  -21.8010 C   0  0  0  0  0  0  0  0  0  0  0  0
   -0.4100    2.4150  -21.2760 C   0  0  0  0  0  0  0  0  0  0  0  0
   -0.5620    5.5950  -23.4840 F   0  0  0  0  0  0  0  0  0  0  0  0
   -3.6110    3.1990  -20.3070 F   0  0  0  0  0  0  0  0  0  0  0  0
    2.0870    5.8010  -23.0150 N   0  0  0  0  0  0  0  0  0  0  0  0
    4.2660    4.7850  -23.0420 N   0  0  0  0  0  0  0  0  0  0  0  0
    0.4620    2.3610  -24.7760 N   0  0  0  0  0  0  0  0  0  0  0  0
    4.6290    2.5600  -23.6220 N   0  0  0  0  0  0  0  0  0  0  0  0
    6.5690    0.7600  -22.4330 N   0  0  0  0  0  0  0  0  0  0  0  0
   -3.5680    3.7400  -27.9740 O   0  0  0  0  0  0  0  0  0  0  0  0
    4.6560    6.9740  -21.0390 N   0  0  0  0  0  0  0  0  0  0  0  0
    6.4120    9.0540  -22.4350 N   0  0  0  0  0  0  0  0  0  0  0  0
    7.9400    8.0230  -19.2380 N   0  0  0  0  0  0  0  0  0  0  0  0
    4.0140    7.1100  -22.3960 C   0  0  0  0  0  0  0  0  0  0  0  0
    5.2530    8.2380  -20.4750 C   0  0  0  0  0  0  0  0  0  0  0  0
    6.5600    8.6100  -21.1710 C   0  0  0  0  0  0  0  0  0  0  0  0
    7.8000    8.4880  -20.5500 C   0  0  0  0  0  0  0  0  0  0  0  0
    8.8000    9.2860  -22.5410 C   0  0  0  0  0  0  0  0  0  0  0  0
    8.9280    8.8330  -21.2600 C   0  0  0  0  0  0  0  0  0  0  0  0
    7.5440    9.3820  -23.0870 C   0  0  0  0  0  0  0  0  0  0  0  0
  1  2  2  0
  1  3  1  0
  2  6  1  0
  3  5  2  0
  3 27  1  0
  4  5  1  0
  4  6  2  0
  4 18  1  0
  5 24  1  0
  6 10  1  0
  7 10  2  0
  7 23  1  0
  7 33  1  0
 21  8  1  1
  8 22  1  0
  9 21  1  0
  9 31  1  0
 11 12  1  0
 11 14  1  0
 11 15  2  0
 12 17  2  0
 12 28  1  0
 13 28  2  0
 13 29  1  0
 13 37  1  0
 14 29  2  0
 14 31  1  0
 15 30  1  0
 16 17  1  0
 16 18  1  0
 16 30  2  0
 17 26  1  0
 18 23  2  0
 20 19  1  6
 19 31  1  0
 20 22  1  0
 20 32  1  0
 21 32  1  0
 24 25  3  0
 34 37  1  0
 34 38  1  0
 35 39  2  0
 35 43  1  0
 36 40  1  0
 38 39  1  0
 39 40  1  0
 40 42  2  0
 41 42  1  0
 41 43  2  0
M  END
>  <s_m_entry_id>  (82) 
455

>  <s_m_entry_name>  (82) 
000000297.1

>  <s_m_Source_Path>  (82) 
/Users/zaksoul/Documents/3r_UNI/2nd_SEMESTER/BSC/FRAG_RECON/RESULTS/2

>  <s_m_Source_File>  (82) 
000000297.mol2

>  <i_m_Source_File_Index>  (82) 
1

$$$$
No_0_315,No_0_316
     RDKit          3D

 43 49  0  0  1  0  0  0  0  0999 V2000
   -5.3200    3.5520  -22.0180 C   0  0  0  0  0  0  0  0  0  0  0  0
   -5.5910    3.7470  -23.3510 C   0  0  0  0  0  0  0  0  0  0  0  0
   -4.0810    3.2950  -21.6830 C   0  0  0  0  0  0  0  0  0  0  0  0
   -3.1980    3.4300  -23.8510 C   0  0  0  0  0  0  0  0  0  0  0  0
   -3.0320    3.1790  -22.4320 C   0  0  0  0  0  0  0  0  0  0  0  0
   -4.5470    3.6970  -24.3660 C   0  0  0  0  0  0  0  0  0  0  0  0
   -3.8000    3.7270  -26.5670 C   0  0  0  0  0  0  0  0  0  0  0  0
    5.9480    2.9540  -21.3420 C   0  0  0  0  0  0  0  0  0  0  0  0
    5.8000    3.1070  -23.8910 C   0  0  0  0  0  0  0  0  0  0  0  0
   -4.8030    3.8310  -25.7000 C   0  0  0  0  0  0  0  0  0  0  0  0
    2.0160    3.6620  -23.8910 C   0  0  0  0  0  0  0  0  0  0  0  0
    1.1980    4.7700  -23.5840 C   0  0  0  0  0  0  0  0  0  0  0  0
    3.0010    5.9600  -22.9060 C   0  0  0  0  0  0  0  0  0  0  0  0
    3.4180    3.8490  -23.5820 C   0  0  0  0  0  0  0  0  0  0  0  0
    1.4650    2.5480  -24.5550 C   0  0  0  0  0  0  0  0  0  0  0  0
   -0.6600    3.3650  -24.4320 C   0  0  0  0  0  0  0  0  0  0  0  0
   -0.1290    4.5810  -23.8300 C   0  0  0  0  0  0  0  0  0  0  0  0
   -2.1150    3.3750  -24.7810 C   0  0  0  0  0  0  0  0  0  0  0  0
    4.0200    1.3490  -23.3040 C   0  0  0  0  0  0  0  0  0  0  0  0
    4.9580    0.9860  -22.1620 C   0  0  2  0  0  0  0  0  0  0  0  0
    6.5510    2.5270  -22.6980 C   0  0  2  0  0  0  0  0  0  0  0  0
    4.9460    1.9820  -20.9910 C   0  0  0  0  0  0  0  0  0  0  0  0
   -2.4460    3.5410  -26.2070 C   0  0  0  0  0  0  0  0  0  0  0  0
   -1.6860    2.7610  -21.8410 C   0  0  0  0  0  0  0  0  0  0  0  0
   -0.6540    2.4090  -21.3410 C   0  0  0  0  0  0  0  0  0  0  0  0
   -0.9680    5.6260  -23.4780 F   0  0  0  0  0  0  0  0  0  0  0  0
   -3.8660    3.0460  -20.3020 F   0  0  0  0  0  0  0  0  0  0  0  0
    1.6790    5.9260  -23.0490 N   0  0  0  0  0  0  0  0  0  0  0  0
    3.8950    4.9970  -23.1330 N   0  0  0  0  0  0  0  0  0  0  0  0
    0.1570    2.4620  -24.8550 N   0  0  0  0  0  0  0  0  0  0  0  0
    4.3330    2.8000  -23.7680 N   0  0  0  0  0  0  0  0  0  0  0  0
    6.3630    1.0530  -22.6500 N   0  0  0  0  0  0  0  0  0  0  0  0
   -3.9790    3.7480  -27.9560 O   0  0  0  0  0  0  0  0  0  0  0  0
    4.9750   10.4280  -22.4460 O   0  0  0  0  0  0  0  0  0  0  0  0
    3.5670    7.3960  -20.9300 N   0  0  0  0  0  0  0  0  0  0  0  0
    7.2130   10.0230  -22.1170 N   0  0  0  0  0  0  0  0  0  0  0  0
    5.5730    8.9160  -20.7270 C   0  0  0  0  0  0  0  0  0  0  0  0
    3.5640    7.2960  -22.4340 C   0  0  0  0  0  0  0  0  0  0  0  0
    4.1110    8.6840  -20.3670 C   0  0  0  0  0  0  0  0  0  0  0  0
    7.8730    8.4940  -20.3920 C   0  0  0  0  0  0  0  0  0  0  0  0
    6.5630    8.2700  -20.0430 C   0  0  0  0  0  0  0  0  0  0  0  0
    5.9370    9.7770  -21.7500 C   0  0  0  0  0  0  0  0  0  0  0  0
    8.1560    9.3610  -21.4150 C   0  0  0  0  0  0  0  0  0  0  0  0
  1  2  2  0
  1  3  1  0
  2  6  1  0
  3  5  2  0
  3 27  1  0
  4  5  1  0
  4  6  2  0
  4 18  1  0
  5 24  1  0
  6 10  1  0
  7 10  2  0
  7 23  1  0
  7 33  1  0
 21  8  1  1
  8 22  1  0
  9 21  1  0
  9 31  1  0
 11 12  1  0
 11 14  1  0
 11 15  2  0
 12 17  2  0
 12 28  1  0
 13 28  2  0
 13 29  1  0
 13 38  1  0
 14 29  2  0
 14 31  1  0
 15 30  1  0
 16 17  1  0
 16 18  1  0
 16 30  2  0
 17 26  1  0
 18 23  2  0
 20 19  1  6
 19 31  1  0
 20 22  1  0
 20 32  1  0
 21 32  1  0
 24 25  3  0
 34 42  2  0
 35 38  1  0
 35 39  1  0
 36 42  1  0
 36 43  1  0
 37 39  1  0
 37 41  2  0
 37 42  1  0
 40 41  1  0
 40 43  2  0
M  END
>  <s_m_entry_id>  (83) 
456

>  <s_m_entry_name>  (83) 
000000298.1

>  <s_m_Source_Path>  (83) 
/Users/zaksoul/Documents/3r_UNI/2nd_SEMESTER/BSC/FRAG_RECON/RESULTS/2

>  <s_m_Source_File>  (83) 
000000298.mol2

>  <i_m_Source_File_Index>  (83) 
1

$$$$
No_0_317,No_0_318
     RDKit          3D

 44 50  0  0  1  0  0  0  0  0999 V2000
   -4.9120    3.5680  -21.9160 C   0  0  0  0  0  0  0  0  0  0  0  0
   -5.2120    3.7400  -23.2460 C   0  0  0  0  0  0  0  0  0  0  0  0
   -3.6650    3.3210  -21.6030 C   0  0  0  0  0  0  0  0  0  0  0  0
   -2.8280    3.4240  -23.7910 C   0  0  0  0  0  0  0  0  0  0  0  0
   -2.6320    3.1970  -22.3720 C   0  0  0  0  0  0  0  0  0  0  0  0
   -4.1890    3.6770  -24.2820 C   0  0  0  0  0  0  0  0  0  0  0  0
   -3.4880    3.6750  -26.4980 C   0  0  0  0  0  0  0  0  0  0  0  0
    6.3700    3.0240  -21.4670 C   0  0  0  0  0  0  0  0  0  0  0  0
    6.1680    3.1360  -24.0130 C   0  0  0  0  0  0  0  0  0  0  0  0
   -4.4730    3.7880  -25.6120 C   0  0  0  0  0  0  0  0  0  0  0  0
    2.3830    3.6750  -23.9430 C   0  0  0  0  0  0  0  0  0  0  0  0
    1.5670    4.7860  -23.6370 C   0  0  0  0  0  0  0  0  0  0  0  0
    3.3780    5.9930  -23.0160 C   0  0  0  0  0  0  0  0  0  0  0  0
    3.7900    3.8730  -23.6670 C   0  0  0  0  0  0  0  0  0  0  0  0
    1.8230    2.5490  -24.5780 C   0  0  0  0  0  0  0  0  0  0  0  0
   -0.3030    3.3590  -24.4240 C   0  0  0  0  0  0  0  0  0  0  0  0
    0.2350    4.5880  -23.8530 C   0  0  0  0  0  0  0  0  0  0  0  0
   -1.7640    3.3580  -24.7420 C   0  0  0  0  0  0  0  0  0  0  0  0
    4.4090    1.3800  -23.3610 C   0  0  0  0  0  0  0  0  0  0  0  0
    5.3710    1.0400  -22.2340 C   0  0  2  0  0  0  0  0  0  0  0  0
    6.9470    2.5780  -22.8280 C   0  0  2  0  0  0  0  0  0  0  0  0
    5.3800    2.0550  -21.0790 C   0  0  0  0  0  0  0  0  0  0  0  0
   -2.1250    3.5000  -26.1640 C   0  0  0  0  0  0  0  0  0  0  0  0
   -1.2720    2.7930  -21.8020 C   0  0  0  0  0  0  0  0  0  0  0  0
   -0.2280    2.4540  -21.3180 C   0  0  0  0  0  0  0  0  0  0  0  0
   -0.6000    5.6350  -23.5000 F   0  0  0  0  0  0  0  0  0  0  0  0
   -3.4200    3.0960  -20.2230 F   0  0  0  0  0  0  0  0  0  0  0  0
    2.0540    5.9520  -23.1310 N   0  0  0  0  0  0  0  0  0  0  0  0
    4.2710    5.0300  -23.2470 N   0  0  0  0  0  0  0  0  0  0  0  0
    0.5100    2.4530  -24.8490 N   0  0  0  0  0  0  0  0  0  0  0  0
    4.7060    2.8250  -23.8550 N   0  0  0  0  0  0  0  0  0  0  0  0
    6.7660    1.1050  -22.7520 N   0  0  0  0  0  0  0  0  0  0  0  0
   -3.6950    3.6730  -27.8830 O   0  0  0  0  0  0  0  0  0  0  0  0
    4.3120    7.3120  -21.1170 N   0  0  0  0  0  0  0  0  0  0  0  0
    5.0220    8.5340  -20.5810 C   0  0  0  0  0  0  0  0  0  0  0  0
    6.7280    9.5710  -22.1490 C   0  0  0  0  0  0  0  0  0  0  0  0
    7.4880    7.9600  -20.5590 C   0  0  0  0  0  0  0  0  0  0  0  0
    3.9460    7.3390  -22.5780 C   0  0  0  0  0  0  0  0  0  0  0  0
    6.4490    8.6910  -21.1140 C   0  0  0  0  0  0  0  0  0  0  0  0
    9.0360    8.9560  -22.0790 C   0  0  0  0  0  0  0  0  0  0  0  0
    8.0140    9.6930  -22.6250 C   0  0  0  0  0  0  0  0  0  0  0  0
    8.7690    8.0950  -21.0440 C   0  0  0  0  0  0  0  0  0  0  0  0
    5.6920   10.4670  -22.8140 C   0  0  0  0  0  0  0  0  0  0  0  0
    7.3460    6.9930  -19.3920 C   0  0  0  0  0  0  0  0  0  0  0  0
  1  2  2  0
  1  3  1  0
  2  6  1  0
  3  5  2  0
  3 27  1  0
  4  5  1  0
  4  6  2  0
  4 18  1  0
  5 24  1  0
  6 10  1  0
  7 10  2  0
  7 23  1  0
  7 33  1  0
 21  8  1  1
  8 22  1  0
  9 21  1  0
  9 31  1  0
 11 12  1  0
 11 14  1  0
 11 15  2  0
 12 17  2  0
 12 28  1  0
 13 28  2  0
 13 29  1  0
 13 38  1  0
 14 29  2  0
 14 31  1  0
 15 30  1  0
 16 17  1  0
 16 18  1  0
 16 30  2  0
 17 26  1  0
 18 23  2  0
 20 19  1  6
 19 31  1  0
 20 22  1  0
 20 32  1  0
 21 32  1  0
 24 25  3  0
 34 35  1  0
 34 38  1  0
 35 39  1  0
 36 39  2  0
 36 41  1  0
 36 43  1  0
 37 39  1  0
 37 42  2  0
 37 44  1  0
 40 41  2  0
 40 42  1  0
M  CHG  1  34   1
M  END
>  <s_m_entry_id>  (84) 
458

>  <s_m_entry_name>  (84) 
000000300.1

>  <s_m_Source_Path>  (84) 
/Users/zaksoul/Documents/3r_UNI/2nd_SEMESTER/BSC/FRAG_RECON/RESULTS/2

>  <s_m_Source_File>  (84) 
000000300.mol2

>  <i_m_Source_File_Index>  (84) 
1

$$$$
No_0_319
     RDKit          3D

 45 52  0  0  1  0  0  0  0  0999 V2000
   -5.3100    3.6940  -21.8910 C   0  0  0  0  0  0  0  0  0  0  0  0
   -5.5980    3.8590  -23.2250 C   0  0  0  0  0  0  0  0  0  0  0  0
   -4.0700    3.4260  -21.5680 C   0  0  0  0  0  0  0  0  0  0  0  0
   -3.2190    3.4890  -23.7520 C   0  0  0  0  0  0  0  0  0  0  0  0
   -3.0350    3.2730  -22.3300 C   0  0  0  0  0  0  0  0  0  0  0  0
   -4.5710    3.7650  -24.2540 C   0  0  0  0  0  0  0  0  0  0  0  0
   -3.8580    3.7260  -26.4660 C   0  0  0  0  0  0  0  0  0  0  0  0
    5.9560    2.9280  -21.3700 C   0  0  0  0  0  0  0  0  0  0  0  0
    5.7710    3.0180  -23.9190 C   0  0  0  0  0  0  0  0  0  0  0  0
   -4.8460    3.8690  -25.5860 C   0  0  0  0  0  0  0  0  0  0  0  0
    1.9970    3.6340  -23.8770 C   0  0  0  0  0  0  0  0  0  0  0  0
    1.2020    4.7640  -23.5860 C   0  0  0  0  0  0  0  0  0  0  0  0
    3.0340    5.9410  -22.9670 C   0  0  0  0  0  0  0  0  0  0  0  0
    3.4060    3.8060  -23.5940 C   0  0  0  0  0  0  0  0  0  0  0  0
    1.4180    2.5130  -24.5030 C   0  0  0  0  0  0  0  0  0  0  0  0
   -0.6920    3.3670  -24.3700 C   0  0  0  0  0  0  0  0  0  0  0  0
   -0.1320    4.5900  -23.8080 C   0  0  0  0  0  0  0  0  0  0  0  0
   -2.1510    3.3920  -24.6970 C   0  0  0  0  0  0  0  0  0  0  0  0
    3.9730    1.3040  -23.2590 C   0  0  0  0  0  0  0  0  0  0  0  0
    4.9220    0.9560  -22.1230 C   0  0  2  0  0  0  0  0  0  0  0  0
    6.5310    2.4560  -22.7230 C   0  0  2  0  0  0  0  0  0  0  0  0
    4.9440    1.9820  -20.9780 C   0  0  0  0  0  0  0  0  0  0  0  0
   -2.5010    3.5270  -26.1220 C   0  0  0  0  0  0  0  0  0  0  0  0
   -1.6870    2.8480  -21.7480 C   0  0  0  0  0  0  0  0  0  0  0  0
   -0.6530    2.4920  -21.2550 C   0  0  0  0  0  0  0  0  0  0  0  0
   -0.9480    5.6580  -23.4700 F   0  0  0  0  0  0  0  0  0  0  0  0
   -3.8370    3.2090  -20.1850 F   0  0  0  0  0  0  0  0  0  0  0  0
    1.7100    5.9250  -23.0890 N   0  0  0  0  0  0  0  0  0  0  0  0
    3.9080    4.9570  -23.1830 N   0  0  0  0  0  0  0  0  0  0  0  0
    0.1050    2.4410  -24.7810 N   0  0  0  0  0  0  0  0  0  0  0  0
    4.3020    2.7380  -23.7660 N   0  0  0  0  0  0  0  0  0  0  0  0
    6.3200    0.9870  -22.6330 N   0  0  0  0  0  0  0  0  0  0  0  0
   -4.0570    3.7140  -27.8520 O   0  0  0  0  0  0  0  0  0  0  0  0
    3.6570    7.4250  -21.0400 N   0  0  0  0  0  0  0  0  0  0  0  0
    6.9570   10.4390  -22.1300 N   0  0  0  0  0  0  0  0  0  0  0  0
    7.0090    7.7300  -19.8400 N   0  0  0  0  0  0  0  0  0  0  0  0
    8.9060    9.3000  -21.3050 N   0  0  0  0  0  0  0  0  0  0  0  0
    4.0160    8.7970  -20.5320 C   0  0  0  0  0  0  0  0  0  0  0  0
    3.6260    7.2790  -22.5380 C   0  0  0  0  0  0  0  0  0  0  0  0
    6.6640    8.7360  -20.6630 C   0  0  0  0  0  0  0  0  0  0  0  0
    5.3800    9.2590  -21.0140 C   0  0  0  0  0  0  0  0  0  0  0  0
    5.6210   10.2530  -21.8740 C   0  0  0  0  0  0  0  0  0  0  0  0
    7.5790    9.4940  -21.3720 C   0  0  0  0  0  0  0  0  0  0  0  0
    8.3350    7.5350  -19.7740 C   0  0  0  0  0  0  0  0  0  0  0  0
    9.2530    8.2960  -20.4830 C   0  0  0  0  0  0  0  0  0  0  0  0
  1  2  2  0
  1  3  1  0
  2  6  1  0
  3  5  2  0
  3 27  1  0
  4  5  1  0
  4  6  2  0
  4 18  1  0
  5 24  1  0
  6 10  1  0
  7 10  2  0
  7 23  1  0
  7 33  1  0
 21  8  1  1
  8 22  1  0
  9 21  1  0
  9 31  1  0
 11 12  1  0
 11 14  1  0
 11 15  2  0
 12 17  2  0
 12 28  1  0
 13 28  2  0
 13 29  1  0
 13 39  1  0
 14 29  2  0
 14 31  1  0
 15 30  1  0
 16 17  1  0
 16 18  1  0
 16 30  2  0
 17 26  1  0
 18 23  2  0
 20 19  1  6
 19 31  1  0
 20 22  1  0
 20 32  1  0
 21 32  1  0
 24 25  3  0
 34 38  1  0
 34 39  1  0
 35 42  1  0
 35 43  1  0
 36 40  2  0
 36 44  1  0
 37 43  2  0
 37 45  1  0
 38 41  1  0
 40 41  1  0
 40 43  1  0
 41 42  2  0
 44 45  2  0
M  END
>  <s_m_entry_id>  (85) 
460

>  <s_m_entry_name>  (85) 
000000302.1

>  <s_m_Source_Path>  (85) 
/Users/zaksoul/Documents/3r_UNI/2nd_SEMESTER/BSC/FRAG_RECON/RESULTS/2

>  <s_m_Source_File>  (85) 
000000302.mol2

>  <i_m_Source_File_Index>  (85) 
1

$$$$
No_0_320,No_0_321,No_0_322,No_0_323,No_0_324,No_0_325,No_0_326
     RDKit          3D

 41 47  0  0  1  0  0  0  0  0999 V2000
   -5.1060    3.7440  -21.7680 C   0  0  0  0  0  0  0  0  0  0  0  0
   -5.4000    3.8950  -23.1020 C   0  0  0  0  0  0  0  0  0  0  0  0
   -3.8640    3.4790  -21.4480 C   0  0  0  0  0  0  0  0  0  0  0  0
   -3.0230    3.5190  -23.6370 C   0  0  0  0  0  0  0  0  0  0  0  0
   -2.8330    3.3180  -22.2130 C   0  0  0  0  0  0  0  0  0  0  0  0
   -4.3780    3.7900  -24.1340 C   0  0  0  0  0  0  0  0  0  0  0  0
   -3.6750    3.7270  -26.3490 C   0  0  0  0  0  0  0  0  0  0  0  0
    6.1630    2.9820  -21.2920 C   0  0  0  0  0  0  0  0  0  0  0  0
    5.9660    3.0450  -23.8400 C   0  0  0  0  0  0  0  0  0  0  0  0
   -4.6590    3.8790  -25.4670 C   0  0  0  0  0  0  0  0  0  0  0  0
    2.1920    3.6620  -23.7870 C   0  0  0  0  0  0  0  0  0  0  0  0
    1.3980    4.7950  -23.5050 C   0  0  0  0  0  0  0  0  0  0  0  0
    3.2330    5.9780  -22.9060 C   0  0  0  0  0  0  0  0  0  0  0  0
    3.6030    3.8370  -23.5130 C   0  0  0  0  0  0  0  0  0  0  0  0
    1.6100    2.5350  -24.3980 C   0  0  0  0  0  0  0  0  0  0  0  0
   -0.4990    3.3910  -24.2650 C   0  0  0  0  0  0  0  0  0  0  0  0
    0.0630    4.6190  -23.7180 C   0  0  0  0  0  0  0  0  0  0  0  0
   -1.9600    3.4120  -24.5850 C   0  0  0  0  0  0  0  0  0  0  0  0
    4.1710    1.3390  -23.1540 C   0  0  0  0  0  0  0  0  0  0  0  0
    5.1250    1.0030  -22.0190 C   0  0  2  0  0  0  0  0  0  0  0  0
    6.7320    2.4960  -22.6420 C   0  0  2  0  0  0  0  0  0  0  0  0
    5.1530    2.0410  -20.8850 C   0  0  0  0  0  0  0  0  0  0  0  0
   -2.3170    3.5320  -26.0090 C   0  0  0  0  0  0  0  0  0  0  0  0
   -1.4820    2.8990  -21.6330 C   0  0  0  0  0  0  0  0  0  0  0  0
   -0.4460    2.5490  -21.1400 C   0  0  0  0  0  0  0  0  0  0  0  0
   -0.7510    5.6900  -23.3880 F   0  0  0  0  0  0  0  0  0  0  0  0
   -3.6250    3.2770  -20.0640 F   0  0  0  0  0  0  0  0  0  0  0  0
    1.9080    5.9610  -23.0230 N   0  0  0  0  0  0  0  0  0  0  0  0
    4.1070    4.9930  -23.1160 N   0  0  0  0  0  0  0  0  0  0  0  0
    0.2950    2.4600  -24.6700 N   0  0  0  0  0  0  0  0  0  0  0  0
    4.4970    2.7670  -23.6770 N   0  0  0  0  0  0  0  0  0  0  0  0
    6.5210    1.0290  -22.5360 N   0  0  0  0  0  0  0  0  0  0  0  0
   -3.8810    3.7000  -27.7340 O   0  0  0  0  0  0  0  0  0  0  0  0
    3.8610    7.4720  -20.9970 N   0  0  0  0  0  0  0  0  0  0  0  0
    8.0840    8.9640  -20.7760 N   0  0  0  0  0  0  0  0  0  0  0  0
    5.8420    9.0100  -20.8410 C   0  0  0  0  0  0  0  0  0  0  0  0
    3.8270    7.3210  -22.4950 C   0  0  0  0  0  0  0  0  0  0  0  0
    4.3810    8.7930  -20.4930 C   0  0  0  0  0  0  0  0  0  0  0  0
    6.3600    9.7050  -21.9640 C   0  0  0  0  0  0  0  0  0  0  0  0
    7.6880    9.6510  -21.8800 C   0  0  0  0  0  0  0  0  0  0  0  0
    6.9210    8.5920  -20.1710 C   0  0  0  0  0  0  0  0  0  0  0  0
  1  2  2  0
  1  3  1  0
  2  6  1  0
  3  5  2  0
  3 27  1  0
  4  5  1  0
  4  6  2  0
  4 18  1  0
  5 24  1  0
  6 10  1  0
  7 10  2  0
  7 23  1  0
  7 33  1  0
 21  8  1  1
  8 22  1  0
  9 21  1  0
  9 31  1  0
 11 12  1  0
 11 14  1  0
 11 15  2  0
 12 17  2  0
 12 28  1  0
 13 28  2  0
 13 29  1  0
 13 37  1  0
 14 29  2  0
 14 31  1  0
 15 30  1  0
 16 17  1  0
 16 18  1  0
 16 30  2  0
 17 26  1  0
 18 23  2  0
 20 19  1  6
 19 31  1  0
 20 22  1  0
 20 32  1  0
 21 32  1  0
 24 25  3  0
 34 37  1  0
 34 38  1  0
 35 40  1  0
 35 41  1  0
 36 38  1  0
 36 39  1  0
 36 41  2  0
 39 40  2  0
M  END
>  <s_m_entry_id>  (86) 
461

>  <s_m_entry_name>  (86) 
000000303.1

>  <s_m_Source_Path>  (86) 
/Users/zaksoul/Documents/3r_UNI/2nd_SEMESTER/BSC/FRAG_RECON/RESULTS/2

>  <s_m_Source_File>  (86) 
000000303.mol2

>  <i_m_Source_File_Index>  (86) 
1

$$$$
No_0_327
     RDKit          3D

 41 47  0  0  1  0  0  0  0  0999 V2000
   -5.3100    3.4140  -21.7510 C   0  0  0  0  0  0  0  0  0  0  0  0
   -5.5600    3.6450  -23.0830 C   0  0  0  0  0  0  0  0  0  0  0  0
   -4.0730    3.1700  -21.4000 C   0  0  0  0  0  0  0  0  0  0  0  0
   -3.1520    3.3860  -23.5460 C   0  0  0  0  0  0  0  0  0  0  0  0
   -3.0080    3.0950  -22.1330 C   0  0  0  0  0  0  0  0  0  0  0  0
   -4.4960    3.6450  -24.0780 C   0  0  0  0  0  0  0  0  0  0  0  0
   -3.7100    3.7560  -26.2630 C   0  0  0  0  0  0  0  0  0  0  0  0
    5.9530    2.9970  -20.8800 C   0  0  0  0  0  0  0  0  0  0  0  0
    5.8490    3.2260  -23.4250 C   0  0  0  0  0  0  0  0  0  0  0  0
   -4.7300    3.8150  -25.4120 C   0  0  0  0  0  0  0  0  0  0  0  0
    2.0560    3.7120  -23.4800 C   0  0  0  0  0  0  0  0  0  0  0  0
    1.2120    4.7960  -23.1550 C   0  0  0  0  0  0  0  0  0  0  0  0
    2.9800    5.9960  -22.4070 C   0  0  0  0  0  0  0  0  0  0  0  0
    3.4480    3.9150  -23.1400 C   0  0  0  0  0  0  0  0  0  0  0  0
    1.5380    2.6100  -24.1880 C   0  0  0  0  0  0  0  0  0  0  0  0
   -0.6040    3.3840  -24.0810 C   0  0  0  0  0  0  0  0  0  0  0  0
   -0.1060    4.5910  -23.4320 C   0  0  0  0  0  0  0  0  0  0  0  0
   -2.0510    3.3790  -24.4570 C   0  0  0  0  0  0  0  0  0  0  0  0
    4.0920    1.4180  -22.9260 C   0  0  0  0  0  0  0  0  0  0  0  0
    5.0140    1.0380  -21.7780 C   0  0  2  0  0  0  0  0  0  0  0  0
    6.5890    2.6220  -22.2370 C   0  0  2  0  0  0  0  0  0  0  0  0
    4.9630    1.9970  -20.5770 C   0  0  0  0  0  0  0  0  0  0  0  0
   -2.3590    3.5830  -25.8830 C   0  0  0  0  0  0  0  0  0  0  0  0
   -1.6660    2.6830  -21.5290 C   0  0  0  0  0  0  0  0  0  0  0  0
   -0.6370    2.3350  -21.0200 C   0  0  0  0  0  0  0  0  0  0  0  0
   -0.9710    5.6100  -23.0640 F   0  0  0  0  0  0  0  0  0  0  0  0
   -3.8780    2.8830  -20.0240 F   0  0  0  0  0  0  0  0  0  0  0  0
    1.6620    5.9430  -22.5760 N   0  0  0  0  0  0  0  0  0  0  0  0
    3.8960    5.0570  -22.6470 N   0  0  0  0  0  0  0  0  0  0  0  0
    0.2380    2.5100  -24.5160 N   0  0  0  0  0  0  0  0  0  0  0  0
    4.3860    2.8890  -23.3390 N   0  0  0  0  0  0  0  0  0  0  0  0
    6.4270    1.1450  -22.2370 N   0  0  0  0  0  0  0  0  0  0  0  0
   -3.8630    3.8160  -27.6540 O   0  0  0  0  0  0  0  0  0  0  0  0
    4.1760    8.0850  -23.0030 N   0  0  0  0  0  0  0  0  0  0  0  0
    7.0550   10.2160  -22.8710 N   0  0  0  0  0  0  0  0  0  0  0  0
    7.9900    9.4130  -21.0850 N   0  0  0  0  0  0  0  0  0  0  0  0
    4.6240    9.4840  -22.6590 C   0  0  0  0  0  0  0  0  0  0  0  0
    3.5100    7.3270  -21.8840 C   0  0  0  0  0  0  0  0  0  0  0  0
    6.6510    9.0780  -21.0900 C   0  0  0  0  0  0  0  0  0  0  0  0
    6.0640    9.5640  -22.1820 C   0  0  0  0  0  0  0  0  0  0  0  0
    8.1850   10.1090  -22.1950 C   0  0  0  0  0  0  0  0  0  0  0  0
  1  2  2  0
  1  3  1  0
  2  6  1  0
  3  5  2  0
  3 27  1  0
  4  5  1  0
  4  6  2  0
  4 18  1  0
  5 24  1  0
  6 10  1  0
  7 10  2  0
  7 23  1  0
  7 33  1  0
 21  8  1  1
  8 22  1  0
  9 21  1  0
  9 31  1  0
 11 12  1  0
 11 14  1  0
 11 15  2  0
 12 17  2  0
 12 28  1  0
 13 28  2  0
 13 29  1  0
 13 38  1  0
 14 29  2  0
 14 31  1  0
 15 30  1  0
 16 17  1  0
 16 18  1  0
 16 30  2  0
 17 26  1  0
 18 23  2  0
 20 19  1  6
 19 31  1  0
 20 22  1  0
 20 32  1  0
 21 32  1  0
 24 25  3  0
 34 37  1  0
 34 38  1  0
 35 40  1  0
 35 41  2  0
 36 39  1  0
 36 41  1  0
 37 40  1  0
 39 40  2  0
M  CHG  1  34   1
M  END
>  <s_m_entry_id>  (87) 
468

>  <s_m_entry_name>  (87) 
000000310.1

>  <s_m_Source_Path>  (87) 
/Users/zaksoul/Documents/3r_UNI/2nd_SEMESTER/BSC/FRAG_RECON/RESULTS/2

>  <s_m_Source_File>  (87) 
000000310.mol2

>  <i_m_Source_File_Index>  (87) 
1

$$$$
No_0_328,No_0_329,No_0_330,No_0_331,No_0_332
     RDKit          3D

 42 48  0  0  1  0  0  0  0  0999 V2000
   -5.0990    3.9540  -21.9520 C   0  0  0  0  0  0  0  0  0  0  0  0
   -5.3740    4.1280  -23.2880 C   0  0  0  0  0  0  0  0  0  0  0  0
   -3.8680    3.6540  -21.6210 C   0  0  0  0  0  0  0  0  0  0  0  0
   -3.0010    3.6990  -23.8000 C   0  0  0  0  0  0  0  0  0  0  0  0
   -2.8320    3.4760  -22.3770 C   0  0  0  0  0  0  0  0  0  0  0  0
   -4.3420    4.0100  -24.3100 C   0  0  0  0  0  0  0  0  0  0  0  0
   -3.6160    3.9560  -26.5170 C   0  0  0  0  0  0  0  0  0  0  0  0
    6.1410    2.9020  -21.3570 C   0  0  0  0  0  0  0  0  0  0  0  0
    5.9750    3.0010  -23.9070 C   0  0  0  0  0  0  0  0  0  0  0  0
   -4.6050    4.1220  -25.6440 C   0  0  0  0  0  0  0  0  0  0  0  0
    2.2180    3.7120  -23.8890 C   0  0  0  0  0  0  0  0  0  0  0  0
    1.4490    4.8610  -23.6020 C   0  0  0  0  0  0  0  0  0  0  0  0
    3.3060    5.9900  -22.9680 C   0  0  0  0  0  0  0  0  0  0  0  0
    3.6290    3.8480  -23.5970 C   0  0  0  0  0  0  0  0  0  0  0  0
    1.6150    2.6070  -24.5210 C   0  0  0  0  0  0  0  0  0  0  0  0
   -0.4740    3.5140  -24.4010 C   0  0  0  0  0  0  0  0  0  0  0  0
    0.1130    4.7220  -23.8330 C   0  0  0  0  0  0  0  0  0  0  0  0
   -1.9300    3.5770  -24.7370 C   0  0  0  0  0  0  0  0  0  0  0  0
    4.1300    1.3320  -23.2620 C   0  0  0  0  0  0  0  0  0  0  0  0
    5.0620    0.9590  -22.1200 C   0  0  2  0  0  0  0  0  0  0  0  0
    6.7130    2.4180  -22.7070 C   0  0  2  0  0  0  0  0  0  0  0  0
    5.1020    1.9820  -20.9730 C   0  0  0  0  0  0  0  0  0  0  0  0
   -2.2660    3.7230  -26.1640 C   0  0  0  0  0  0  0  0  0  0  0  0
   -1.4990    3.0160  -21.7870 C   0  0  0  0  0  0  0  0  0  0  0  0
   -0.4780    2.6340  -21.2870 C   0  0  0  0  0  0  0  0  0  0  0  0
   -0.6780    5.8090  -23.4990 F   0  0  0  0  0  0  0  0  0  0  0  0
   -3.6500    3.4290  -20.2370 F   0  0  0  0  0  0  0  0  0  0  0  0
    1.9830    6.0080  -23.0990 N   0  0  0  0  0  0  0  0  0  0  0  0
    4.1570    4.9860  -23.1800 N   0  0  0  0  0  0  0  0  0  0  0  0
    0.3020    2.5690  -24.8080 N   0  0  0  0  0  0  0  0  0  0  0  0
    4.4980    2.7580  -23.7640 N   0  0  0  0  0  0  0  0  0  0  0  0
    6.4640    0.9550  -22.6210 N   0  0  0  0  0  0  0  0  0  0  0  0
   -3.8060    3.9520  -27.9040 O   0  0  0  0  0  0  0  0  0  0  0  0
    3.9460    7.4390  -21.0310 N   0  0  0  0  0  0  0  0  0  0  0  0
    8.1420    9.3170  -20.9260 N   0  0  0  0  0  0  0  0  0  0  0  0
    8.1740    8.3260  -20.0120 N   0  0  0  0  0  0  0  0  0  0  0  0
    4.5090    8.7280  -20.4870 C   0  0  0  0  0  0  0  0  0  0  0  0
    3.9290    7.3130  -22.5330 C   0  0  0  0  0  0  0  0  0  0  0  0
    6.0290    8.7930  -20.5140 C   0  0  0  0  0  0  0  0  0  0  0  0
    6.8680    8.0420  -19.7900 C   0  0  0  0  0  0  0  0  0  0  0  0
    6.9080    9.6130  -21.2420 C   0  0  0  0  0  0  0  0  0  0  0  0
    6.5830   10.6980  -22.2480 C   0  0  0  0  0  0  0  0  0  0  0  0
  1  2  2  0
  1  3  1  0
  2  6  1  0
  3  5  2  0
  3 27  1  0
  4  5  1  0
  4  6  2  0
  4 18  1  0
  5 24  1  0
  6 10  1  0
  7 10  2  0
  7 23  1  0
  7 33  1  0
 21  8  1  1
  8 22  1  0
  9 21  1  0
  9 31  1  0
 11 12  1  0
 11 14  1  0
 11 15  2  0
 12 17  2  0
 12 28  1  0
 13 28  2  0
 13 29  1  0
 13 38  1  0
 14 29  2  0
 14 31  1  0
 15 30  1  0
 16 17  1  0
 16 18  1  0
 16 30  2  0
 17 26  1  0
 18 23  2  0
 20 19  1  6
 19 31  1  0
 20 22  1  0
 20 32  1  0
 21 32  1  0
 24 25  3  0
 34 37  1  0
 34 38  1  0
 35 36  1  0
 35 41  2  0
 36 40  1  0
 37 39  1  0
 39 40  2  0
 39 41  1  0
 41 42  1  0
M  END
>  <s_m_entry_id>  (88) 
469

>  <s_m_entry_name>  (88) 
000000311.1

>  <s_m_Source_Path>  (88) 
/Users/zaksoul/Documents/3r_UNI/2nd_SEMESTER/BSC/FRAG_RECON/RESULTS/2

>  <s_m_Source_File>  (88) 
000000311.mol2

>  <i_m_Source_File_Index>  (88) 
1

$$$$
No_0_333,No_0_334
     RDKit          3D

 43 49  0  0  1  0  0  0  0  0999 V2000
   -5.1810    3.6090  -21.8530 C   0  0  0  0  0  0  0  0  0  0  0  0
   -5.4520    3.8050  -23.1860 C   0  0  0  0  0  0  0  0  0  0  0  0
   -3.9420    3.3510  -21.5190 C   0  0  0  0  0  0  0  0  0  0  0  0
   -3.0590    3.4860  -23.6870 C   0  0  0  0  0  0  0  0  0  0  0  0
   -2.8930    3.2340  -22.2690 C   0  0  0  0  0  0  0  0  0  0  0  0
   -4.4090    3.7540  -24.2010 C   0  0  0  0  0  0  0  0  0  0  0  0
   -3.6630    3.7850  -26.4030 C   0  0  0  0  0  0  0  0  0  0  0  0
    6.0870    3.0010  -21.1820 C   0  0  0  0  0  0  0  0  0  0  0  0
    5.9380    3.1560  -23.7310 C   0  0  0  0  0  0  0  0  0  0  0  0
   -4.6650    3.8890  -25.5350 C   0  0  0  0  0  0  0  0  0  0  0  0
    2.1540    3.7130  -23.7290 C   0  0  0  0  0  0  0  0  0  0  0  0
    1.3370    4.8230  -23.4210 C   0  0  0  0  0  0  0  0  0  0  0  0
    3.1410    6.0110  -22.7430 C   0  0  0  0  0  0  0  0  0  0  0  0
    3.5570    3.8990  -23.4210 C   0  0  0  0  0  0  0  0  0  0  0  0
    1.6030    2.6010  -24.3930 C   0  0  0  0  0  0  0  0  0  0  0  0
   -0.5220    3.4190  -24.2700 C   0  0  0  0  0  0  0  0  0  0  0  0
    0.0100    4.6350  -23.6670 C   0  0  0  0  0  0  0  0  0  0  0  0
   -1.9770    3.4300  -24.6180 C   0  0  0  0  0  0  0  0  0  0  0  0
    4.1570    1.3990  -23.1440 C   0  0  0  0  0  0  0  0  0  0  0  0
    5.0950    1.0350  -22.0030 C   0  0  2  0  0  0  0  0  0  0  0  0
    6.6890    2.5740  -22.5390 C   0  0  2  0  0  0  0  0  0  0  0  0
    5.0840    2.0310  -20.8310 C   0  0  0  0  0  0  0  0  0  0  0  0
   -2.3080    3.5970  -26.0440 C   0  0  0  0  0  0  0  0  0  0  0  0
   -1.5470    2.8150  -21.6780 C   0  0  0  0  0  0  0  0  0  0  0  0
   -0.5150    2.4620  -21.1780 C   0  0  0  0  0  0  0  0  0  0  0  0
   -0.8280    5.6800  -23.3140 F   0  0  0  0  0  0  0  0  0  0  0  0
   -3.7260    3.1020  -20.1390 F   0  0  0  0  0  0  0  0  0  0  0  0
    1.8200    5.9780  -22.8860 N   0  0  0  0  0  0  0  0  0  0  0  0
    4.0350    5.0470  -22.9720 N   0  0  0  0  0  0  0  0  0  0  0  0
    0.2950    2.5160  -24.6930 N   0  0  0  0  0  0  0  0  0  0  0  0
    4.4710    2.8500  -23.6070 N   0  0  0  0  0  0  0  0  0  0  0  0
    6.5000    1.1010  -22.4910 N   0  0  0  0  0  0  0  0  0  0  0  0
   -3.8410    3.8060  -27.7920 O   0  0  0  0  0  0  0  0  0  0  0  0
    4.0450    7.2990  -20.8040 N   0  0  0  0  0  0  0  0  0  0  0  0
    6.2020    9.9050  -21.4910 N   0  0  0  0  0  0  0  0  0  0  0  0
    8.3880    8.3580  -20.6110 N   0  0  0  0  0  0  0  0  0  0  0  0
    4.6180    8.5710  -20.2350 C   0  0  0  0  0  0  0  0  0  0  0  0
    3.7060    7.3460  -22.2710 C   0  0  0  0  0  0  0  0  0  0  0  0
    6.0520    8.8560  -20.6700 C   0  0  0  0  0  0  0  0  0  0  0  0
    7.1260    8.0930  -20.2410 C   0  0  0  0  0  0  0  0  0  0  0  0
    6.9510    6.8900  -19.3310 C   0  0  0  0  0  0  0  0  0  0  0  0
    8.5290    9.4100  -21.4270 C   0  0  0  0  0  0  0  0  0  0  0  0
    7.4650   10.1610  -21.8570 C   0  0  0  0  0  0  0  0  0  0  0  0
  1  2  2  0
  1  3  1  0
  2  6  1  0
  3  5  2  0
  3 27  1  0
  4  5  1  0
  4  6  2  0
  4 18  1  0
  5 24  1  0
  6 10  1  0
  7 10  2  0
  7 23  1  0
  7 33  1  0
 21  8  1  1
  8 22  1  0
  9 21  1  0
  9 31  1  0
 11 12  1  0
 11 14  1  0
 11 15  2  0
 12 17  2  0
 12 28  1  0
 13 28  2  0
 13 29  1  0
 13 38  1  0
 14 29  2  0
 14 31  1  0
 15 30  1  0
 16 17  1  0
 16 18  1  0
 16 30  2  0
 17 26  1  0
 18 23  2  0
 20 19  1  6
 19 31  1  0
 20 22  1  0
 20 32  1  0
 21 32  1  0
 24 25  3  0
 34 37  1  0
 34 38  1  0
 35 39  2  0
 35 43  1  0
 36 40  2  0
 36 42  1  0
 37 39  1  0
 39 40  1  0
 40 41  1  0
 42 43  2  0
M  END
>  <s_m_entry_id>  (89) 
474

>  <s_m_entry_name>  (89) 
000000316.1

>  <s_m_Source_Path>  (89) 
/Users/zaksoul/Documents/3r_UNI/2nd_SEMESTER/BSC/FRAG_RECON/RESULTS/2

>  <s_m_Source_File>  (89) 
000000316.mol2

>  <i_m_Source_File_Index>  (89) 
1

$$$$
No_0_335,No_0_336,No_0_337,No_0_338
     RDKit          3D

 42 48  0  0  1  0  0  0  0  0999 V2000
   -5.1050    3.5650  -21.8470 C   0  0  0  0  0  0  0  0  0  0  0  0
   -5.3880    3.7680  -23.1780 C   0  0  0  0  0  0  0  0  0  0  0  0
   -3.8660    3.2920  -21.5260 C   0  0  0  0  0  0  0  0  0  0  0  0
   -3.0040    3.4230  -23.7030 C   0  0  0  0  0  0  0  0  0  0  0  0
   -2.8270    3.1650  -22.2870 C   0  0  0  0  0  0  0  0  0  0  0  0
   -4.3540    3.7080  -24.2030 C   0  0  0  0  0  0  0  0  0  0  0  0
   -3.6300    3.7360  -26.4110 C   0  0  0  0  0  0  0  0  0  0  0  0
    6.1600    2.8250  -21.2890 C   0  0  0  0  0  0  0  0  0  0  0  0
    5.9880    2.9890  -23.8350 C   0  0  0  0  0  0  0  0  0  0  0  0
   -4.6230    3.8490  -25.5340 C   0  0  0  0  0  0  0  0  0  0  0  0
    2.2120    3.5900  -23.7950 C   0  0  0  0  0  0  0  0  0  0  0  0
    1.4110    4.7080  -23.4760 C   0  0  0  0  0  0  0  0  0  0  0  0
    3.2350    5.8730  -22.8120 C   0  0  0  0  0  0  0  0  0  0  0  0
    3.6190    3.7590  -23.5000 C   0  0  0  0  0  0  0  0  0  0  0  0
    1.6410    2.4860  -24.4570 C   0  0  0  0  0  0  0  0  0  0  0  0
   -0.4730    3.3280  -24.3100 C   0  0  0  0  0  0  0  0  0  0  0  0
    0.0790    4.5360  -23.7090 C   0  0  0  0  0  0  0  0  0  0  0  0
   -1.9310    3.3570  -24.6440 C   0  0  0  0  0  0  0  0  0  0  0  0
    4.1930    1.2500  -23.2350 C   0  0  0  0  0  0  0  0  0  0  0  0
    5.1380    0.8730  -22.1050 C   0  0  2  0  0  0  0  0  0  0  0  0
    6.7450    2.3950  -22.6520 C   0  0  2  0  0  0  0  0  0  0  0  0
    5.1500    1.8650  -20.9300 C   0  0  0  0  0  0  0  0  0  0  0  0
   -2.2740    3.5320  -26.0660 C   0  0  0  0  0  0  0  0  0  0  0  0
   -1.4800    2.7280  -21.7100 C   0  0  0  0  0  0  0  0  0  0  0  0
   -0.4470    2.3620  -21.2210 C   0  0  0  0  0  0  0  0  0  0  0  0
   -0.7430    5.5900  -23.3450 F   0  0  0  0  0  0  0  0  0  0  0  0
   -3.6400    3.0360  -20.1490 F   0  0  0  0  0  0  0  0  0  0  0  0
    1.9120    5.8560  -22.9420 N   0  0  0  0  0  0  0  0  0  0  0  0
    4.1150    4.8990  -23.0520 N   0  0  0  0  0  0  0  0  0  0  0  0
    0.3290    2.4170  -24.7440 N   0  0  0  0  0  0  0  0  0  0  0  0
    4.5200    2.6990  -23.6980 N   0  0  0  0  0  0  0  0  0  0  0  0
    6.5380    0.9240  -22.6060 N   0  0  0  0  0  0  0  0  0  0  0  0
   -3.8220    3.7640  -27.7980 O   0  0  0  0  0  0  0  0  0  0  0  0
    6.8660    8.9530  -21.9090 O   0  0  0  0  0  0  0  0  0  0  0  0
    4.1750    7.1530  -20.8780 N   0  0  0  0  0  0  0  0  0  0  0  0
    8.5030    8.0040  -20.9290 N   0  0  0  0  0  0  0  0  0  0  0  0
    4.9280    8.3510  -20.3640 C   0  0  0  0  0  0  0  0  0  0  0  0
    3.8200    7.2000  -22.3420 C   0  0  0  0  0  0  0  0  0  0  0  0
    6.3900    8.3280  -20.7770 C   0  0  0  0  0  0  0  0  0  0  0  0
    7.4450    6.9120  -18.8880 C   0  0  0  0  0  0  0  0  0  0  0  0
    7.4070    7.7330  -20.1600 C   0  0  0  0  0  0  0  0  0  0  0  0
    8.1130    8.7300  -21.9490 C   0  0  0  0  0  0  0  0  0  0  0  0
  1  2  2  0
  1  3  1  0
  2  6  1  0
  3  5  2  0
  3 27  1  0
  4  5  1  0
  4  6  2  0
  4 18  1  0
  5 24  1  0
  6 10  1  0
  7 10  2  0
  7 23  1  0
  7 33  1  0
 21  8  1  1
  8 22  1  0
  9 21  1  0
  9 31  1  0
 11 12  1  0
 11 14  1  0
 11 15  2  0
 12 17  2  0
 12 28  1  0
 13 28  2  0
 13 29  1  0
 13 38  1  0
 14 29  2  0
 14 31  1  0
 15 30  1  0
 16 17  1  0
 16 18  1  0
 16 30  2  0
 17 26  1  0
 18 23  2  0
 20 19  1  6
 19 31  1  0
 20 22  1  0
 20 32  1  0
 21 32  1  0
 24 25  3  0
 34 39  1  0
 34 42  1  0
 35 37  1  0
 35 38  1  0
 36 41  1  0
 36 42  2  0
 37 39  1  0
 39 41  2  0
 40 41  1  0
M  END
>  <s_m_entry_id>  (90) 
476

>  <s_m_entry_name>  (90) 
000000318.1

>  <s_m_Source_Path>  (90) 
/Users/zaksoul/Documents/3r_UNI/2nd_SEMESTER/BSC/FRAG_RECON/RESULTS/2

>  <s_m_Source_File>  (90) 
000000318.mol2

>  <i_m_Source_File_Index>  (90) 
1

$$$$
No_0_339
     RDKit          3D

 43 49  0  0  1  0  0  0  0  0999 V2000
   -5.0890    3.5380  -22.2960 C   0  0  0  0  0  0  0  0  0  0  0  0
   -5.3200    3.7070  -23.6410 C   0  0  0  0  0  0  0  0  0  0  0  0
   -3.8660    3.2600  -21.9220 C   0  0  0  0  0  0  0  0  0  0  0  0
   -2.9220    3.3210  -24.0680 C   0  0  0  0  0  0  0  0  0  0  0  0
   -2.8000    3.1010  -22.6400 C   0  0  0  0  0  0  0  0  0  0  0  0
   -4.2500    3.6080  -24.6250 C   0  0  0  0  0  0  0  0  0  0  0  0
   -3.4450    3.5680  -26.8050 C   0  0  0  0  0  0  0  0  0  0  0  0
    6.1390    2.6880  -21.3020 C   0  0  0  0  0  0  0  0  0  0  0  0
    6.0630    2.7840  -23.8560 C   0  0  0  0  0  0  0  0  0  0  0  0
   -4.4680    3.7160  -25.9680 C   0  0  0  0  0  0  0  0  0  0  0  0
    2.2950    3.4280  -23.9720 C   0  0  0  0  0  0  0  0  0  0  0  0
    1.4960    4.5630  -23.7130 C   0  0  0  0  0  0  0  0  0  0  0  0
    3.3090    5.7250  -23.0140 C   0  0  0  0  0  0  0  0  0  0  0  0
    3.6920    3.5890  -23.6300 C   0  0  0  0  0  0  0  0  0  0  0  0
    1.7350    2.3130  -24.6240 C   0  0  0  0  0  0  0  0  0  0  0  0
   -0.3730    3.1820  -24.5790 C   0  0  0  0  0  0  0  0  0  0  0  0
    0.1720    4.4000  -23.9910 C   0  0  0  0  0  0  0  0  0  0  0  0
   -1.8170    3.2180  -24.9670 C   0  0  0  0  0  0  0  0  0  0  0  0
    4.2260    1.0830  -23.2770 C   0  0  0  0  0  0  0  0  0  0  0  0
    5.1240    0.7260  -22.1020 C   0  0  2  0  0  0  0  0  0  0  0  0
    6.7680    2.2150  -22.6300 C   0  0  2  0  0  0  0  0  0  0  0  0
    5.1050    1.7500  -20.9550 C   0  0  0  0  0  0  0  0  0  0  0  0
   -2.1050    3.3580  -26.4050 C   0  0  0  0  0  0  0  0  0  0  0  0
   -1.4810    2.6650  -22.0020 C   0  0  0  0  0  0  0  0  0  0  0  0
   -0.4720    2.3010  -21.4660 C   0  0  0  0  0  0  0  0  0  0  0  0
   -0.6500    5.4730  -23.6860 F   0  0  0  0  0  0  0  0  0  0  0  0
   -3.6930    3.0390  -20.5310 F   0  0  0  0  0  0  0  0  0  0  0  0
    1.9910    5.7190  -23.1920 N   0  0  0  0  0  0  0  0  0  0  0  0
    4.1850    4.7360  -23.1950 N   0  0  0  0  0  0  0  0  0  0  0  0
    0.4340    2.2500  -24.9580 N   0  0  0  0  0  0  0  0  0  0  0  0
    4.5860    2.5150  -23.7660 N   0  0  0  0  0  0  0  0  0  0  0  0
    6.5420    0.7480  -22.5530 N   0  0  0  0  0  0  0  0  0  0  0  0
   -3.5860    3.5600  -28.1980 O   0  0  0  0  0  0  0  0  0  0  0  0
    3.5390    7.3600  -21.1250 N   0  0  0  0  0  0  0  0  0  0  0  0
    7.2620    9.9500  -21.5180 N   0  0  0  0  0  0  0  0  0  0  0  0
    7.5780    9.1190  -20.5050 N   0  0  0  0  0  0  0  0  0  0  0  0
    3.8800    8.7480  -20.6490 C   0  0  0  0  0  0  0  0  0  0  0  0
    6.3960    8.6080  -20.0890 C   0  0  0  0  0  0  0  0  0  0  0  0
    3.8920    7.0590  -22.5580 C   0  0  0  0  0  0  0  0  0  0  0  0
    5.3570    9.0750  -20.7920 C   0  0  0  0  0  0  0  0  0  0  0  0
    8.9380    8.8680  -20.0210 C   0  0  0  0  0  0  0  0  0  0  0  0
    5.2910   10.7800  -22.7740 C   0  0  0  0  0  0  0  0  0  0  0  0
    5.9680    9.9460  -21.7070 C   0  0  0  0  0  0  0  0  0  0  0  0
  1  2  2  0
  1  3  1  0
  2  6  1  0
  3  5  2  0
  3 27  1  0
  4  5  1  0
  4  6  2  0
  4 18  1  0
  5 24  1  0
  6 10  1  0
  7 10  2  0
  7 23  1  0
  7 33  1  0
 21  8  1  1
  8 22  1  0
  9 21  1  0
  9 31  1  0
 11 12  1  0
 11 14  1  0
 11 15  2  0
 12 17  2  0
 12 28  1  0
 13 28  2  0
 13 29  1  0
 13 39  1  0
 14 29  2  0
 14 31  1  0
 15 30  1  0
 16 17  1  0
 16 18  1  0
 16 30  2  0
 17 26  1  0
 18 23  2  0
 20 19  1  6
 19 31  1  0
 20 22  1  0
 20 32  1  0
 21 32  1  0
 24 25  3  0
 34 37  1  0
 34 39  1  0
 35 36  1  0
 35 43  2  0
 36 38  1  0
 36 41  1  0
 37 40  1  0
 38 40  2  0
 40 43  1  0
 42 43  1  0
M  END
>  <s_m_entry_id>  (91) 
480

>  <s_m_entry_name>  (91) 
000000322.1

>  <s_m_Source_Path>  (91) 
/Users/zaksoul/Documents/3r_UNI/2nd_SEMESTER/BSC/FRAG_RECON/RESULTS/2

>  <s_m_Source_File>  (91) 
000000322.mol2

>  <i_m_Source_File_Index>  (91) 
1

$$$$
No_0_340,No_0_341,No_0_342,No_0_343,No_0_344
     RDKit          3D

 42 48  0  0  1  0  0  0  0  0999 V2000
   -5.2640    3.6390  -22.0310 C   0  0  0  0  0  0  0  0  0  0  0  0
   -5.5620    3.7990  -23.3630 C   0  0  0  0  0  0  0  0  0  0  0  0
   -4.0130    3.4190  -21.7120 C   0  0  0  0  0  0  0  0  0  0  0  0
   -3.1710    3.5280  -23.8980 C   0  0  0  0  0  0  0  0  0  0  0  0
   -2.9750    3.3110  -22.4780 C   0  0  0  0  0  0  0  0  0  0  0  0
   -4.5340    3.7520  -24.3940 C   0  0  0  0  0  0  0  0  0  0  0  0
   -3.8260    3.7530  -26.6080 C   0  0  0  0  0  0  0  0  0  0  0  0
    6.0250    3.3190  -21.5410 C   0  0  0  0  0  0  0  0  0  0  0  0
    5.8300    3.4150  -24.0890 C   0  0  0  0  0  0  0  0  0  0  0  0
   -4.8160    3.8520  -25.7260 C   0  0  0  0  0  0  0  0  0  0  0  0
    2.0340    3.8810  -24.0340 C   0  0  0  0  0  0  0  0  0  0  0  0
    1.1960    4.9760  -23.7360 C   0  0  0  0  0  0  0  0  0  0  0  0
    2.9810    6.2220  -23.1140 C   0  0  0  0  0  0  0  0  0  0  0  0
    3.4370    4.1070  -23.7540 C   0  0  0  0  0  0  0  0  0  0  0  0
    1.4990    2.7410  -24.6650 C   0  0  0  0  0  0  0  0  0  0  0  0
   -0.6430    3.5100  -24.5220 C   0  0  0  0  0  0  0  0  0  0  0  0
   -0.1310    4.7510  -23.9550 C   0  0  0  0  0  0  0  0  0  0  0  0
   -2.1030    3.4780  -24.8460 C   0  0  0  0  0  0  0  0  0  0  0  0
    4.1030    1.6280  -23.4340 C   0  0  0  0  0  0  0  0  0  0  0  0
    5.0680    1.3120  -22.3020 C   0  0  2  0  0  0  0  0  0  0  0  0
    6.6150    2.8780  -22.8980 C   0  0  2  0  0  0  0  0  0  0  0  0
    5.0530    2.3320  -21.1520 C   0  0  0  0  0  0  0  0  0  0  0  0
   -2.4610    3.6070  -26.2690 C   0  0  0  0  0  0  0  0  0  0  0  0
   -1.6100    2.9370  -21.9010 C   0  0  0  0  0  0  0  0  0  0  0  0
   -0.5610    2.6200  -21.4120 C   0  0  0  0  0  0  0  0  0  0  0  0
   -0.9880    5.7830  -23.6090 F   0  0  0  0  0  0  0  0  0  0  0  0
   -3.7690    3.2040  -20.3310 F   0  0  0  0  0  0  0  0  0  0  0  0
    1.6580    6.1540  -23.2330 N   0  0  0  0  0  0  0  0  0  0  0  0
    3.8940    5.2750  -23.3370 N   0  0  0  0  0  0  0  0  0  0  0  0
    0.1890    2.6180  -24.9410 N   0  0  0  0  0  0  0  0  0  0  0  0
    4.3740    3.0760  -23.9340 N   0  0  0  0  0  0  0  0  0  0  0  0
    6.4630    1.4020  -22.8160 N   0  0  0  0  0  0  0  0  0  0  0  0
   -4.0290    3.7410  -27.9940 O   0  0  0  0  0  0  0  0  0  0  0  0
    7.9080    9.2520  -20.3380 O   0  0  0  0  0  0  0  0  0  0  0  0
    3.8820    7.5650  -21.2170 N   0  0  0  0  0  0  0  0  0  0  0  0
    7.6970   10.1180  -21.4320 N   0  0  0  0  0  0  0  0  0  0  0  0
    4.2620    8.8960  -20.6130 C   0  0  0  0  0  0  0  0  0  0  0  0
    3.5210    7.5800  -22.6800 C   0  0  0  0  0  0  0  0  0  0  0  0
    5.7400    9.2330  -20.7510 C   0  0  0  0  0  0  0  0  0  0  0  0
    5.8030   10.9070  -22.7740 C   0  0  0  0  0  0  0  0  0  0  0  0
    6.7190    8.7680  -19.9870 C   0  0  0  0  0  0  0  0  0  0  0  0
    6.4180   10.0880  -21.6570 C   0  0  0  0  0  0  0  0  0  0  0  0
  1  2  2  0
  1  3  1  0
  2  6  1  0
  3  5  2  0
  3 27  1  0
  4  5  1  0
  4  6  2  0
  4 18  1  0
  5 24  1  0
  6 10  1  0
  7 10  2  0
  7 23  1  0
  7 33  1  0
 21  8  1  1
  8 22  1  0
  9 21  1  0
  9 31  1  0
 11 12  1  0
 11 14  1  0
 11 15  2  0
 12 17  2  0
 12 28  1  0
 13 28  2  0
 13 29  1  0
 13 38  1  0
 14 29  2  0
 14 31  1  0
 15 30  1  0
 16 17  1  0
 16 18  1  0
 16 30  2  0
 17 26  1  0
 18 23  2  0
 20 19  1  6
 19 31  1  0
 20 22  1  0
 20 32  1  0
 21 32  1  0
 24 25  3  0
 34 36  1  0
 34 41  1  0
 35 37  1  0
 35 38  1  0
 36 42  2  0
 37 39  1  0
 39 41  2  0
 39 42  1  0
 40 42  1  0
M  END
>  <s_m_entry_id>  (92) 
481

>  <s_m_entry_name>  (92) 
000000323.1

>  <s_m_Source_Path>  (92) 
/Users/zaksoul/Documents/3r_UNI/2nd_SEMESTER/BSC/FRAG_RECON/RESULTS/2

>  <s_m_Source_File>  (92) 
000000323.mol2

>  <i_m_Source_File_Index>  (92) 
1

$$$$
No_0_345,No_0_346,No_0_347
     RDKit          3D

 43 49  0  0  1  0  0  0  0  0999 V2000
   -4.9400    3.7490  -22.1680 C   0  0  0  0  0  0  0  0  0  0  0  0
   -5.1930    3.9270  -23.5070 C   0  0  0  0  0  0  0  0  0  0  0  0
   -3.7060    3.4920  -21.8140 C   0  0  0  0  0  0  0  0  0  0  0  0
   -2.7950    3.5940  -23.9730 C   0  0  0  0  0  0  0  0  0  0  0  0
   -2.6480    3.3620  -22.5490 C   0  0  0  0  0  0  0  0  0  0  0  0
   -4.1370    3.8590  -24.5080 C   0  0  0  0  0  0  0  0  0  0  0  0
   -3.3630    3.8560  -26.7000 C   0  0  0  0  0  0  0  0  0  0  0  0
    6.3170    3.1180  -21.3450 C   0  0  0  0  0  0  0  0  0  0  0  0
    6.2000    3.2370  -23.8960 C   0  0  0  0  0  0  0  0  0  0  0  0
   -4.3760    3.9760  -25.8460 C   0  0  0  0  0  0  0  0  0  0  0  0
    2.4190    3.8060  -23.9510 C   0  0  0  0  0  0  0  0  0  0  0  0
    1.6020    4.9210  -23.6690 C   0  0  0  0  0  0  0  0  0  0  0  0
    3.4010    6.1140  -22.9850 C   0  0  0  0  0  0  0  0  0  0  0  0
    3.8180    3.9920  -23.6280 C   0  0  0  0  0  0  0  0  0  0  0  0
    1.8720    2.6860  -24.6070 C   0  0  0  0  0  0  0  0  0  0  0  0
   -0.2510    3.5110  -24.5220 C   0  0  0  0  0  0  0  0  0  0  0  0
    0.2770    4.7340  -23.9290 C   0  0  0  0  0  0  0  0  0  0  0  0
   -1.7010    3.5220  -24.8890 C   0  0  0  0  0  0  0  0  0  0  0  0
    4.4070    1.4940  -23.3080 C   0  0  0  0  0  0  0  0  0  0  0  0
    5.3290    1.1430  -22.1500 C   0  0  2  0  0  0  0  0  0  0  0  0
    6.9350    2.6700  -22.6870 C   0  0  2  0  0  0  0  0  0  0  0  0
    5.3070    2.1550  -20.9920 C   0  0  0  0  0  0  0  0  0  0  0  0
   -2.0140    3.6700  -26.3210 C   0  0  0  0  0  0  0  0  0  0  0  0
   -1.3110    2.9470  -21.9350 C   0  0  0  0  0  0  0  0  0  0  0  0
   -0.2870    2.5980  -21.4170 C   0  0  0  0  0  0  0  0  0  0  0  0
   -0.5620    5.7870  -23.6020 F   0  0  0  0  0  0  0  0  0  0  0  0
   -3.5080    3.2610  -20.4280 F   0  0  0  0  0  0  0  0  0  0  0  0
    2.0810    6.0830  -23.1440 N   0  0  0  0  0  0  0  0  0  0  0  0
    4.2940    5.1440  -23.1880 N   0  0  0  0  0  0  0  0  0  0  0  0
    0.5680    2.6000  -24.9220 N   0  0  0  0  0  0  0  0  0  0  0  0
    4.7320    2.9370  -23.7870 N   0  0  0  0  0  0  0  0  0  0  0  0
    6.7400    1.1980  -22.6210 N   0  0  0  0  0  0  0  0  0  0  0  0
   -3.5240    3.8590  -28.0910 O   0  0  0  0  0  0  0  0  0  0  0  0
    8.3460    9.4670  -21.2300 O   0  0  0  0  0  0  0  0  0  0  0  0
    4.2860    7.4340  -21.0530 N   0  0  0  0  0  0  0  0  0  0  0  0
    4.8050    8.7310  -20.4830 C   0  0  0  0  0  0  0  0  0  0  0  0
    3.9640    7.4540  -22.5240 C   0  0  0  0  0  0  0  0  0  0  0  0
    6.3130    8.8750  -20.6040 C   0  0  0  0  0  0  0  0  0  0  0  0
    7.2760    8.2610  -19.7650 C   0  0  0  0  0  0  0  0  0  0  0  0
    7.0370    9.5900  -21.4630 C   0  0  0  0  0  0  0  0  0  0  0  0
    9.8070    8.2760  -19.5860 C   0  0  0  0  0  0  0  0  0  0  0  0
    6.5120   10.4690  -22.5800 C   0  0  0  0  0  0  0  0  0  0  0  0
    8.4690    8.6560  -20.1830 C   0  0  0  0  0  0  0  0  0  0  0  0
  1  2  2  0
  1  3  1  0
  2  6  1  0
  3  5  2  0
  3 27  1  0
  4  5  1  0
  4  6  2  0
  4 18  1  0
  5 24  1  0
  6 10  1  0
  7 10  2  0
  7 23  1  0
  7 33  1  0
 21  8  1  1
  8 22  1  0
  9 21  1  0
  9 31  1  0
 11 12  1  0
 11 14  1  0
 11 15  2  0
 12 17  2  0
 12 28  1  0
 13 28  2  0
 13 29  1  0
 13 37  1  0
 14 29  2  0
 14 31  1  0
 15 30  1  0
 16 17  1  0
 16 18  1  0
 16 30  2  0
 17 26  1  0
 18 23  2  0
 20 19  1  6
 19 31  1  0
 20 22  1  0
 20 32  1  0
 21 32  1  0
 24 25  3  0
 34 40  1  0
 34 43  1  0
 35 36  1  0
 35 37  1  0
 36 38  1  0
 38 39  1  0
 38 40  2  0
 39 43  2  0
 40 42  1  0
 41 43  1  0
M  CHG  1  35   1
M  END
>  <s_m_entry_id>  (93) 
486

>  <s_m_entry_name>  (93) 
000000328.1

>  <s_m_Source_Path>  (93) 
/Users/zaksoul/Documents/3r_UNI/2nd_SEMESTER/BSC/FRAG_RECON/RESULTS/2

>  <s_m_Source_File>  (93) 
000000328.mol2

>  <i_m_Source_File_Index>  (93) 
1

$$$$
No_0_348,No_0_349
     RDKit          3D

 43 49  0  0  1  0  0  0  0  0999 V2000
   -5.0100    3.6730  -22.1600 C   0  0  0  0  0  0  0  0  0  0  0  0
   -5.2710    3.8240  -23.5020 C   0  0  0  0  0  0  0  0  0  0  0  0
   -3.7790    3.3990  -21.8100 C   0  0  0  0  0  0  0  0  0  0  0  0
   -2.8840    3.4290  -23.9770 C   0  0  0  0  0  0  0  0  0  0  0  0
   -2.7300    3.2280  -22.5490 C   0  0  0  0  0  0  0  0  0  0  0  0
   -4.2240    3.7100  -24.5080 C   0  0  0  0  0  0  0  0  0  0  0  0
   -3.4680    3.6390  -26.7050 C   0  0  0  0  0  0  0  0  0  0  0  0
    6.2370    2.8260  -21.4060 C   0  0  0  0  0  0  0  0  0  0  0  0
    6.1030    2.8870  -23.9590 C   0  0  0  0  0  0  0  0  0  0  0  0
   -4.4710    3.7990  -25.8480 C   0  0  0  0  0  0  0  0  0  0  0  0
    2.3340    3.5330  -23.9990 C   0  0  0  0  0  0  0  0  0  0  0  0
    1.5420    4.6710  -23.7380 C   0  0  0  0  0  0  0  0  0  0  0  0
    3.3710    5.8420  -23.0960 C   0  0  0  0  0  0  0  0  0  0  0  0
    3.7390    3.6970  -23.6910 C   0  0  0  0  0  0  0  0  0  0  0  0
    1.7590    2.4090  -24.6240 C   0  0  0  0  0  0  0  0  0  0  0  0
   -0.3460    3.2810  -24.5430 C   0  0  0  0  0  0  0  0  0  0  0  0
    0.2120    4.5060  -23.9840 C   0  0  0  0  0  0  0  0  0  0  0  0
   -1.7990    3.3130  -24.8990 C   0  0  0  0  0  0  0  0  0  0  0  0
    4.2790    1.1950  -23.3150 C   0  0  0  0  0  0  0  0  0  0  0  0
    5.2020    0.8530  -22.1560 C   0  0  2  0  0  0  0  0  0  0  0  0
    6.8350    2.3330  -22.7420 C   0  0  2  0  0  0  0  0  0  0  0  0
    5.2100    1.8930  -21.0230 C   0  0  0  0  0  0  0  0  0  0  0  0
   -2.1190    3.4330  -26.3320 C   0  0  0  0  0  0  0  0  0  0  0  0
   -1.3970    2.8000  -21.9360 C   0  0  0  0  0  0  0  0  0  0  0  0
   -0.3760    2.4420  -21.4170 C   0  0  0  0  0  0  0  0  0  0  0  0
   -0.6020    5.5840  -23.6750 F   0  0  0  0  0  0  0  0  0  0  0  0
   -3.5750    3.1970  -20.4200 F   0  0  0  0  0  0  0  0  0  0  0  0
    2.0490    5.8350  -23.2450 N   0  0  0  0  0  0  0  0  0  0  0  0
    4.2420    4.8490  -23.2830 N   0  0  0  0  0  0  0  0  0  0  0  0
    0.4510    2.3430  -24.9270 N   0  0  0  0  0  0  0  0  0  0  0  0
    4.6290    2.6200  -23.8320 N   0  0  0  0  0  0  0  0  0  0  0  0
    6.6110    0.8680  -22.6390 N   0  0  0  0  0  0  0  0  0  0  0  0
   -3.6390    3.6120  -28.0950 O   0  0  0  0  0  0  0  0  0  0  0  0
    7.7760    9.6110  -21.3030 O   0  0  0  0  0  0  0  0  0  0  0  0
    3.9570    7.3210  -21.1740 N   0  0  0  0  0  0  0  0  0  0  0  0
    7.1200   10.5700  -22.1020 N   0  0  0  0  0  0  0  0  0  0  0  0
    4.2660    8.6970  -20.6400 C   0  0  0  0  0  0  0  0  0  0  0  0
    3.9650    7.1810  -22.6720 C   0  0  0  0  0  0  0  0  0  0  0  0
    5.6210    9.2450  -21.0660 C   0  0  0  0  0  0  0  0  0  0  0  0
    5.8550   10.3310  -21.9440 C   0  0  0  0  0  0  0  0  0  0  0  0
    6.8430    8.8620  -20.7120 C   0  0  0  0  0  0  0  0  0  0  0  0
    7.2100    7.7400  -19.7630 C   0  0  0  0  0  0  0  0  0  0  0  0
    4.7910   11.1600  -22.6330 C   0  0  0  0  0  0  0  0  0  0  0  0
  1  2  2  0
  1  3  1  0
  2  6  1  0
  3  5  2  0
  3 27  1  0
  4  5  1  0
  4  6  2  0
  4 18  1  0
  5 24  1  0
  6 10  1  0
  7 10  2  0
  7 23  1  0
  7 33  1  0
 21  8  1  1
  8 22  1  0
  9 21  1  0
  9 31  1  0
 11 12  1  0
 11 14  1  0
 11 15  2  0
 12 17  2  0
 12 28  1  0
 13 28  2  0
 13 29  1  0
 13 38  1  0
 14 29  2  0
 14 31  1  0
 15 30  1  0
 16 17  1  0
 16 18  1  0
 16 30  2  0
 17 26  1  0
 18 23  2  0
 20 19  1  6
 19 31  1  0
 20 22  1  0
 20 32  1  0
 21 32  1  0
 24 25  3  0
 34 36  1  0
 34 41  1  0
 35 37  1  0
 35 38  1  0
 36 40  2  0
 37 39  1  0
 39 40  1  0
 39 41  2  0
 40 43  1  0
 41 42  1  0
M  END
>  <s_m_entry_id>  (94) 
489

>  <s_m_entry_name>  (94) 
000000331.1

>  <s_m_Source_Path>  (94) 
/Users/zaksoul/Documents/3r_UNI/2nd_SEMESTER/BSC/FRAG_RECON/RESULTS/2

>  <s_m_Source_File>  (94) 
000000331.mol2

>  <i_m_Source_File_Index>  (94) 
1

$$$$
No_0_350,No_0_351
     RDKit          3D

 43 49  0  0  1  0  0  0  0  0999 V2000
   -5.1900    3.6680  -22.3050 C   0  0  0  0  0  0  0  0  0  0  0  0
   -5.4380    3.8460  -23.6450 C   0  0  0  0  0  0  0  0  0  0  0  0
   -3.9600    3.4000  -21.9470 C   0  0  0  0  0  0  0  0  0  0  0  0
   -3.0420    3.4870  -24.1030 C   0  0  0  0  0  0  0  0  0  0  0  0
   -2.9010    3.2560  -22.6780 C   0  0  0  0  0  0  0  0  0  0  0  0
   -4.3790    3.7650  -24.6430 C   0  0  0  0  0  0  0  0  0  0  0  0
   -3.5980    3.7500  -26.8320 C   0  0  0  0  0  0  0  0  0  0  0  0
    6.0570    2.9230  -21.4440 C   0  0  0  0  0  0  0  0  0  0  0  0
    5.9500    3.0380  -23.9970 C   0  0  0  0  0  0  0  0  0  0  0  0
   -4.6120    3.8810  -25.9820 C   0  0  0  0  0  0  0  0  0  0  0  0
    2.1750    3.6450  -24.0650 C   0  0  0  0  0  0  0  0  0  0  0  0
    1.3680    4.7700  -23.7880 C   0  0  0  0  0  0  0  0  0  0  0  0
    3.1770    5.9450  -23.1000 C   0  0  0  0  0  0  0  0  0  0  0  0
    3.5740    3.8180  -23.7370 C   0  0  0  0  0  0  0  0  0  0  0  0
    1.6190    2.5290  -24.7200 C   0  0  0  0  0  0  0  0  0  0  0  0
   -0.4970    3.3770  -24.6430 C   0  0  0  0  0  0  0  0  0  0  0  0
    0.0420    4.5960  -24.0520 C   0  0  0  0  0  0  0  0  0  0  0  0
   -1.9450    3.4020  -25.0150 C   0  0  0  0  0  0  0  0  0  0  0  0
    4.1370    1.3140  -23.4100 C   0  0  0  0  0  0  0  0  0  0  0  0
    5.0510    0.9570  -22.2490 C   0  0  2  0  0  0  0  0  0  0  0  0
    6.6750    2.4660  -22.7840 C   0  0  2  0  0  0  0  0  0  0  0  0
    5.0360    1.9710  -21.0930 C   0  0  0  0  0  0  0  0  0  0  0  0
   -2.2520    3.5500  -26.4480 C   0  0  0  0  0  0  0  0  0  0  0  0
   -1.5710    2.8290  -22.0590 C   0  0  0  0  0  0  0  0  0  0  0  0
   -0.5520    2.4710  -21.5370 C   0  0  0  0  0  0  0  0  0  0  0  0
   -0.7870    5.6580  -23.7290 F   0  0  0  0  0  0  0  0  0  0  0  0
   -3.7690    3.1700  -20.5590 F   0  0  0  0  0  0  0  0  0  0  0  0
    1.8570    5.9270  -23.2640 N   0  0  0  0  0  0  0  0  0  0  0  0
    4.0610    4.9660  -23.2990 N   0  0  0  0  0  0  0  0  0  0  0  0
    0.3150    2.4570  -25.0390 N   0  0  0  0  0  0  0  0  0  0  0  0
    4.4780    2.7530  -23.8920 N   0  0  0  0  0  0  0  0  0  0  0  0
    6.4640    0.9960  -22.7150 N   0  0  0  0  0  0  0  0  0  0  0  0
   -3.7540    3.7510  -28.2240 O   0  0  0  0  0  0  0  0  0  0  0  0
    9.6680    8.4880  -20.2280 Br  0  0  0  0  0  0  0  0  0  0  0  0
    3.7340    7.4040  -21.1400 N   0  0  0  0  0  0  0  0  0  0  0  0
    6.2410    9.7190  -21.8050 N   0  0  0  0  0  0  0  0  0  0  0  0
    7.5900    9.6380  -21.6830 N   0  0  0  0  0  0  0  0  0  0  0  0
    4.2450    8.7140  -20.5990 C   0  0  0  0  0  0  0  0  0  0  0  0
    5.7350    8.9150  -20.8290 C   0  0  0  0  0  0  0  0  0  0  0  0
    3.7520    7.2800  -22.6410 C   0  0  0  0  0  0  0  0  0  0  0  0
    5.5510   10.5420  -22.8040 C   0  0  0  0  0  0  0  0  0  0  0  0
    6.7090    8.3430  -20.1120 C   0  0  0  0  0  0  0  0  0  0  0  0
    7.8800    8.8350  -20.6940 C   0  0  0  0  0  0  0  0  0  0  0  0
  1  2  2  0
  1  3  1  0
  2  6  1  0
  3  5  2  0
  3 27  1  0
  4  5  1  0
  4  6  2  0
  4 18  1  0
  5 24  1  0
  6 10  1  0
  7 10  2  0
  7 23  1  0
  7 33  1  0
 21  8  1  1
  8 22  1  0
  9 21  1  0
  9 31  1  0
 11 12  1  0
 11 14  1  0
 11 15  2  0
 12 17  2  0
 12 28  1  0
 13 28  2  0
 13 29  1  0
 13 40  1  0
 14 29  2  0
 14 31  1  0
 15 30  1  0
 16 17  1  0
 16 18  1  0
 16 30  2  0
 17 26  1  0
 18 23  2  0
 20 19  1  6
 19 31  1  0
 20 22  1  0
 20 32  1  0
 21 32  1  0
 24 25  3  0
 34 43  1  0
 35 38  1  0
 35 40  1  0
 36 37  1  0
 36 39  1  0
 36 41  1  0
 37 43  2  0
 38 39  1  0
 39 42  2  0
 42 43  1  0
M  END
>  <s_m_entry_id>  (95) 
491

>  <s_m_entry_name>  (95) 
000000333.1

>  <s_m_Source_Path>  (95) 
/Users/zaksoul/Documents/3r_UNI/2nd_SEMESTER/BSC/FRAG_RECON/RESULTS/2

>  <s_m_Source_File>  (95) 
000000333.mol2

>  <i_m_Source_File_Index>  (95) 
1

$$$$
No_0_352
     RDKit          3D

 44 50  0  0  1  0  0  0  0  0999 V2000
   -5.2200    3.5690  -21.8820 C   0  0  0  0  0  0  0  0  0  0  0  0
   -5.4980    3.7510  -23.2160 C   0  0  0  0  0  0  0  0  0  0  0  0
   -3.9780    3.3220  -21.5500 C   0  0  0  0  0  0  0  0  0  0  0  0
   -3.1050    3.4420  -23.7240 C   0  0  0  0  0  0  0  0  0  0  0  0
   -2.9310    3.2040  -22.3040 C   0  0  0  0  0  0  0  0  0  0  0  0
   -4.4580    3.6980  -24.2350 C   0  0  0  0  0  0  0  0  0  0  0  0
   -3.7220    3.7130  -26.4390 C   0  0  0  0  0  0  0  0  0  0  0  0
    6.0550    3.0370  -21.2540 C   0  0  0  0  0  0  0  0  0  0  0  0
    5.8940    3.1680  -23.8030 C   0  0  0  0  0  0  0  0  0  0  0  0
   -4.7210    3.8190  -25.5680 C   0  0  0  0  0  0  0  0  0  0  0  0
    2.1070    3.7020  -23.7900 C   0  0  0  0  0  0  0  0  0  0  0  0
    1.2840    4.8090  -23.4880 C   0  0  0  0  0  0  0  0  0  0  0  0
    3.0840    6.0140  -22.8290 C   0  0  0  0  0  0  0  0  0  0  0  0
    3.5090    3.8990  -23.4890 C   0  0  0  0  0  0  0  0  0  0  0  0
    1.5590    2.5800  -24.4420 C   0  0  0  0  0  0  0  0  0  0  0  0
   -0.5700    3.3860  -24.3160 C   0  0  0  0  0  0  0  0  0  0  0  0
   -0.0430    4.6110  -23.7270 C   0  0  0  0  0  0  0  0  0  0  0  0
   -2.0260    3.3850  -24.6580 C   0  0  0  0  0  0  0  0  0  0  0  0
    4.1270    1.4050  -23.1920 C   0  0  0  0  0  0  0  0  0  0  0  0
    5.0710    1.0570  -22.0520 C   0  0  2  0  0  0  0  0  0  0  0  0
    6.6540    2.6020  -22.6090 C   0  0  2  0  0  0  0  0  0  0  0  0
    5.0600    2.0630  -20.8890 C   0  0  0  0  0  0  0  0  0  0  0  0
   -2.3640    3.5370  -26.0840 C   0  0  0  0  0  0  0  0  0  0  0  0
   -1.5810    2.7990  -21.7150 C   0  0  0  0  0  0  0  0  0  0  0  0
   -0.5440    2.4570  -21.2170 C   0  0  0  0  0  0  0  0  0  0  0  0
   -0.8860    5.6540  -23.3800 F   0  0  0  0  0  0  0  0  0  0  0  0
   -3.7540    3.0860  -20.1690 F   0  0  0  0  0  0  0  0  0  0  0  0
    1.7620    5.9720  -22.9660 N   0  0  0  0  0  0  0  0  0  0  0  0
    3.9820    5.0540  -23.0530 N   0  0  0  0  0  0  0  0  0  0  0  0
    0.2510    2.4840  -24.7360 N   0  0  0  0  0  0  0  0  0  0  0  0
    4.4300    2.8540  -23.6700 N   0  0  0  0  0  0  0  0  0  0  0  0
    6.4740    1.1280  -22.5470 N   0  0  0  0  0  0  0  0  0  0  0  0
   -3.9060    3.7210  -27.8270 O   0  0  0  0  0  0  0  0  0  0  0  0
    9.2510    7.5710  -19.9890 F   0  0  0  0  0  0  0  0  0  0  0  0
    3.9870    7.3240  -20.9050 N   0  0  0  0  0  0  0  0  0  0  0  0
    4.5490    8.6060  -20.3470 C   0  0  0  0  0  0  0  0  0  0  0  0
    3.6420    7.3570  -22.3710 C   0  0  0  0  0  0  0  0  0  0  0  0
    5.9770    8.8730  -20.8110 C   0  0  0  0  0  0  0  0  0  0  0  0
    6.3100    9.8080  -21.7740 C   0  0  0  0  0  0  0  0  0  0  0  0
    6.9730    8.1260  -20.2190 C   0  0  0  0  0  0  0  0  0  0  0  0
    8.6200    9.2330  -21.5340 C   0  0  0  0  0  0  0  0  0  0  0  0
    7.6310    9.9810  -22.1280 C   0  0  0  0  0  0  0  0  0  0  0  0
    8.2920    8.3020  -20.5750 C   0  0  0  0  0  0  0  0  0  0  0  0
    5.2790   10.6790  -22.4730 C   0  0  0  0  0  0  0  0  0  0  0  0
  1  2  2  0
  1  3  1  0
  2  6  1  0
  3  5  2  0
  3 27  1  0
  4  5  1  0
  4  6  2  0
  4 18  1  0
  5 24  1  0
  6 10  1  0
  7 10  2  0
  7 23  1  0
  7 33  1  0
 21  8  1  1
  8 22  1  0
  9 21  1  0
  9 31  1  0
 11 12  1  0
 11 14  1  0
 11 15  2  0
 12 17  2  0
 12 28  1  0
 13 28  2  0
 13 29  1  0
 13 37  1  0
 14 29  2  0
 14 31  1  0
 15 30  1  0
 16 17  1  0
 16 18  1  0
 16 30  2  0
 17 26  1  0
 18 23  2  0
 20 19  1  6
 19 31  1  0
 20 22  1  0
 20 32  1  0
 21 32  1  0
 24 25  3  0
 34 43  1  0
 35 36  1  0
 35 37  1  0
 36 38  1  0
 38 39  2  0
 38 40  1  0
 39 42  1  0
 39 44  1  0
 40 43  2  0
 41 42  2  0
 41 43  1  0
M  CHG  1  35   1
M  END
>  <s_m_entry_id>  (96) 
493

>  <s_m_entry_name>  (96) 
000000335.1

>  <s_m_Source_Path>  (96) 
/Users/zaksoul/Documents/3r_UNI/2nd_SEMESTER/BSC/FRAG_RECON/RESULTS/2

>  <s_m_Source_File>  (96) 
000000335.mol2

>  <i_m_Source_File_Index>  (96) 
1

$$$$
No_0_353,No_0_354,No_0_355,No_0_356
     RDKit          3D

 43 49  0  0  1  0  0  0  0  0999 V2000
   -5.2190    3.3200  -21.9050 C   0  0  0  0  0  0  0  0  0  0  0  0
   -5.5190    3.4660  -23.2390 C   0  0  0  0  0  0  0  0  0  0  0  0
   -3.9690    3.0950  -21.5870 C   0  0  0  0  0  0  0  0  0  0  0  0
   -3.1300    3.1720  -23.7750 C   0  0  0  0  0  0  0  0  0  0  0  0
   -2.9330    2.9710  -22.3530 C   0  0  0  0  0  0  0  0  0  0  0  0
   -4.4930    3.3990  -24.2720 C   0  0  0  0  0  0  0  0  0  0  0  0
   -3.7900    3.3690  -26.4870 C   0  0  0  0  0  0  0  0  0  0  0  0
    6.0690    2.9310  -21.4330 C   0  0  0  0  0  0  0  0  0  0  0  0
    5.8690    2.9980  -23.9820 C   0  0  0  0  0  0  0  0  0  0  0  0
   -4.7770    3.4840  -25.6040 C   0  0  0  0  0  0  0  0  0  0  0  0
    2.0770    3.4890  -23.9250 C   0  0  0  0  0  0  0  0  0  0  0  0
    1.2460    4.5930  -23.6390 C   0  0  0  0  0  0  0  0  0  0  0  0
    3.0410    5.8350  -23.0360 C   0  0  0  0  0  0  0  0  0  0  0  0
    3.4810    3.7090  -23.6510 C   0  0  0  0  0  0  0  0  0  0  0  0
    1.5330    2.3450  -24.5410 C   0  0  0  0  0  0  0  0  0  0  0  0
   -0.6040    3.1300  -24.4040 C   0  0  0  0  0  0  0  0  0  0  0  0
   -0.0820    4.3740  -23.8530 C   0  0  0  0  0  0  0  0  0  0  0  0
   -2.0640    3.1040  -24.7240 C   0  0  0  0  0  0  0  0  0  0  0  0
    4.1320    1.2300  -23.3020 C   0  0  0  0  0  0  0  0  0  0  0  0
    5.0970    0.9210  -22.1680 C   0  0  2  0  0  0  0  0  0  0  0  0
    6.6530    2.4690  -22.7860 C   0  0  2  0  0  0  0  0  0  0  0  0
    5.0910    1.9560  -21.0300 C   0  0  0  0  0  0  0  0  0  0  0  0
   -2.4250    3.2170  -26.1480 C   0  0  0  0  0  0  0  0  0  0  0  0
   -1.5690    2.5950  -21.7740 C   0  0  0  0  0  0  0  0  0  0  0  0
   -0.5210    2.2770  -21.2830 C   0  0  0  0  0  0  0  0  0  0  0  0
   -0.9320    5.4160  -23.5180 F   0  0  0  0  0  0  0  0  0  0  0  0
   -3.7230    2.8960  -20.2030 F   0  0  0  0  0  0  0  0  0  0  0  0
    1.7170    5.7740  -23.1520 N   0  0  0  0  0  0  0  0  0  0  0  0
    3.9470    4.8790  -23.2500 N   0  0  0  0  0  0  0  0  0  0  0  0
    0.2210    2.2270  -24.8130 N   0  0  0  0  0  0  0  0  0  0  0  0
    4.4110    2.6700  -23.8200 N   0  0  0  0  0  0  0  0  0  0  0  0
    6.4910    0.9950  -22.6850 N   0  0  0  0  0  0  0  0  0  0  0  0
   -3.9950    3.3410  -27.8720 O   0  0  0  0  0  0  0  0  0  0  0  0
    9.1070    8.2910  -20.1770 O   0  0  0  0  0  0  0  0  0  0  0  0
    6.2750    8.9000  -22.0240 O   0  0  0  0  0  0  0  0  0  0  0  0
    3.6090    7.3180  -21.1200 N   0  0  0  0  0  0  0  0  0  0  0  0
    7.6850    8.8160  -21.9040 N   0  0  0  0  0  0  0  0  0  0  0  0
    3.5900    7.1950  -22.6190 C   0  0  0  0  0  0  0  0  0  0  0  0
    4.2350    8.5830  -20.5990 C   0  0  0  0  0  0  0  0  0  0  0  0
    5.7330    8.5980  -20.8380 C   0  0  0  0  0  0  0  0  0  0  0  0
    6.6740    8.3170  -19.9560 C   0  0  0  0  0  0  0  0  0  0  0  0
    7.8970    8.4670  -20.6640 C   0  0  0  0  0  0  0  0  0  0  0  0
    9.2300    7.8930  -18.7980 C   0  0  0  0  0  0  0  0  0  0  0  0
  1  2  2  0
  1  3  1  0
  2  6  1  0
  3  5  2  0
  3 27  1  0
  4  5  1  0
  4  6  2  0
  4 18  1  0
  5 24  1  0
  6 10  1  0
  7 10  2  0
  7 23  1  0
  7 33  1  0
 21  8  1  1
  8 22  1  0
  9 21  1  0
  9 31  1  0
 11 12  1  0
 11 14  1  0
 11 15  2  0
 12 17  2  0
 12 28  1  0
 13 28  2  0
 13 29  1  0
 13 38  1  0
 14 29  2  0
 14 31  1  0
 15 30  1  0
 16 17  1  0
 16 18  1  0
 16 30  2  0
 17 26  1  0
 18 23  2  0
 20 19  1  6
 19 31  1  0
 20 22  1  0
 20 32  1  0
 21 32  1  0
 24 25  3  0
 34 42  1  0
 34 43  1  0
 35 37  1  0
 35 40  1  0
 36 38  1  0
 36 39  1  0
 37 42  2  0
 39 40  1  0
 40 41  2  0
 41 42  1  0
M  END
>  <s_m_entry_id>  (97) 
494

>  <s_m_entry_name>  (97) 
000000336.1

>  <s_m_Source_Path>  (97) 
/Users/zaksoul/Documents/3r_UNI/2nd_SEMESTER/BSC/FRAG_RECON/RESULTS/2

>  <s_m_Source_File>  (97) 
000000336.mol2

>  <i_m_Source_File_Index>  (97) 
1

$$$$
No_0_357,No_0_358,No_0_359
     RDKit          3D

 42 48  0  0  1  0  0  0  0  0999 V2000
   -5.1800    3.4330  -21.6710 C   0  0  0  0  0  0  0  0  0  0  0  0
   -5.5100    3.5890  -22.9970 C   0  0  0  0  0  0  0  0  0  0  0  0
   -3.9260    3.1930  -21.3830 C   0  0  0  0  0  0  0  0  0  0  0  0
   -3.1380    3.2720  -23.5900 C   0  0  0  0  0  0  0  0  0  0  0  0
   -2.9090    3.0620  -22.1740 C   0  0  0  0  0  0  0  0  0  0  0  0
   -4.5090    3.5170  -24.0540 C   0  0  0  0  0  0  0  0  0  0  0  0
   -3.8580    3.4910  -26.2850 C   0  0  0  0  0  0  0  0  0  0  0  0
    6.1100    2.9210  -21.4650 C   0  0  0  0  0  0  0  0  0  0  0  0
    5.8520    3.0030  -24.0080 C   0  0  0  0  0  0  0  0  0  0  0  0
   -4.8230    3.6120  -25.3780 C   0  0  0  0  0  0  0  0  0  0  0  0
    2.0680    3.5340  -23.8600 C   0  0  0  0  0  0  0  0  0  0  0  0
    1.2560    4.6460  -23.5490 C   0  0  0  0  0  0  0  0  0  0  0  0
    3.0770    5.8650  -22.9820 C   0  0  0  0  0  0  0  0  0  0  0  0
    3.4800    3.7380  -23.6180 C   0  0  0  0  0  0  0  0  0  0  0  0
    1.4970    2.4000  -24.4690 C   0  0  0  0  0  0  0  0  0  0  0  0
   -0.6270    3.2060  -24.2780 C   0  0  0  0  0  0  0  0  0  0  0  0
   -0.0790    4.4430  -23.7330 C   0  0  0  0  0  0  0  0  0  0  0  0
   -2.0950    3.1980  -24.5640 C   0  0  0  0  0  0  0  0  0  0  0  0
    4.1120    1.2510  -23.2970 C   0  0  0  0  0  0  0  0  0  0  0  0
    5.1000    0.9260  -22.1870 C   0  0  2  0  0  0  0  0  0  0  0  0
    6.6580    2.4600  -22.8330 C   0  0  2  0  0  0  0  0  0  0  0  0
    5.1310    1.9540  -21.0440 C   0  0  0  0  0  0  0  0  0  0  0  0
   -2.4880    3.3230  -25.9790 C   0  0  0  0  0  0  0  0  0  0  0  0
   -1.5370    2.6680  -21.6290 C   0  0  0  0  0  0  0  0  0  0  0  0
   -0.4810    2.3370  -21.1640 C   0  0  0  0  0  0  0  0  0  0  0  0
   -0.9100    5.4920  -23.3740 F   0  0  0  0  0  0  0  0  0  0  0  0
   -3.6500    2.9840  -20.0070 F   0  0  0  0  0  0  0  0  0  0  0  0
    1.7510    5.8190  -23.0670 N   0  0  0  0  0  0  0  0  0  0  0  0
    3.9680    4.9010  -23.2210 N   0  0  0  0  0  0  0  0  0  0  0  0
    0.1780    2.2970  -24.7110 N   0  0  0  0  0  0  0  0  0  0  0  0
    4.3950    2.6900  -23.8130 N   0  0  0  0  0  0  0  0  0  0  0  0
    6.4820    0.9870  -22.7360 N   0  0  0  0  0  0  0  0  0  0  0  0
   -4.0960    3.4720  -27.6650 O   0  0  0  0  0  0  0  0  0  0  0  0
    3.7150    7.3510  -21.0730 N   0  0  0  0  0  0  0  0  0  0  0  0
    7.5250    9.4230  -22.0560 N   0  0  0  0  0  0  0  0  0  0  0  0
    6.1700    9.4370  -21.9940 N   0  0  0  0  0  0  0  0  0  0  0  0
    4.2820    8.6530  -20.5700 C   0  0  0  0  0  0  0  0  0  0  0  0
    3.6510    7.2170  -22.5710 C   0  0  0  0  0  0  0  0  0  0  0  0
    6.8630    8.3540  -20.2160 C   0  0  0  0  0  0  0  0  0  0  0  0
    9.3650    8.4920  -20.6160 C   0  0  0  0  0  0  0  0  0  0  0  0
    5.7490    8.8150  -20.9220 C   0  0  0  0  0  0  0  0  0  0  0  0
    7.9110    8.7470  -20.9450 C   0  0  0  0  0  0  0  0  0  0  0  0
  1  2  2  0
  1  3  1  0
  2  6  1  0
  3  5  2  0
  3 27  1  0
  4  5  1  0
  4  6  2  0
  4 18  1  0
  5 24  1  0
  6 10  1  0
  7 10  2  0
  7 23  1  0
  7 33  1  0
 21  8  1  1
  8 22  1  0
  9 21  1  0
  9 31  1  0
 11 12  1  0
 11 14  1  0
 11 15  2  0
 12 17  2  0
 12 28  1  0
 13 28  2  0
 13 29  1  0
 13 38  1  0
 14 29  2  0
 14 31  1  0
 15 30  1  0
 16 17  1  0
 16 18  1  0
 16 30  2  0
 17 26  1  0
 18 23  2  0
 20 19  1  6
 19 31  1  0
 20 22  1  0
 20 32  1  0
 21 32  1  0
 24 25  3  0
 34 37  1  0
 34 38  1  0
 35 36  1  0
 35 42  1  0
 36 41  2  0
 37 41  1  0
 39 41  1  0
 39 42  2  0
 40 42  1  0
M  END
>  <s_m_entry_id>  (98) 
498

>  <s_m_entry_name>  (98) 
000000340.1

>  <s_m_Source_Path>  (98) 
/Users/zaksoul/Documents/3r_UNI/2nd_SEMESTER/BSC/FRAG_RECON/RESULTS/2

>  <s_m_Source_File>  (98) 
000000340.mol2

>  <i_m_Source_File_Index>  (98) 
1

$$$$
No_0_360
     RDKit          3D

 44 50  0  0  1  0  0  0  0  0999 V2000
   -5.3340    3.8220  -22.0230 C   0  0  0  0  0  0  0  0  0  0  0  0
   -5.5940    3.9800  -23.3640 C   0  0  0  0  0  0  0  0  0  0  0  0
   -4.1020    3.5470  -21.6740 C   0  0  0  0  0  0  0  0  0  0  0  0
   -3.2070    3.5920  -23.8420 C   0  0  0  0  0  0  0  0  0  0  0  0
   -3.0530    3.3830  -22.4150 C   0  0  0  0  0  0  0  0  0  0  0  0
   -4.5480    3.8740  -24.3710 C   0  0  0  0  0  0  0  0  0  0  0  0
   -3.7910    3.8170  -26.5680 C   0  0  0  0  0  0  0  0  0  0  0  0
    5.9150    2.9860  -21.2750 C   0  0  0  0  0  0  0  0  0  0  0  0
    5.7810    3.0620  -23.8270 C   0  0  0  0  0  0  0  0  0  0  0  0
   -4.7950    3.9710  -25.7100 C   0  0  0  0  0  0  0  0  0  0  0  0
    2.0110    3.7030  -23.8630 C   0  0  0  0  0  0  0  0  0  0  0  0
    1.2170    4.8390  -23.5950 C   0  0  0  0  0  0  0  0  0  0  0  0
    3.0440    6.0080  -22.9470 C   0  0  0  0  0  0  0  0  0  0  0  0
    3.4150    3.8670  -23.5540 C   0  0  0  0  0  0  0  0  0  0  0  0
    1.4370    2.5820  -24.4940 C   0  0  0  0  0  0  0  0  0  0  0  0
   -0.6700    3.4500  -24.4080 C   0  0  0  0  0  0  0  0  0  0  0  0
   -0.1130    4.6730  -23.8420 C   0  0  0  0  0  0  0  0  0  0  0  0
   -2.1220    3.4830  -24.7640 C   0  0  0  0  0  0  0  0  0  0  0  0
    3.9590    1.3640  -23.1940 C   0  0  0  0  0  0  0  0  0  0  0  0
    4.8830    1.0170  -22.0370 C   0  0  2  0  0  0  0  0  0  0  0  0
    6.5140    2.5020  -22.6130 C   0  0  2  0  0  0  0  0  0  0  0  0
    4.8890    2.0500  -20.8970 C   0  0  0  0  0  0  0  0  0  0  0  0
   -2.4430    3.6110  -26.1960 C   0  0  0  0  0  0  0  0  0  0  0  0
   -1.7200    2.9530  -21.8040 C   0  0  0  0  0  0  0  0  0  0  0  0
   -0.6980    2.5940  -21.2880 C   0  0  0  0  0  0  0  0  0  0  0  0
   -0.9290    5.7480  -23.5270 F   0  0  0  0  0  0  0  0  0  0  0  0
   -3.8980    3.3370  -20.2860 F   0  0  0  0  0  0  0  0  0  0  0  0
    1.7230    6.0000  -23.0950 N   0  0  0  0  0  0  0  0  0  0  0  0
    3.9170    5.0180  -23.1390 N   0  0  0  0  0  0  0  0  0  0  0  0
    0.1290    2.5160  -24.7980 N   0  0  0  0  0  0  0  0  0  0  0  0
    4.3070    2.7920  -23.7020 N   0  0  0  0  0  0  0  0  0  0  0  0
    6.2910    1.0360  -22.5190 N   0  0  0  0  0  0  0  0  0  0  0  0
   -3.9630    3.7980  -27.9580 O   0  0  0  0  0  0  0  0  0  0  0  0
    3.9670    7.3380  -21.0450 N   0  0  0  0  0  0  0  0  0  0  0  0
    5.5030   10.0860  -22.9410 N   0  0  0  0  0  0  0  0  0  0  0  0
    6.0810    8.7200  -21.0130 C   0  0  0  0  0  0  0  0  0  0  0  0
    3.6370    7.3450  -22.5140 C   0  0  0  0  0  0  0  0  0  0  0  0
    8.3780    8.1630  -20.6220 C   0  0  0  0  0  0  0  0  0  0  0  0
    4.6440    8.5780  -20.5180 C   0  0  0  0  0  0  0  0  0  0  0  0
    7.7880    9.4980  -22.5030 C   0  0  0  0  0  0  0  0  0  0  0  0
    6.4510    9.4320  -22.1490 C   0  0  0  0  0  0  0  0  0  0  0  0
    7.0510    8.0940  -20.2640 C   0  0  0  0  0  0  0  0  0  0  0  0
    8.7450    8.8680  -21.7460 C   0  0  0  0  0  0  0  0  0  0  0  0
    9.4140    7.4600  -19.7690 C   0  0  0  0  0  0  0  0  0  0  0  0
  1  2  2  0
  1  3  1  0
  2  6  1  0
  3  5  2  0
  3 27  1  0
  4  5  1  0
  4  6  2  0
  4 18  1  0
  5 24  1  0
  6 10  1  0
  7 10  2  0
  7 23  1  0
  7 33  1  0
 21  8  1  1
  8 22  1  0
  9 21  1  0
  9 31  1  0
 11 12  1  0
 11 14  1  0
 11 15  2  0
 12 17  2  0
 12 28  1  0
 13 28  2  0
 13 29  1  0
 13 37  1  0
 14 29  2  0
 14 31  1  0
 15 30  1  0
 16 17  1  0
 16 18  1  0
 16 30  2  0
 17 26  1  0
 18 23  2  0
 20 19  1  6
 19 31  1  0
 20 22  1  0
 20 32  1  0
 21 32  1  0
 24 25  3  0
 34 37  1  0
 34 39  1  0
 35 41  1  0
 36 39  1  0
 36 41  2  0
 36 42  1  0
 38 42  2  0
 38 43  1  0
 38 44  1  0
 40 41  1  0
 40 43  2  0
M  CHG  1  34   1
M  END
>  <s_m_entry_id>  (99) 
501

>  <s_m_entry_name>  (99) 
000000343.1

>  <s_m_Source_Path>  (99) 
/Users/zaksoul/Documents/3r_UNI/2nd_SEMESTER/BSC/FRAG_RECON/RESULTS/2

>  <s_m_Source_File>  (99) 
000000343.mol2

>  <i_m_Source_File_Index>  (99) 
1

$$$$
No_0_361,No_0_362,No_0_363
     RDKit          3D

 41 47  0  0  1  0  0  0  0  0999 V2000
   -5.0810    3.6030  -21.8270 C   0  0  0  0  0  0  0  0  0  0  0  0
   -5.3300    3.8470  -23.1570 C   0  0  0  0  0  0  0  0  0  0  0  0
   -3.8460    3.3440  -21.4790 C   0  0  0  0  0  0  0  0  0  0  0  0
   -2.9250    3.5690  -23.6240 C   0  0  0  0  0  0  0  0  0  0  0  0
   -2.7830    3.2650  -22.2130 C   0  0  0  0  0  0  0  0  0  0  0  0
   -4.2670    3.8450  -24.1530 C   0  0  0  0  0  0  0  0  0  0  0  0
   -3.4800    3.9670  -26.3370 C   0  0  0  0  0  0  0  0  0  0  0  0
    6.1780    3.0740  -20.9650 C   0  0  0  0  0  0  0  0  0  0  0  0
    6.0750    3.3250  -23.5080 C   0  0  0  0  0  0  0  0  0  0  0  0
   -4.5000    4.0280  -25.4850 C   0  0  0  0  0  0  0  0  0  0  0  0
    2.2860    3.8470  -23.5570 C   0  0  0  0  0  0  0  0  0  0  0  0
    1.4530    4.9360  -23.2230 C   0  0  0  0  0  0  0  0  0  0  0  0
    3.2320    6.1140  -22.4660 C   0  0  0  0  0  0  0  0  0  0  0  0
    3.6810    4.0340  -23.2150 C   0  0  0  0  0  0  0  0  0  0  0  0
    1.7580    2.7550  -24.2740 C   0  0  0  0  0  0  0  0  0  0  0  0
   -0.3770    3.5480  -24.1600 C   0  0  0  0  0  0  0  0  0  0  0  0
    0.1320    4.7450  -23.5010 C   0  0  0  0  0  0  0  0  0  0  0  0
   -1.8240    3.5600  -24.5350 C   0  0  0  0  0  0  0  0  0  0  0  0
    4.3010    1.5300  -23.0220 C   0  0  0  0  0  0  0  0  0  0  0  0
    5.2210    1.1320  -21.8780 C   0  0  2  0  0  0  0  0  0  0  0  0
    6.8090    2.7050  -22.3250 C   0  0  2  0  0  0  0  0  0  0  0  0
    5.1780    2.0820  -20.6700 C   0  0  0  0  0  0  0  0  0  0  0  0
   -2.1300    3.7780  -25.9590 C   0  0  0  0  0  0  0  0  0  0  0  0
   -1.4440    2.8360  -21.6130 C   0  0  0  0  0  0  0  0  0  0  0  0
   -0.4180    2.4740  -21.1070 C   0  0  0  0  0  0  0  0  0  0  0  0
   -0.7220    5.7690  -23.1240 F   0  0  0  0  0  0  0  0  0  0  0  0
   -3.6540    3.0430  -20.1050 F   0  0  0  0  0  0  0  0  0  0  0  0
    1.9130    6.0740  -22.6350 N   0  0  0  0  0  0  0  0  0  0  0  0
    4.1390    5.1680  -22.7140 N   0  0  0  0  0  0  0  0  0  0  0  0
    0.4570    2.6700  -24.6020 N   0  0  0  0  0  0  0  0  0  0  0  0
    4.6090    3.0010  -23.4240 N   0  0  0  0  0  0  0  0  0  0  0  0
    6.6340    1.2290  -22.3370 N   0  0  0  0  0  0  0  0  0  0  0  0
   -3.6330    4.0400  -27.7270 O   0  0  0  0  0  0  0  0  0  0  0  0
    4.1140    8.3530  -23.0770 N   0  0  0  0  0  0  0  0  0  0  0  0
    6.8810   10.6500  -23.1900 N   0  0  0  0  0  0  0  0  0  0  0  0
    8.1970   10.4870  -22.9010 N   0  0  0  0  0  0  0  0  0  0  0  0
    4.6350    9.7130  -22.6870 C   0  0  0  0  0  0  0  0  0  0  0  0
    3.7740    7.4350  -21.9320 C   0  0  0  0  0  0  0  0  0  0  0  0
    6.1490    9.7680  -22.5570 C   0  0  0  0  0  0  0  0  0  0  0  0
    7.0010    8.9610  -21.7950 C   0  0  0  0  0  0  0  0  0  0  0  0
    8.2220    9.4390  -22.0430 C   0  0  0  0  0  0  0  0  0  0  0  0
  1  2  2  0
  1  3  1  0
  2  6  1  0
  3  5  2  0
  3 27  1  0
  4  5  1  0
  4  6  2  0
  4 18  1  0
  5 24  1  0
  6 10  1  0
  7 10  2  0
  7 23  1  0
  7 33  1  0
 21  8  1  1
  8 22  1  0
  9 21  1  0
  9 31  1  0
 11 12  1  0
 11 14  1  0
 11 15  2  0
 12 17  2  0
 12 28  1  0
 13 28  2  0
 13 29  1  0
 13 38  1  0
 14 29  2  0
 14 31  1  0
 15 30  1  0
 16 17  1  0
 16 18  1  0
 16 30  2  0
 17 26  1  0
 18 23  2  0
 20 19  1  6
 19 31  1  0
 20 22  1  0
 20 32  1  0
 21 32  1  0
 24 25  3  0
 34 37  1  0
 34 38  1  0
 35 36  1  0
 35 39  2  0
 36 41  1  0
 37 39  1  0
 39 40  1  0
 40 41  2  0
M  END
>  <s_m_entry_id>  (100) 
502

>  <s_m_entry_name>  (100) 
000000344.1

>  <s_m_Source_Path>  (100) 
/Users/zaksoul/Documents/3r_UNI/2nd_SEMESTER/BSC/FRAG_RECON/RESULTS/2

>  <s_m_Source_File>  (100) 
000000344.mol2

>  <i_m_Source_File_Index>  (100) 
1

$$$$
No_0_364,No_0_365,No_0_366
     RDKit          3D

 42 48  0  0  1  0  0  0  0  0999 V2000
   -5.2600    3.7210  -21.9060 C   0  0  0  0  0  0  0  0  0  0  0  0
   -5.5370    3.9120  -23.2390 C   0  0  0  0  0  0  0  0  0  0  0  0
   -4.0230    3.4440  -21.5780 C   0  0  0  0  0  0  0  0  0  0  0  0
   -3.1530    3.5470  -23.7540 C   0  0  0  0  0  0  0  0  0  0  0  0
   -2.9820    3.3030  -22.3340 C   0  0  0  0  0  0  0  0  0  0  0  0
   -4.5010    3.8360  -24.2610 C   0  0  0  0  0  0  0  0  0  0  0  0
   -3.7700    3.8370  -26.4670 C   0  0  0  0  0  0  0  0  0  0  0  0
    6.0000    2.9210  -21.3060 C   0  0  0  0  0  0  0  0  0  0  0  0
    5.8360    3.0600  -23.8540 C   0  0  0  0  0  0  0  0  0  0  0  0
   -4.7640    3.9650  -25.5940 C   0  0  0  0  0  0  0  0  0  0  0  0
    2.0630    3.6840  -23.8320 C   0  0  0  0  0  0  0  0  0  0  0  0
    1.2680    4.8090  -23.5260 C   0  0  0  0  0  0  0  0  0  0  0  0
    3.0970    5.9700  -22.8690 C   0  0  0  0  0  0  0  0  0  0  0  0
    3.4700    3.8470  -23.5340 C   0  0  0  0  0  0  0  0  0  0  0  0
    1.4880    2.5760  -24.4840 C   0  0  0  0  0  0  0  0  0  0  0  0
   -0.6220    3.4320  -24.3520 C   0  0  0  0  0  0  0  0  0  0  0  0
   -0.0640    4.6430  -23.7620 C   0  0  0  0  0  0  0  0  0  0  0  0
   -2.0780    3.4660  -24.6910 C   0  0  0  0  0  0  0  0  0  0  0  0
    4.0290    1.3390  -23.2420 C   0  0  0  0  0  0  0  0  0  0  0  0
    4.9680    0.9670  -22.1050 C   0  0  2  0  0  0  0  0  0  0  0  0
    6.5860    2.4740  -22.6630 C   0  0  2  0  0  0  0  0  0  0  0  0
    4.9830    1.9710  -20.9400 C   0  0  0  0  0  0  0  0  0  0  0  0
   -2.4160    3.6290  -26.1160 C   0  0  0  0  0  0  0  0  0  0  0  0
   -1.6400    2.8640  -21.7490 C   0  0  0  0  0  0  0  0  0  0  0  0
   -0.6110    2.4970  -21.2540 C   0  0  0  0  0  0  0  0  0  0  0  0
   -0.8810    5.7050  -23.4110 F   0  0  0  0  0  0  0  0  0  0  0  0
   -3.8030    3.2000  -20.1980 F   0  0  0  0  0  0  0  0  0  0  0  0
    1.7740    5.9600  -23.0030 N   0  0  0  0  0  0  0  0  0  0  0  0
    3.9710    4.9890  -23.0960 N   0  0  0  0  0  0  0  0  0  0  0  0
    0.1760    2.5120  -24.7750 N   0  0  0  0  0  0  0  0  0  0  0  0
    4.3660    2.7810  -23.7190 N   0  0  0  0  0  0  0  0  0  0  0  0
    6.3710    1.0050  -22.6030 N   0  0  0  0  0  0  0  0  0  0  0  0
   -3.9570    3.8520  -27.8550 O   0  0  0  0  0  0  0  0  0  0  0  0
    3.6980    7.3960  -20.9070 N   0  0  0  0  0  0  0  0  0  0  0  0
    5.8030   10.2790  -21.2980 N   0  0  0  0  0  0  0  0  0  0  0  0
    7.1590   10.3200  -21.3010 N   0  0  0  0  0  0  0  0  0  0  0  0
    4.0550    8.7460  -20.3400 C   0  0  0  0  0  0  0  0  0  0  0  0
    3.6880    7.2990  -22.4100 C   0  0  0  0  0  0  0  0  0  0  0  0
    6.5900    8.5290  -20.1680 C   0  0  0  0  0  0  0  0  0  0  0  0
    9.1360    9.0630  -20.4650 C   0  0  0  0  0  0  0  0  0  0  0  0
    5.4930    9.1620  -20.5940 C   0  0  0  0  0  0  0  0  0  0  0  0
    7.6520    9.3020  -20.6430 C   0  0  0  0  0  0  0  0  0  0  0  0
  1  2  2  0
  1  3  1  0
  2  6  1  0
  3  5  2  0
  3 27  1  0
  4  5  1  0
  4  6  2  0
  4 18  1  0
  5 24  1  0
  6 10  1  0
  7 10  2  0
  7 23  1  0
  7 33  1  0
 21  8  1  1
  8 22  1  0
  9 21  1  0
  9 31  1  0
 11 12  1  0
 11 14  1  0
 11 15  2  0
 12 17  2  0
 12 28  1  0
 13 28  2  0
 13 29  1  0
 13 38  1  0
 14 29  2  0
 14 31  1  0
 15 30  1  0
 16 17  1  0
 16 18  1  0
 16 30  2  0
 17 26  1  0
 18 23  2  0
 20 19  1  6
 19 31  1  0
 20 22  1  0
 20 32  1  0
 21 32  1  0
 24 25  3  0
 34 37  1  0
 34 38  1  0
 35 36  1  0
 35 41  1  0
 36 42  2  0
 37 41  1  0
 39 41  2  0
 39 42  1  0
 40 42  1  0
M  END
>  <s_m_entry_id>  (101) 
505

>  <s_m_entry_name>  (101) 
000000347.1

>  <s_m_Source_Path>  (101) 
/Users/zaksoul/Documents/3r_UNI/2nd_SEMESTER/BSC/FRAG_RECON/RESULTS/2

>  <s_m_Source_File>  (101) 
000000347.mol2

>  <i_m_Source_File_Index>  (101) 
1

$$$$
No_0_367,No_0_368,No_0_369
     RDKit          3D

 43 49  0  0  1  0  0  0  0  0999 V2000
   -5.3760    3.4570  -22.0590 C   0  0  0  0  0  0  0  0  0  0  0  0
   -5.6360    3.6330  -23.3980 C   0  0  0  0  0  0  0  0  0  0  0  0
   -4.1410    3.2010  -21.7100 C   0  0  0  0  0  0  0  0  0  0  0  0
   -3.2390    3.2990  -23.8730 C   0  0  0  0  0  0  0  0  0  0  0  0
   -3.0860    3.0690  -22.4490 C   0  0  0  0  0  0  0  0  0  0  0  0
   -4.5830    3.5640  -24.4030 C   0  0  0  0  0  0  0  0  0  0  0  0
   -3.8180    3.5580  -26.5980 C   0  0  0  0  0  0  0  0  0  0  0  0
    5.8830    2.8270  -21.2810 C   0  0  0  0  0  0  0  0  0  0  0  0
    5.7570    2.9440  -23.8330 C   0  0  0  0  0  0  0  0  0  0  0  0
   -4.8280    3.6780  -25.7410 C   0  0  0  0  0  0  0  0  0  0  0  0
    1.9750    3.5120  -23.8730 C   0  0  0  0  0  0  0  0  0  0  0  0
    1.1590    4.6280  -23.5890 C   0  0  0  0  0  0  0  0  0  0  0  0
    2.9600    5.8210  -22.9140 C   0  0  0  0  0  0  0  0  0  0  0  0
    3.3750    3.6980  -23.5550 C   0  0  0  0  0  0  0  0  0  0  0  0
    1.4260    2.3900  -24.5250 C   0  0  0  0  0  0  0  0  0  0  0  0
   -0.6980    3.2160  -24.4320 C   0  0  0  0  0  0  0  0  0  0  0  0
   -0.1670    4.4400  -23.8440 C   0  0  0  0  0  0  0  0  0  0  0  0
   -2.1490    3.2260  -24.7930 C   0  0  0  0  0  0  0  0  0  0  0  0
    3.9660    1.2000  -23.2340 C   0  0  0  0  0  0  0  0  0  0  0  0
    4.8930    0.8520  -22.0800 C   0  0  2  0  0  0  0  0  0  0  0  0
    6.4960    2.3780  -22.6260 C   0  0  2  0  0  0  0  0  0  0  0  0
    4.8750    1.8650  -20.9240 C   0  0  0  0  0  0  0  0  0  0  0  0
   -2.4670    3.3730  -26.2240 C   0  0  0  0  0  0  0  0  0  0  0  0
   -1.7470    2.6550  -21.8400 C   0  0  0  0  0  0  0  0  0  0  0  0
   -0.7200    2.3070  -21.3260 C   0  0  0  0  0  0  0  0  0  0  0  0
   -1.0050    5.4930  -23.5140 F   0  0  0  0  0  0  0  0  0  0  0  0
   -3.9380    2.9720  -20.3250 F   0  0  0  0  0  0  0  0  0  0  0  0
    1.6400    5.7900  -23.0670 N   0  0  0  0  0  0  0  0  0  0  0  0
    3.8530    4.8510  -23.1200 N   0  0  0  0  0  0  0  0  0  0  0  0
    0.1200    2.3050  -24.8350 N   0  0  0  0  0  0  0  0  0  0  0  0
    4.2880    2.6440  -23.7170 N   0  0  0  0  0  0  0  0  0  0  0  0
    6.3020    0.9060  -22.5570 N   0  0  0  0  0  0  0  0  0  0  0  0
   -3.9850    3.5590  -27.9880 O   0  0  0  0  0  0  0  0  0  0  0  0
    3.8510    7.1370  -20.9860 N   0  0  0  0  0  0  0  0  0  0  0  0
    7.5770    9.5620  -21.6150 N   0  0  0  0  0  0  0  0  0  0  0  0
    6.2220    9.5900  -21.6760 N   0  0  0  0  0  0  0  0  0  0  0  0
    4.3430    8.4380  -20.4040 C   0  0  0  0  0  0  0  0  0  0  0  0
    5.8040    8.7250  -20.7160 C   0  0  0  0  0  0  0  0  0  0  0  0
    3.5250    7.1620  -22.4570 C   0  0  0  0  0  0  0  0  0  0  0  0
    6.8430    8.1760  -20.0780 C   0  0  0  0  0  0  0  0  0  0  0  0
    5.4550   10.4260  -22.6060 C   0  0  0  0  0  0  0  0  0  0  0  0
    9.4270    8.4830  -20.3470 C   0  0  0  0  0  0  0  0  0  0  0  0
    7.9730    8.7380  -20.6790 C   0  0  0  0  0  0  0  0  0  0  0  0
  1  2  2  0
  1  3  1  0
  2  6  1  0
  3  5  2  0
  3 27  1  0
  4  5  1  0
  4  6  2  0
  4 18  1  0
  5 24  1  0
  6 10  1  0
  7 10  2  0
  7 23  1  0
  7 33  1  0
 21  8  1  1
  8 22  1  0
  9 21  1  0
  9 31  1  0
 11 12  1  0
 11 14  1  0
 11 15  2  0
 12 17  2  0
 12 28  1  0
 13 28  2  0
 13 29  1  0
 13 39  1  0
 14 29  2  0
 14 31  1  0
 15 30  1  0
 16 17  1  0
 16 18  1  0
 16 30  2  0
 17 26  1  0
 18 23  2  0
 20 19  1  6
 19 31  1  0
 20 22  1  0
 20 32  1  0
 21 32  1  0
 24 25  3  0
 34 37  1  0
 34 39  1  0
 35 36  1  0
 35 43  2  0
 36 38  1  0
 36 41  1  0
 37 38  1  0
 38 40  2  0
 40 43  1  0
 42 43  1  0
M  END
>  <s_m_entry_id>  (102) 
508

>  <s_m_entry_name>  (102) 
000000350.1

>  <s_m_Source_Path>  (102) 
/Users/zaksoul/Documents/3r_UNI/2nd_SEMESTER/BSC/FRAG_RECON/RESULTS/2

>  <s_m_Source_File>  (102) 
000000350.mol2

>  <i_m_Source_File_Index>  (102) 
1

$$$$
No_0_370,No_0_371,No_0_372
     RDKit          3D

 42 48  0  0  1  0  0  0  0  0999 V2000
   -5.2420    3.7250  -21.8880 C   0  0  0  0  0  0  0  0  0  0  0  0
   -5.5170    3.9220  -23.2200 C   0  0  0  0  0  0  0  0  0  0  0  0
   -4.0040    3.4560  -21.5580 C   0  0  0  0  0  0  0  0  0  0  0  0
   -3.1290    3.5810  -23.7310 C   0  0  0  0  0  0  0  0  0  0  0  0
   -2.9600    3.3290  -22.3130 C   0  0  0  0  0  0  0  0  0  0  0  0
   -4.4780    3.8610  -24.2400 C   0  0  0  0  0  0  0  0  0  0  0  0
   -3.7410    3.8820  -26.4440 C   0  0  0  0  0  0  0  0  0  0  0  0
    6.0220    3.0150  -21.2630 C   0  0  0  0  0  0  0  0  0  0  0  0
    5.8640    3.1690  -23.8110 C   0  0  0  0  0  0  0  0  0  0  0  0
   -4.7390    3.9960  -25.5720 C   0  0  0  0  0  0  0  0  0  0  0  0
    2.0860    3.7600  -23.7940 C   0  0  0  0  0  0  0  0  0  0  0  0
    1.2810    4.8770  -23.4840 C   0  0  0  0  0  0  0  0  0  0  0  0
    3.0980    6.0500  -22.8150 C   0  0  0  0  0  0  0  0  0  0  0  0
    3.4910    3.9340  -23.4920 C   0  0  0  0  0  0  0  0  0  0  0  0
    1.5210    2.6520  -24.4550 C   0  0  0  0  0  0  0  0  0  0  0  0
   -0.5950    3.4900  -24.3230 C   0  0  0  0  0  0  0  0  0  0  0  0
   -0.0490    4.7020  -23.7240 C   0  0  0  0  0  0  0  0  0  0  0  0
   -2.0510    3.5140  -24.6660 C   0  0  0  0  0  0  0  0  0  0  0  0
    4.0700    1.4280  -23.2140 C   0  0  0  0  0  0  0  0  0  0  0  0
    5.0090    1.0570  -22.0770 C   0  0  2  0  0  0  0  0  0  0  0  0
    6.6150    2.5810  -22.6210 C   0  0  2  0  0  0  0  0  0  0  0  0
    5.0130    2.0540  -20.9060 C   0  0  0  0  0  0  0  0  0  0  0  0
   -2.3870    3.6830  -26.0900 C   0  0  0  0  0  0  0  0  0  0  0  0
   -1.6150    2.8980  -21.7270 C   0  0  0  0  0  0  0  0  0  0  0  0
   -0.5840    2.5360  -21.2310 C   0  0  0  0  0  0  0  0  0  0  0  0
   -0.8760    5.7550  -23.3690 F   0  0  0  0  0  0  0  0  0  0  0  0
   -3.7850    3.2060  -20.1790 F   0  0  0  0  0  0  0  0  0  0  0  0
    1.7760    6.0290  -22.9520 N   0  0  0  0  0  0  0  0  0  0  0  0
    3.9820    5.0770  -23.0460 N   0  0  0  0  0  0  0  0  0  0  0  0
    0.2120    2.5790  -24.7490 N   0  0  0  0  0  0  0  0  0  0  0  0
    4.3960    2.8760  -23.6810 N   0  0  0  0  0  0  0  0  0  0  0  0
    6.4120    1.1100  -22.5710 N   0  0  0  0  0  0  0  0  0  0  0  0
   -3.9250    3.9040  -27.8320 O   0  0  0  0  0  0  0  0  0  0  0  0
    6.8860    8.5210  -21.8070 O   0  0  0  0  0  0  0  0  0  0  0  0
    3.9580    7.3700  -20.8680 N   0  0  0  0  0  0  0  0  0  0  0  0
    8.2470    8.1400  -21.6990 N   0  0  0  0  0  0  0  0  0  0  0  0
    4.8180    8.5090  -20.3790 C   0  0  0  0  0  0  0  0  0  0  0  0
    3.6770    7.3800  -22.3470 C   0  0  0  0  0  0  0  0  0  0  0  0
    7.1610    7.7240  -19.7970 C   0  0  0  0  0  0  0  0  0  0  0  0
    9.7020    7.1470  -19.9640 C   0  0  0  0  0  0  0  0  0  0  0  0
    6.2910    8.2480  -20.6440 C   0  0  0  0  0  0  0  0  0  0  0  0
    8.3860    7.6710  -20.4960 C   0  0  0  0  0  0  0  0  0  0  0  0
  1  2  2  0
  1  3  1  0
  2  6  1  0
  3  5  2  0
  3 27  1  0
  4  5  1  0
  4  6  2  0
  4 18  1  0
  5 24  1  0
  6 10  1  0
  7 10  2  0
  7 23  1  0
  7 33  1  0
 21  8  1  1
  8 22  1  0
  9 21  1  0
  9 31  1  0
 11 12  1  0
 11 14  1  0
 11 15  2  0
 12 17  2  0
 12 28  1  0
 13 28  2  0
 13 29  1  0
 13 38  1  0
 14 29  2  0
 14 31  1  0
 15 30  1  0
 16 17  1  0
 16 18  1  0
 16 30  2  0
 17 26  1  0
 18 23  2  0
 20 19  1  6
 19 31  1  0
 20 22  1  0
 20 32  1  0
 21 32  1  0
 24 25  3  0
 34 36  1  0
 34 41  1  0
 35 37  1  0
 35 38  1  0
 36 42  2  0
 37 41  1  0
 39 41  2  0
 39 42  1  0
 40 42  1  0
M  END
>  <s_m_entry_id>  (103) 
511

>  <s_m_entry_name>  (103) 
000000353.1

>  <s_m_Source_Path>  (103) 
/Users/zaksoul/Documents/3r_UNI/2nd_SEMESTER/BSC/FRAG_RECON/RESULTS/2

>  <s_m_Source_File>  (103) 
000000353.mol2

>  <i_m_Source_File_Index>  (103) 
1

$$$$
No_0_375
     RDKit          3D

 44 50  0  0  1  0  0  0  0  0999 V2000
   -5.1710    3.5740  -21.8600 C   0  0  0  0  0  0  0  0  0  0  0  0
   -5.4820    3.7630  -23.1860 C   0  0  0  0  0  0  0  0  0  0  0  0
   -3.9200    3.3370  -21.5590 C   0  0  0  0  0  0  0  0  0  0  0  0
   -3.0990    3.4820  -23.7520 C   0  0  0  0  0  0  0  0  0  0  0  0
   -2.8900    3.2360  -22.3380 C   0  0  0  0  0  0  0  0  0  0  0  0
   -4.4660    3.7280  -24.2290 C   0  0  0  0  0  0  0  0  0  0  0  0
   -3.7820    3.7660  -26.4500 C   0  0  0  0  0  0  0  0  0  0  0  0
    6.1190    3.1530  -21.4990 C   0  0  0  0  0  0  0  0  0  0  0  0
    5.8970    3.3010  -24.0420 C   0  0  0  0  0  0  0  0  0  0  0  0
   -4.7620    3.8550  -25.5550 C   0  0  0  0  0  0  0  0  0  0  0  0
    2.1070    3.7960  -23.9370 C   0  0  0  0  0  0  0  0  0  0  0  0
    1.2810    4.8920  -23.6080 C   0  0  0  0  0  0  0  0  0  0  0  0
    3.0830    6.1110  -22.9820 C   0  0  0  0  0  0  0  0  0  0  0  0
    3.5140    4.0050  -23.6680 C   0  0  0  0  0  0  0  0  0  0  0  0
    1.5550    2.6730  -24.5840 C   0  0  0  0  0  0  0  0  0  0  0  0
   -0.5780    3.4560  -24.4040 C   0  0  0  0  0  0  0  0  0  0  0  0
   -0.0500    4.6820  -23.8180 C   0  0  0  0  0  0  0  0  0  0  0  0
   -2.0420    3.4430  -24.7120 C   0  0  0  0  0  0  0  0  0  0  0  0
    4.1630    1.5150  -23.4040 C   0  0  0  0  0  0  0  0  0  0  0  0
    5.1370    1.1690  -22.2880 C   0  0  2  0  0  0  0  0  0  0  0  0
    6.6910    2.7340  -22.8700 C   0  0  2  0  0  0  0  0  0  0  0  0
    5.1430    2.1670  -21.1180 C   0  0  0  0  0  0  0  0  0  0  0  0
   -2.4150    3.6020  -26.1280 C   0  0  0  0  0  0  0  0  0  0  0  0
   -1.5220    2.8400  -21.7840 C   0  0  0  0  0  0  0  0  0  0  0  0
   -0.4710    2.5050  -21.3120 C   0  0  0  0  0  0  0  0  0  0  0  0
   -0.8950    5.7140  -23.4430 F   0  0  0  0  0  0  0  0  0  0  0  0
   -3.6620    3.0940  -20.1850 F   0  0  0  0  0  0  0  0  0  0  0  0
    1.7580    6.0560  -23.0890 N   0  0  0  0  0  0  0  0  0  0  0  0
    3.9850    5.1610  -23.2340 N   0  0  0  0  0  0  0  0  0  0  0  0
    0.2410    2.5660  -24.8480 N   0  0  0  0  0  0  0  0  0  0  0  0
    4.4400    2.9710  -23.8780 N   0  0  0  0  0  0  0  0  0  0  0  0
    6.5270    1.2570  -22.8150 N   0  0  0  0  0  0  0  0  0  0  0  0
   -3.9990    3.7820  -27.8330 O   0  0  0  0  0  0  0  0  0  0  0  0
    8.2440   10.9710  -22.7490 F   0  0  0  0  0  0  0  0  0  0  0  0
    4.0160    7.4130  -21.0700 N   0  0  0  0  0  0  0  0  0  0  0  0
    4.5660    8.6980  -20.5040 C   0  0  0  0  0  0  0  0  0  0  0  0
    3.6380    7.4560  -22.5280 C   0  0  0  0  0  0  0  0  0  0  0  0
    6.0520    8.8920  -20.7720 C   0  0  0  0  0  0  0  0  0  0  0  0
    7.8350   10.0330  -21.8820 C   0  0  0  0  0  0  0  0  0  0  0  0
    8.3230    8.2980  -20.3240 C   0  0  0  0  0  0  0  0  0  0  0  0
    6.9760    8.1170  -20.1050 C   0  0  0  0  0  0  0  0  0  0  0  0
    6.4860    9.8480  -21.6620 C   0  0  0  0  0  0  0  0  0  0  0  0
   10.2420    9.4610  -21.4430 C   0  0  0  0  0  0  0  0  0  0  0  0
    8.7580    9.2570  -21.2110 C   0  0  0  0  0  0  0  0  0  0  0  0
  1  2  2  0
  1  3  1  0
  2  6  1  0
  3  5  2  0
  3 27  1  0
  4  5  1  0
  4  6  2  0
  4 18  1  0
  5 24  1  0
  6 10  1  0
  7 10  2  0
  7 23  1  0
  7 33  1  0
 21  8  1  1
  8 22  1  0
  9 21  1  0
  9 31  1  0
 11 12  1  0
 11 14  1  0
 11 15  2  0
 12 17  2  0
 12 28  1  0
 13 28  2  0
 13 29  1  0
 13 37  1  0
 14 29  2  0
 14 31  1  0
 15 30  1  0
 16 17  1  0
 16 18  1  0
 16 30  2  0
 17 26  1  0
 18 23  2  0
 20 19  1  6
 19 31  1  0
 20 22  1  0
 20 32  1  0
 21 32  1  0
 24 25  3  0
 34 39  1  0
 35 36  1  0
 35 37  1  0
 36 38  1  0
 38 41  2  0
 38 42  1  0
 39 42  2  0
 39 44  1  0
 40 41  1  0
 40 44  2  0
 43 44  1  0
M  CHG  1  35   1
M  END
>  <s_m_entry_id>  (104) 
516

>  <s_m_entry_name>  (104) 
000000358.1

>  <s_m_Source_Path>  (104) 
/Users/zaksoul/Documents/3r_UNI/2nd_SEMESTER/BSC/FRAG_RECON/RESULTS/2

>  <s_m_Source_File>  (104) 
000000358.mol2

>  <i_m_Source_File_Index>  (104) 
1

$$$$
No_0_376,No_0_377
     RDKit          3D

 43 49  0  0  1  0  0  0  0  0999 V2000
   -5.2560    3.5620  -21.9870 C   0  0  0  0  0  0  0  0  0  0  0  0
   -5.5370    3.7380  -23.3210 C   0  0  0  0  0  0  0  0  0  0  0  0
   -4.0130    3.3200  -21.6560 C   0  0  0  0  0  0  0  0  0  0  0  0
   -3.1440    3.4330  -23.8310 C   0  0  0  0  0  0  0  0  0  0  0  0
   -2.9680    3.2020  -22.4110 C   0  0  0  0  0  0  0  0  0  0  0  0
   -4.4980    3.6830  -24.3410 C   0  0  0  0  0  0  0  0  0  0  0  0
   -3.7650    3.6910  -26.5470 C   0  0  0  0  0  0  0  0  0  0  0  0
    6.0200    3.0630  -21.3730 C   0  0  0  0  0  0  0  0  0  0  0  0
    5.8550    3.1830  -23.9220 C   0  0  0  0  0  0  0  0  0  0  0  0
   -4.7640    3.7980  -25.6750 C   0  0  0  0  0  0  0  0  0  0  0  0
    2.0670    3.7060  -23.9060 C   0  0  0  0  0  0  0  0  0  0  0  0
    1.2420    4.8120  -23.6080 C   0  0  0  0  0  0  0  0  0  0  0  0
    3.0390    6.0250  -22.9560 C   0  0  0  0  0  0  0  0  0  0  0  0
    3.4690    3.9090  -23.6090 C   0  0  0  0  0  0  0  0  0  0  0  0
    1.5220    2.5800  -24.5530 C   0  0  0  0  0  0  0  0  0  0  0  0
   -0.6100    3.3810  -24.4270 C   0  0  0  0  0  0  0  0  0  0  0  0
   -0.0850    4.6100  -23.8440 C   0  0  0  0  0  0  0  0  0  0  0  0
   -2.0660    3.3750  -24.7670 C   0  0  0  0  0  0  0  0  0  0  0  0
    4.0940    1.4170  -23.3020 C   0  0  0  0  0  0  0  0  0  0  0  0
    5.0410    1.0770  -22.1620 C   0  0  2  0  0  0  0  0  0  0  0  0
    6.6190    2.6230  -22.7270 C   0  0  2  0  0  0  0  0  0  0  0  0
    5.0280    2.0880  -21.0030 C   0  0  0  0  0  0  0  0  0  0  0  0
   -2.4070    3.5200  -26.1930 C   0  0  0  0  0  0  0  0  0  0  0  0
   -1.6150    2.8020  -21.8220 C   0  0  0  0  0  0  0  0  0  0  0  0
   -0.5770    2.4650  -21.3240 C   0  0  0  0  0  0  0  0  0  0  0  0
   -0.9300    5.6520  -23.5000 F   0  0  0  0  0  0  0  0  0  0  0  0
   -3.7870    3.0900  -20.2740 F   0  0  0  0  0  0  0  0  0  0  0  0
    1.7170    5.9790  -23.0910 N   0  0  0  0  0  0  0  0  0  0  0  0
    3.9400    5.0660  -23.1770 N   0  0  0  0  0  0  0  0  0  0  0  0
    0.2130    2.4800  -24.8440 N   0  0  0  0  0  0  0  0  0  0  0  0
    4.3920    2.8650  -23.7860 N   0  0  0  0  0  0  0  0  0  0  0  0
    6.4430    1.1490  -22.6590 N   0  0  0  0  0  0  0  0  0  0  0  0
   -3.9520    3.6930  -27.9350 O   0  0  0  0  0  0  0  0  0  0  0  0
    3.9460    7.3590  -21.0410 N   0  0  0  0  0  0  0  0  0  0  0  0
    9.4520   10.2450  -22.6290 N   0  0  0  0  0  0  0  0  0  0  0  0
    3.5950    7.3720  -22.5050 C   0  0  0  0  0  0  0  0  0  0  0  0
    5.7820    9.0900  -21.0540 C   0  0  0  0  0  0  0  0  0  0  0  0
    4.4360    8.6710  -20.4820 C   0  0  0  0  0  0  0  0  0  0  0  0
    6.9520    8.6430  -20.4800 C   0  0  0  0  0  0  0  0  0  0  0  0
    5.8340    9.9200  -22.1530 C   0  0  0  0  0  0  0  0  0  0  0  0
    8.1670    9.0220  -20.9980 C   0  0  0  0  0  0  0  0  0  0  0  0
    7.0450   10.3020  -22.6770 C   0  0  0  0  0  0  0  0  0  0  0  0
    8.2210    9.8560  -22.1010 C   0  0  0  0  0  0  0  0  0  0  0  0
  1  2  2  0
  1  3  1  0
  2  6  1  0
  3  5  2  0
  3 27  1  0
  4  5  1  0
  4  6  2  0
  4 18  1  0
  5 24  1  0
  6 10  1  0
  7 10  2  0
  7 23  1  0
  7 33  1  0
 21  8  1  1
  8 22  1  0
  9 21  1  0
  9 31  1  0
 11 12  1  0
 11 14  1  0
 11 15  2  0
 12 17  2  0
 12 28  1  0
 13 28  2  0
 13 29  1  0
 13 36  1  0
 14 29  2  0
 14 31  1  0
 15 30  1  0
 16 17  1  0
 16 18  1  0
 16 30  2  0
 17 26  1  0
 18 23  2  0
 20 19  1  6
 19 31  1  0
 20 22  1  0
 20 32  1  0
 21 32  1  0
 24 25  3  0
 34 36  1  0
 34 38  1  0
 35 43  1  0
 37 38  1  0
 37 39  2  0
 37 40  1  0
 39 41  1  0
 40 42  2  0
 41 43  2  0
 42 43  1  0
M  CHG  1  34   1
M  END
>  <s_m_entry_id>  (105) 
517

>  <s_m_entry_name>  (105) 
000000359.1

>  <s_m_Source_Path>  (105) 
/Users/zaksoul/Documents/3r_UNI/2nd_SEMESTER/BSC/FRAG_RECON/RESULTS/2

>  <s_m_Source_File>  (105) 
000000359.mol2

>  <i_m_Source_File_Index>  (105) 
1

$$$$
No_0_378,No_0_379
     RDKit          3D

 43 49  0  0  1  0  0  0  0  0999 V2000
   -5.3190    3.5370  -21.8980 C   0  0  0  0  0  0  0  0  0  0  0  0
   -5.5860    3.7240  -23.2340 C   0  0  0  0  0  0  0  0  0  0  0  0
   -4.0810    3.2850  -21.5570 C   0  0  0  0  0  0  0  0  0  0  0  0
   -3.1900    3.4080  -23.7230 C   0  0  0  0  0  0  0  0  0  0  0  0
   -3.0290    3.1660  -22.3020 C   0  0  0  0  0  0  0  0  0  0  0  0
   -4.5380    3.6690  -24.2440 C   0  0  0  0  0  0  0  0  0  0  0  0
   -3.7840    3.6870  -26.4430 C   0  0  0  0  0  0  0  0  0  0  0  0
    5.9480    2.9650  -21.1800 C   0  0  0  0  0  0  0  0  0  0  0  0
    5.8080    3.1030  -23.7290 C   0  0  0  0  0  0  0  0  0  0  0  0
   -4.7900    3.7940  -25.5800 C   0  0  0  0  0  0  0  0  0  0  0  0
    2.0230    3.6490  -23.7460 C   0  0  0  0  0  0  0  0  0  0  0  0
    1.2020    4.7580  -23.4490 C   0  0  0  0  0  0  0  0  0  0  0  0
    3.0000    5.9560  -22.7720 C   0  0  0  0  0  0  0  0  0  0  0  0
    3.4240    3.8410  -23.4340 C   0  0  0  0  0  0  0  0  0  0  0  0
    1.4770    2.5310  -24.4050 C   0  0  0  0  0  0  0  0  0  0  0  0
   -0.6500    3.3440  -24.2950 C   0  0  0  0  0  0  0  0  0  0  0  0
   -0.1240    4.5660  -23.6990 C   0  0  0  0  0  0  0  0  0  0  0  0
   -2.1040    3.3490  -24.6490 C   0  0  0  0  0  0  0  0  0  0  0  0
    4.0300    1.3440  -23.1380 C   0  0  0  0  0  0  0  0  0  0  0  0
    4.9640    0.9910  -21.9910 C   0  0  2  0  0  0  0  0  0  0  0  0
    6.5570    2.5310  -22.5310 C   0  0  2  0  0  0  0  0  0  0  0  0
    4.9470    1.9940  -20.8250 C   0  0  0  0  0  0  0  0  0  0  0  0
   -2.4300    3.5060  -26.0770 C   0  0  0  0  0  0  0  0  0  0  0  0
   -1.6840    2.7540  -21.7040 C   0  0  0  0  0  0  0  0  0  0  0  0
   -0.6530    2.4080  -21.1970 C   0  0  0  0  0  0  0  0  0  0  0  0
   -0.9660    5.6110  -23.3560 F   0  0  0  0  0  0  0  0  0  0  0  0
   -3.8690    3.0450  -20.1750 F   0  0  0  0  0  0  0  0  0  0  0  0
    1.6790    5.9180  -22.9190 N   0  0  0  0  0  0  0  0  0  0  0  0
    3.8970    4.9930  -22.9900 N   0  0  0  0  0  0  0  0  0  0  0  0
    0.1710    2.4410  -24.7100 N   0  0  0  0  0  0  0  0  0  0  0  0
    4.3420    2.7930  -23.6090 N   0  0  0  0  0  0  0  0  0  0  0  0
    6.3710    1.0570  -22.4740 N   0  0  0  0  0  0  0  0  0  0  0  0
   -3.9570    3.6990  -27.8320 O   0  0  0  0  0  0  0  0  0  0  0  0
    3.8950    7.2680  -20.8370 N   0  0  0  0  0  0  0  0  0  0  0  0
    5.7560    9.4740  -22.0990 N   0  0  0  0  0  0  0  0  0  0  0  0
    9.3520   10.1340  -22.3720 N   0  0  0  0  0  0  0  0  0  0  0  0
    3.5600    7.2960  -22.3060 C   0  0  0  0  0  0  0  0  0  0  0  0
    4.3930    8.5680  -20.2630 C   0  0  0  0  0  0  0  0  0  0  0  0
    5.7340    8.9820  -20.8450 C   0  0  0  0  0  0  0  0  0  0  0  0
    6.8540    8.8350  -20.0580 C   0  0  0  0  0  0  0  0  0  0  0  0
    8.1330    9.7270  -21.8290 C   0  0  0  0  0  0  0  0  0  0  0  0
    8.0720    9.2110  -20.5540 C   0  0  0  0  0  0  0  0  0  0  0  0
    6.9670    9.8360  -22.5610 C   0  0  0  0  0  0  0  0  0  0  0  0
  1  2  2  0
  1  3  1  0
  2  6  1  0
  3  5  2  0
  3 27  1  0
  4  5  1  0
  4  6  2  0
  4 18  1  0
  5 24  1  0
  6 10  1  0
  7 10  2  0
  7 23  1  0
  7 33  1  0
 21  8  1  1
  8 22  1  0
  9 21  1  0
  9 31  1  0
 11 12  1  0
 11 14  1  0
 11 15  2  0
 12 17  2  0
 12 28  1  0
 13 28  2  0
 13 29  1  0
 13 37  1  0
 14 29  2  0
 14 31  1  0
 15 30  1  0
 16 17  1  0
 16 18  1  0
 16 30  2  0
 17 26  1  0
 18 23  2  0
 20 19  1  6
 19 31  1  0
 20 22  1  0
 20 32  1  0
 21 32  1  0
 24 25  3  0
 34 37  1  0
 34 38  1  0
 35 39  2  0
 35 43  1  0
 36 41  1  0
 38 39  1  0
 39 40  1  0
 40 42  2  0
 41 42  1  0
 41 43  2  0
M  END
>  <s_m_entry_id>  (106) 
519

>  <s_m_entry_name>  (106) 
000000361.1

>  <s_m_Source_Path>  (106) 
/Users/zaksoul/Documents/3r_UNI/2nd_SEMESTER/BSC/FRAG_RECON/RESULTS/2

>  <s_m_Source_File>  (106) 
000000361.mol2

>  <i_m_Source_File_Index>  (106) 
1

$$$$
No_0_380
     RDKit          3D

 43 49  0  0  1  0  0  0  0  0999 V2000
   -4.9670    3.5670  -22.1070 C   0  0  0  0  0  0  0  0  0  0  0  0
   -5.2410    3.7600  -23.4400 C   0  0  0  0  0  0  0  0  0  0  0  0
   -3.7270    3.3110  -21.7740 C   0  0  0  0  0  0  0  0  0  0  0  0
   -2.8490    3.4430  -23.9450 C   0  0  0  0  0  0  0  0  0  0  0  0
   -2.6800    3.1940  -22.5260 C   0  0  0  0  0  0  0  0  0  0  0  0
   -4.2000    3.7090  -24.4570 C   0  0  0  0  0  0  0  0  0  0  0  0
   -3.4580    3.7360  -26.6600 C   0  0  0  0  0  0  0  0  0  0  0  0
    6.3030    2.9750  -21.4580 C   0  0  0  0  0  0  0  0  0  0  0  0
    6.1480    3.1250  -24.0060 C   0  0  0  0  0  0  0  0  0  0  0  0
   -4.4590    3.8400  -25.7900 C   0  0  0  0  0  0  0  0  0  0  0  0
    2.3640    3.6780  -23.9980 C   0  0  0  0  0  0  0  0  0  0  0  0
    1.5470    4.7860  -23.6900 C   0  0  0  0  0  0  0  0  0  0  0  0
    3.3500    5.9780  -23.0180 C   0  0  0  0  0  0  0  0  0  0  0  0
    3.7670    3.8660  -23.6930 C   0  0  0  0  0  0  0  0  0  0  0  0
    1.8130    2.5630  -24.6590 C   0  0  0  0  0  0  0  0  0  0  0  0
   -0.3130    3.3780  -24.5320 C   0  0  0  0  0  0  0  0  0  0  0  0
    0.2190    4.5960  -23.9330 C   0  0  0  0  0  0  0  0  0  0  0  0
   -1.7680    3.3870  -24.8780 C   0  0  0  0  0  0  0  0  0  0  0  0
    4.3710    1.3660  -23.4120 C   0  0  0  0  0  0  0  0  0  0  0  0
    5.3120    1.0060  -22.2720 C   0  0  2  0  0  0  0  0  0  0  0  0
    6.9030    2.5470  -22.8140 C   0  0  2  0  0  0  0  0  0  0  0  0
    5.3020    2.0040  -21.1020 C   0  0  0  0  0  0  0  0  0  0  0  0
   -2.1020    3.5510  -26.3030 C   0  0  0  0  0  0  0  0  0  0  0  0
   -1.3320    2.7770  -21.9380 C   0  0  0  0  0  0  0  0  0  0  0  0
   -0.2990    2.4270  -21.4390 C   0  0  0  0  0  0  0  0  0  0  0  0
   -0.6200    5.6410  -23.5800 F   0  0  0  0  0  0  0  0  0  0  0  0
   -3.5080    3.0640  -20.3940 F   0  0  0  0  0  0  0  0  0  0  0  0
    2.0280    5.9430  -23.1580 N   0  0  0  0  0  0  0  0  0  0  0  0
    4.2440    5.0150  -23.2470 N   0  0  0  0  0  0  0  0  0  0  0  0
    0.5040    2.4760  -24.9560 N   0  0  0  0  0  0  0  0  0  0  0  0
    4.6830    2.8170  -23.8790 N   0  0  0  0  0  0  0  0  0  0  0  0
    6.7160    1.0730  -22.7640 N   0  0  0  0  0  0  0  0  0  0  0  0
   -3.6400    3.7550  -28.0480 O   0  0  0  0  0  0  0  0  0  0  0  0
    3.9200    7.4150  -21.0450 N   0  0  0  0  0  0  0  0  0  0  0  0
    4.4200    8.7200  -20.4830 C   0  0  0  0  0  0  0  0  0  0  0  0
    3.9140    7.3150  -22.5490 C   0  0  0  0  0  0  0  0  0  0  0  0
    5.8850    8.9780  -20.7980 C   0  0  0  0  0  0  0  0  0  0  0  0
    7.5480   10.0830  -22.1060 C   0  0  0  0  0  0  0  0  0  0  0  0
    8.2020    8.5940  -20.3660 C   0  0  0  0  0  0  0  0  0  0  0  0
    6.2250    9.8420  -21.8150 C   0  0  0  0  0  0  0  0  0  0  0  0
    6.8780    8.3540  -20.0740 C   0  0  0  0  0  0  0  0  0  0  0  0
   10.0000    9.7170  -21.6870 C   0  0  0  0  0  0  0  0  0  0  0  0
    8.5390    9.4600  -21.3810 C   0  0  0  0  0  0  0  0  0  0  0  0
  1  2  2  0
  1  3  1  0
  2  6  1  0
  3  5  2  0
  3 27  1  0
  4  5  1  0
  4  6  2  0
  4 18  1  0
  5 24  1  0
  6 10  1  0
  7 10  2  0
  7 23  1  0
  7 33  1  0
 21  8  1  1
  8 22  1  0
  9 21  1  0
  9 31  1  0
 11 12  1  0
 11 14  1  0
 11 15  2  0
 12 17  2  0
 12 28  1  0
 13 28  2  0
 13 29  1  0
 13 36  1  0
 14 29  2  0
 14 31  1  0
 15 30  1  0
 16 17  1  0
 16 18  1  0
 16 30  2  0
 17 26  1  0
 18 23  2  0
 20 19  1  6
 19 31  1  0
 20 22  1  0
 20 32  1  0
 21 32  1  0
 24 25  3  0
 34 35  1  0
 34 36  1  0
 35 37  1  0
 37 40  1  0
 37 41  2  0
 38 40  2  0
 38 43  1  0
 39 41  1  0
 39 43  2  0
 42 43  1  0
M  CHG  1  34   1
M  END
>  <s_m_entry_id>  (107) 
521

>  <s_m_entry_name>  (107) 
000000363.1

>  <s_m_Source_Path>  (107) 
/Users/zaksoul/Documents/3r_UNI/2nd_SEMESTER/BSC/FRAG_RECON/RESULTS/2

>  <s_m_Source_File>  (107) 
000000363.mol2

>  <i_m_Source_File_Index>  (107) 
1

$$$$
No_0_381
     RDKit          3D

 43 49  0  0  1  0  0  0  0  0999 V2000
   -5.0200    3.7390  -22.0790 C   0  0  0  0  0  0  0  0  0  0  0  0
   -5.2760    3.8790  -23.4220 C   0  0  0  0  0  0  0  0  0  0  0  0
   -3.7880    3.4760  -21.7220 C   0  0  0  0  0  0  0  0  0  0  0  0
   -2.8850    3.4970  -23.8860 C   0  0  0  0  0  0  0  0  0  0  0  0
   -2.7350    3.3070  -22.4560 C   0  0  0  0  0  0  0  0  0  0  0  0
   -4.2250    3.7640  -24.4240 C   0  0  0  0  0  0  0  0  0  0  0  0
   -3.4610    3.6820  -26.6180 C   0  0  0  0  0  0  0  0  0  0  0  0
    6.2300    2.9740  -21.2780 C   0  0  0  0  0  0  0  0  0  0  0  0
    6.1050    3.0160  -23.8320 C   0  0  0  0  0  0  0  0  0  0  0  0
   -4.4680    3.8420  -25.7650 C   0  0  0  0  0  0  0  0  0  0  0  0
    2.3320    3.6360  -23.8900 C   0  0  0  0  0  0  0  0  0  0  0  0
    1.5310    4.7710  -23.6400 C   0  0  0  0  0  0  0  0  0  0  0  0
    3.3500    5.9590  -23.0000 C   0  0  0  0  0  0  0  0  0  0  0  0
    3.7340    3.8120  -23.5780 C   0  0  0  0  0  0  0  0  0  0  0  0
    1.7670    2.5040  -24.5080 C   0  0  0  0  0  0  0  0  0  0  0  0
   -0.3450    3.3620  -24.4420 C   0  0  0  0  0  0  0  0  0  0  0  0
    0.2030    4.5950  -23.8900 C   0  0  0  0  0  0  0  0  0  0  0  0
   -1.7960    3.3810  -24.8030 C   0  0  0  0  0  0  0  0  0  0  0  0
    4.2900    1.3170  -23.1820 C   0  0  0  0  0  0  0  0  0  0  0  0
    5.2120    0.9900  -22.0180 C   0  0  2  0  0  0  0  0  0  0  0  0
    6.8370    2.4760  -22.6080 C   0  0  2  0  0  0  0  0  0  0  0  0
    5.2080    2.0380  -20.8920 C   0  0  0  0  0  0  0  0  0  0  0  0
   -2.1120    3.4890  -26.2380 C   0  0  0  0  0  0  0  0  0  0  0  0
   -1.4020    2.8930  -21.8350 C   0  0  0  0  0  0  0  0  0  0  0  0
   -0.3800    2.5460  -21.3100 C   0  0  0  0  0  0  0  0  0  0  0  0
   -0.6200    5.6690  -23.5920 F   0  0  0  0  0  0  0  0  0  0  0  0
   -3.5880    3.2860  -20.3300 F   0  0  0  0  0  0  0  0  0  0  0  0
    2.0290    5.9410  -23.1540 N   0  0  0  0  0  0  0  0  0  0  0  0
    4.2280    4.9710  -23.1770 N   0  0  0  0  0  0  0  0  0  0  0  0
    0.4600    2.4270  -24.8160 N   0  0  0  0  0  0  0  0  0  0  0  0
    4.6330    2.7400  -23.7080 N   0  0  0  0  0  0  0  0  0  0  0  0
    6.6210    1.0100  -22.4950 N   0  0  0  0  0  0  0  0  0  0  0  0
   -3.6270    3.6440  -28.0080 O   0  0  0  0  0  0  0  0  0  0  0  0
    3.9230    7.4650  -21.0860 N   0  0  0  0  0  0  0  0  0  0  0  0
    6.2630    9.3210  -22.1820 N   0  0  0  0  0  0  0  0  0  0  0  0
    3.9330    7.3050  -22.5840 C   0  0  0  0  0  0  0  0  0  0  0  0
    4.4960    8.7600  -20.5720 C   0  0  0  0  0  0  0  0  0  0  0  0
    8.5740    9.1180  -21.5650 C   0  0  0  0  0  0  0  0  0  0  0  0
    5.9630    8.9010  -20.9380 C   0  0  0  0  0  0  0  0  0  0  0  0
    6.9050    8.5790  -19.9900 C   0  0  0  0  0  0  0  0  0  0  0  0
    8.2310    8.6900  -20.3090 C   0  0  0  0  0  0  0  0  0  0  0  0
    7.5770    9.4190  -22.4610 C   0  0  0  0  0  0  0  0  0  0  0  0
   10.0240    9.2640  -21.9780 C   0  0  0  0  0  0  0  0  0  0  0  0
  1  2  2  0
  1  3  1  0
  2  6  1  0
  3  5  2  0
  3 27  1  0
  4  5  1  0
  4  6  2  0
  4 18  1  0
  5 24  1  0
  6 10  1  0
  7 10  2  0
  7 23  1  0
  7 33  1  0
 21  8  1  1
  8 22  1  0
  9 21  1  0
  9 31  1  0
 11 12  1  0
 11 14  1  0
 11 15  2  0
 12 17  2  0
 12 28  1  0
 13 28  2  0
 13 29  1  0
 13 36  1  0
 14 29  2  0
 14 31  1  0
 15 30  1  0
 16 17  1  0
 16 18  1  0
 16 30  2  0
 17 26  1  0
 18 23  2  0
 20 19  1  6
 19 31  1  0
 20 22  1  0
 20 32  1  0
 21 32  1  0
 24 25  3  0
 34 36  1  0
 34 37  1  0
 35 39  2  0
 35 42  1  0
 37 39  1  0
 38 41  1  0
 38 42  2  0
 38 43  1  0
 39 40  1  0
 40 41  2  0
M  END
>  <s_m_entry_id>  (108) 
522

>  <s_m_entry_name>  (108) 
000000364.1

>  <s_m_Source_Path>  (108) 
/Users/zaksoul/Documents/3r_UNI/2nd_SEMESTER/BSC/FRAG_RECON/RESULTS/2

>  <s_m_Source_File>  (108) 
000000364.mol2

>  <i_m_Source_File_Index>  (108) 
1

$$$$
No_0_382,No_0_383,No_0_384
     RDKit          3D

 43 49  0  0  1  0  0  0  0  0999 V2000
   -5.1810    3.6090  -21.8530 C   0  0  0  0  0  0  0  0  0  0  0  0
   -5.4520    3.8050  -23.1860 C   0  0  0  0  0  0  0  0  0  0  0  0
   -3.9420    3.3510  -21.5190 C   0  0  0  0  0  0  0  0  0  0  0  0
   -3.0590    3.4860  -23.6870 C   0  0  0  0  0  0  0  0  0  0  0  0
   -2.8930    3.2340  -22.2690 C   0  0  0  0  0  0  0  0  0  0  0  0
   -4.4090    3.7540  -24.2010 C   0  0  0  0  0  0  0  0  0  0  0  0
   -3.6630    3.7850  -26.4030 C   0  0  0  0  0  0  0  0  0  0  0  0
    6.0870    3.0010  -21.1820 C   0  0  0  0  0  0  0  0  0  0  0  0
    5.9380    3.1560  -23.7310 C   0  0  0  0  0  0  0  0  0  0  0  0
   -4.6650    3.8890  -25.5350 C   0  0  0  0  0  0  0  0  0  0  0  0
    2.1540    3.7130  -23.7290 C   0  0  0  0  0  0  0  0  0  0  0  0
    1.3370    4.8230  -23.4210 C   0  0  0  0  0  0  0  0  0  0  0  0
    3.1410    6.0110  -22.7430 C   0  0  0  0  0  0  0  0  0  0  0  0
    3.5570    3.8990  -23.4210 C   0  0  0  0  0  0  0  0  0  0  0  0
    1.6030    2.6010  -24.3930 C   0  0  0  0  0  0  0  0  0  0  0  0
   -0.5220    3.4190  -24.2700 C   0  0  0  0  0  0  0  0  0  0  0  0
    0.0100    4.6350  -23.6670 C   0  0  0  0  0  0  0  0  0  0  0  0
   -1.9770    3.4300  -24.6180 C   0  0  0  0  0  0  0  0  0  0  0  0
    4.1570    1.3990  -23.1440 C   0  0  0  0  0  0  0  0  0  0  0  0
    5.0950    1.0350  -22.0030 C   0  0  2  0  0  0  0  0  0  0  0  0
    6.6890    2.5740  -22.5390 C   0  0  2  0  0  0  0  0  0  0  0  0
    5.0840    2.0310  -20.8310 C   0  0  0  0  0  0  0  0  0  0  0  0
   -2.3080    3.5970  -26.0440 C   0  0  0  0  0  0  0  0  0  0  0  0
   -1.5470    2.8150  -21.6780 C   0  0  0  0  0  0  0  0  0  0  0  0
   -0.5150    2.4620  -21.1780 C   0  0  0  0  0  0  0  0  0  0  0  0
   -0.8280    5.6800  -23.3140 F   0  0  0  0  0  0  0  0  0  0  0  0
   -3.7260    3.1020  -20.1390 F   0  0  0  0  0  0  0  0  0  0  0  0
    1.8200    5.9780  -22.8860 N   0  0  0  0  0  0  0  0  0  0  0  0
    4.0350    5.0470  -22.9720 N   0  0  0  0  0  0  0  0  0  0  0  0
    0.2950    2.5160  -24.6930 N   0  0  0  0  0  0  0  0  0  0  0  0
    4.4710    2.8500  -23.6070 N   0  0  0  0  0  0  0  0  0  0  0  0
    6.5000    1.1010  -22.4910 N   0  0  0  0  0  0  0  0  0  0  0  0
   -3.8410    3.8060  -27.7920 O   0  0  0  0  0  0  0  0  0  0  0  0
    4.0440    7.2970  -20.8040 N   0  0  0  0  0  0  0  0  0  0  0  0
    7.1160    8.1470  -20.1620 N   0  0  0  0  0  0  0  0  0  0  0  0
    4.5970    8.5790  -20.2360 C   0  0  0  0  0  0  0  0  0  0  0  0
    6.0370    8.8280  -20.6570 C   0  0  0  0  0  0  0  0  0  0  0  0
    3.7060    7.3460  -22.2710 C   0  0  0  0  0  0  0  0  0  0  0  0
    8.1970    8.6910  -20.7970 C   0  0  0  0  0  0  0  0  0  0  0  0
    6.4170    9.7400  -21.5540 C   0  0  0  0  0  0  0  0  0  0  0  0
    7.8260    9.6510  -21.6450 C   0  0  0  0  0  0  0  0  0  0  0  0
    7.1230    7.0330  -19.2020 C   0  0  0  0  0  0  0  0  0  0  0  0
    9.6250    8.2440  -20.5490 C   0  0  0  0  0  0  0  0  0  0  0  0
  1  2  2  0
  1  3  1  0
  2  6  1  0
  3  5  2  0
  3 27  1  0
  4  5  1  0
  4  6  2  0
  4 18  1  0
  5 24  1  0
  6 10  1  0
  7 10  2  0
  7 23  1  0
  7 33  1  0
 21  8  1  1
  8 22  1  0
  9 21  1  0
  9 31  1  0
 11 12  1  0
 11 14  1  0
 11 15  2  0
 12 17  2  0
 12 28  1  0
 13 28  2  0
 13 29  1  0
 13 38  1  0
 14 29  2  0
 14 31  1  0
 15 30  1  0
 16 17  1  0
 16 18  1  0
 16 30  2  0
 17 26  1  0
 18 23  2  0
 20 19  1  6
 19 31  1  0
 20 22  1  0
 20 32  1  0
 21 32  1  0
 24 25  3  0
 34 36  1  0
 34 38  1  0
 35 37  1  0
 35 39  1  0
 35 42  1  0
 36 37  1  0
 37 40  2  0
 39 41  2  0
 39 43  1  0
 40 41  1  0
M  END
>  <s_m_entry_id>  (109) 
523

>  <s_m_entry_name>  (109) 
000000365.1

>  <s_m_Source_Path>  (109) 
/Users/zaksoul/Documents/3r_UNI/2nd_SEMESTER/BSC/FRAG_RECON/RESULTS/2

>  <s_m_Source_File>  (109) 
000000365.mol2

>  <i_m_Source_File_Index>  (109) 
1

$$$$
No_0_385,No_0_386,No_0_387
     RDKit          3D

 41 47  0  0  1  0  0  0  0  0999 V2000
   -5.1810    3.6090  -21.8530 C   0  0  0  0  0  0  0  0  0  0  0  0
   -5.4520    3.8050  -23.1860 C   0  0  0  0  0  0  0  0  0  0  0  0
   -3.9420    3.3510  -21.5190 C   0  0  0  0  0  0  0  0  0  0  0  0
   -3.0590    3.4860  -23.6870 C   0  0  0  0  0  0  0  0  0  0  0  0
   -2.8930    3.2340  -22.2690 C   0  0  0  0  0  0  0  0  0  0  0  0
   -4.4090    3.7540  -24.2010 C   0  0  0  0  0  0  0  0  0  0  0  0
   -3.6630    3.7850  -26.4030 C   0  0  0  0  0  0  0  0  0  0  0  0
    6.0870    3.0010  -21.1820 C   0  0  0  0  0  0  0  0  0  0  0  0
    5.9380    3.1560  -23.7310 C   0  0  0  0  0  0  0  0  0  0  0  0
   -4.6650    3.8890  -25.5350 C   0  0  0  0  0  0  0  0  0  0  0  0
    2.1540    3.7130  -23.7290 C   0  0  0  0  0  0  0  0  0  0  0  0
    1.3370    4.8230  -23.4210 C   0  0  0  0  0  0  0  0  0  0  0  0
    3.1410    6.0110  -22.7430 C   0  0  0  0  0  0  0  0  0  0  0  0
    3.5570    3.8990  -23.4210 C   0  0  0  0  0  0  0  0  0  0  0  0
    1.6030    2.6010  -24.3930 C   0  0  0  0  0  0  0  0  0  0  0  0
   -0.5220    3.4190  -24.2700 C   0  0  0  0  0  0  0  0  0  0  0  0
    0.0100    4.6350  -23.6670 C   0  0  0  0  0  0  0  0  0  0  0  0
   -1.9770    3.4300  -24.6180 C   0  0  0  0  0  0  0  0  0  0  0  0
    4.1570    1.3990  -23.1440 C   0  0  0  0  0  0  0  0  0  0  0  0
    5.0950    1.0350  -22.0030 C   0  0  2  0  0  0  0  0  0  0  0  0
    6.6890    2.5740  -22.5390 C   0  0  2  0  0  0  0  0  0  0  0  0
    5.0840    2.0310  -20.8310 C   0  0  0  0  0  0  0  0  0  0  0  0
   -2.3080    3.5970  -26.0440 C   0  0  0  0  0  0  0  0  0  0  0  0
   -1.5470    2.8150  -21.6780 C   0  0  0  0  0  0  0  0  0  0  0  0
   -0.5150    2.4620  -21.1780 C   0  0  0  0  0  0  0  0  0  0  0  0
   -0.8280    5.6800  -23.3140 F   0  0  0  0  0  0  0  0  0  0  0  0
   -3.7260    3.1020  -20.1390 F   0  0  0  0  0  0  0  0  0  0  0  0
    1.8200    5.9780  -22.8860 N   0  0  0  0  0  0  0  0  0  0  0  0
    4.0350    5.0470  -22.9720 N   0  0  0  0  0  0  0  0  0  0  0  0
    0.2950    2.5160  -24.6930 N   0  0  0  0  0  0  0  0  0  0  0  0
    4.4710    2.8500  -23.6070 N   0  0  0  0  0  0  0  0  0  0  0  0
    6.5000    1.1010  -22.4910 N   0  0  0  0  0  0  0  0  0  0  0  0
   -3.8410    3.8060  -27.7920 O   0  0  0  0  0  0  0  0  0  0  0  0
    3.4070    7.6450  -20.8220 N   0  0  0  0  0  0  0  0  0  0  0  0
    4.5730   10.6420  -20.4930 N   0  0  0  0  0  0  0  0  0  0  0  0
    3.7060    7.3460  -22.2710 C   0  0  0  0  0  0  0  0  0  0  0  0
    5.1660    9.4190  -20.6030 C   0  0  0  0  0  0  0  0  0  0  0  0
    4.5750    8.1520  -20.0140 C   0  0  0  0  0  0  0  0  0  0  0  0
    6.4550   10.8550  -21.6690 C   0  0  0  0  0  0  0  0  0  0  0  0
    6.3020    9.4970  -21.2980 C   0  0  0  0  0  0  0  0  0  0  0  0
    5.3970   11.4930  -21.1670 C   0  0  0  0  0  0  0  0  0  0  0  0
  1  2  2  0
  1  3  1  0
  2  6  1  0
  3  5  2  0
  3 27  1  0
  4  5  1  0
  4  6  2  0
  4 18  1  0
  5 24  1  0
  6 10  1  0
  7 10  2  0
  7 23  1  0
  7 33  1  0
 21  8  1  1
  8 22  1  0
  9 21  1  0
  9 31  1  0
 11 12  1  0
 11 14  1  0
 11 15  2  0
 12 17  2  0
 12 28  1  0
 13 28  2  0
 13 29  1  0
 13 36  1  0
 14 29  2  0
 14 31  1  0
 15 30  1  0
 16 17  1  0
 16 18  1  0
 16 30  2  0
 17 26  1  0
 18 23  2  0
 20 19  1  6
 19 31  1  0
 20 22  1  0
 20 32  1  0
 21 32  1  0
 24 25  3  0
 34 36  1  0
 34 38  1  0
 35 37  1  0
 35 41  1  0
 37 38  1  0
 37 40  2  0
 39 40  1  0
 39 41  2  0
M  END
>  <s_m_entry_id>  (110) 
526

>  <s_m_entry_name>  (110) 
000000368.1

>  <s_m_Source_Path>  (110) 
/Users/zaksoul/Documents/3r_UNI/2nd_SEMESTER/BSC/FRAG_RECON/RESULTS/2

>  <s_m_Source_File>  (110) 
000000368.mol2

>  <i_m_Source_File_Index>  (110) 
1

$$$$
No_0_388
     RDKit          3D

 44 50  0  0  1  0  0  0  0  0999 V2000
   -5.1380    3.9330  -22.1290 C   0  0  0  0  0  0  0  0  0  0  0  0
   -5.3980    4.0810  -23.4700 C   0  0  0  0  0  0  0  0  0  0  0  0
   -3.9070    3.6630  -21.7770 C   0  0  0  0  0  0  0  0  0  0  0  0
   -3.0100    3.6920  -23.9440 C   0  0  0  0  0  0  0  0  0  0  0  0
   -2.8570    3.4940  -22.5150 C   0  0  0  0  0  0  0  0  0  0  0  0
   -4.3500    3.9680  -24.4760 C   0  0  0  0  0  0  0  0  0  0  0  0
   -3.5920    3.8950  -26.6720 C   0  0  0  0  0  0  0  0  0  0  0  0
    6.1100    3.1140  -21.3640 C   0  0  0  0  0  0  0  0  0  0  0  0
    5.9780    3.1710  -23.9180 C   0  0  0  0  0  0  0  0  0  0  0  0
   -4.5970    4.0550  -25.8160 C   0  0  0  0  0  0  0  0  0  0  0  0
    2.2070    3.8070  -23.9620 C   0  0  0  0  0  0  0  0  0  0  0  0
    1.4130    4.9450  -23.7030 C   0  0  0  0  0  0  0  0  0  0  0  0
    3.2380    6.1210  -23.0620 C   0  0  0  0  0  0  0  0  0  0  0  0
    3.6120    3.9760  -23.6530 C   0  0  0  0  0  0  0  0  0  0  0  0
    1.6350    2.6810  -24.5850 C   0  0  0  0  0  0  0  0  0  0  0  0
   -0.4720    3.5480  -24.5070 C   0  0  0  0  0  0  0  0  0  0  0  0
    0.0830    4.7760  -23.9500 C   0  0  0  0  0  0  0  0  0  0  0  0
   -1.9240    3.5770  -24.8640 C   0  0  0  0  0  0  0  0  0  0  0  0
    4.1570    1.4760  -23.2720 C   0  0  0  0  0  0  0  0  0  0  0  0
    5.0810    1.1380  -22.1120 C   0  0  2  0  0  0  0  0  0  0  0  0
    6.7110    2.6210  -22.6990 C   0  0  2  0  0  0  0  0  0  0  0  0
    5.0850    2.1800  -20.9810 C   0  0  0  0  0  0  0  0  0  0  0  0
   -2.2440    3.6940  -26.2980 C   0  0  0  0  0  0  0  0  0  0  0  0
   -1.5240    3.0700  -21.9000 C   0  0  0  0  0  0  0  0  0  0  0  0
   -0.5020    2.7150  -21.3800 C   0  0  0  0  0  0  0  0  0  0  0  0
   -0.7340    5.8520  -23.6440 F   0  0  0  0  0  0  0  0  0  0  0  0
   -3.7040    3.4640  -20.3860 F   0  0  0  0  0  0  0  0  0  0  0  0
    1.9170    6.1100  -23.2110 N   0  0  0  0  0  0  0  0  0  0  0  0
    4.1120    5.1300  -23.2460 N   0  0  0  0  0  0  0  0  0  0  0  0
    0.3280    2.6120  -24.8890 N   0  0  0  0  0  0  0  0  0  0  0  0
    4.5050    2.9010  -23.7910 N   0  0  0  0  0  0  0  0  0  0  0  0
    6.4890    1.1550  -22.5940 N   0  0  0  0  0  0  0  0  0  0  0  0
   -3.7630    3.8650  -28.0620 O   0  0  0  0  0  0  0  0  0  0  0  0
    4.1600    7.4700  -21.1700 N   0  0  0  0  0  0  0  0  0  0  0  0
    7.9850   10.1760  -21.7710 N   0  0  0  0  0  0  0  0  0  0  0  0
    4.6080    8.7960  -20.6030 C   0  0  0  0  0  0  0  0  0  0  0  0
    6.1030    9.0630  -20.7600 C   0  0  0  0  0  0  0  0  0  0  0  0
    3.8290    7.4620  -22.6400 C   0  0  0  0  0  0  0  0  0  0  0  0
    8.2940    8.5990  -19.9900 C   0  0  0  0  0  0  0  0  0  0  0  0
    5.7730   10.7260  -22.6160 C   0  0  0  0  0  0  0  0  0  0  0  0
    6.6600    9.9430  -21.6680 C   0  0  0  0  0  0  0  0  0  0  0  0
    6.9450    8.3840  -19.9150 C   0  0  0  0  0  0  0  0  0  0  0  0
   10.2640    9.7160  -20.9590 C   0  0  0  0  0  0  0  0  0  0  0  0
    8.7680    9.4920  -20.9160 C   0  0  0  0  0  0  0  0  0  0  0  0
  1  2  2  0
  1  3  1  0
  2  6  1  0
  3  5  2  0
  3 27  1  0
  4  5  1  0
  4  6  2  0
  4 18  1  0
  5 24  1  0
  6 10  1  0
  7 10  2  0
  7 23  1  0
  7 33  1  0
 21  8  1  1
  8 22  1  0
  9 21  1  0
  9 31  1  0
 11 12  1  0
 11 14  1  0
 11 15  2  0
 12 17  2  0
 12 28  1  0
 13 28  2  0
 13 29  1  0
 13 38  1  0
 14 29  2  0
 14 31  1  0
 15 30  1  0
 16 17  1  0
 16 18  1  0
 16 30  2  0
 17 26  1  0
 18 23  2  0
 20 19  1  6
 19 31  1  0
 20 22  1  0
 20 32  1  0
 21 32  1  0
 24 25  3  0
 34 36  1  0
 34 38  1  0
 35 41  2  0
 35 44  1  0
 36 37  1  0
 37 41  1  0
 37 42  2  0
 39 42  1  0
 39 44  2  0
 40 41  1  0
 43 44  1  0
M  END
>  <s_m_entry_id>  (111) 
529

>  <s_m_entry_name>  (111) 
000000371.1

>  <s_m_Source_Path>  (111) 
/Users/zaksoul/Documents/3r_UNI/2nd_SEMESTER/BSC/FRAG_RECON/RESULTS/2

>  <s_m_Source_File>  (111) 
000000371.mol2

>  <i_m_Source_File_Index>  (111) 
1

$$$$
No_0_389
     RDKit          3D

 45 52  0  0  1  0  0  0  0  0999 V2000
   -5.1490    3.4480  -22.1270 C   0  0  0  0  0  0  0  0  0  0  0  0
   -5.4050    3.6040  -23.4690 C   0  0  0  0  0  0  0  0  0  0  0  0
   -3.9170    3.1840  -21.7720 C   0  0  0  0  0  0  0  0  0  0  0  0
   -3.0120    3.2360  -23.9350 C   0  0  0  0  0  0  0  0  0  0  0  0
   -2.8630    3.0290  -22.5080 C   0  0  0  0  0  0  0  0  0  0  0  0
   -4.3520    3.5060  -24.4710 C   0  0  0  0  0  0  0  0  0  0  0  0
   -3.5850    3.4560  -26.6650 C   0  0  0  0  0  0  0  0  0  0  0  0
    6.1020    2.7090  -21.3250 C   0  0  0  0  0  0  0  0  0  0  0  0
    5.9800    2.7830  -23.8780 C   0  0  0  0  0  0  0  0  0  0  0  0
   -4.5940    3.6010  -25.8110 C   0  0  0  0  0  0  0  0  0  0  0  0
    2.2040    3.3920  -23.9320 C   0  0  0  0  0  0  0  0  0  0  0  0
    1.4000    4.5210  -23.6680 C   0  0  0  0  0  0  0  0  0  0  0  0
    3.2140    5.7060  -23.0110 C   0  0  0  0  0  0  0  0  0  0  0  0
    3.6060    3.5680  -23.6160 C   0  0  0  0  0  0  0  0  0  0  0  0
    1.6430    2.2660  -24.5660 C   0  0  0  0  0  0  0  0  0  0  0  0
   -0.4710    3.1160  -24.4900 C   0  0  0  0  0  0  0  0  0  0  0  0
    0.0730    4.3440  -23.9210 C   0  0  0  0  0  0  0  0  0  0  0  0
   -1.9220    3.1360  -24.8530 C   0  0  0  0  0  0  0  0  0  0  0  0
    4.1690    1.0700  -23.2530 C   0  0  0  0  0  0  0  0  0  0  0  0
    5.0910    0.7310  -22.0910 C   0  0  2  0  0  0  0  0  0  0  0  0
    6.7110    2.2300  -22.6600 C   0  0  2  0  0  0  0  0  0  0  0  0
    5.0830    1.7640  -20.9520 C   0  0  0  0  0  0  0  0  0  0  0  0
   -2.2370    3.2620  -26.2860 C   0  0  0  0  0  0  0  0  0  0  0  0
   -1.5290    2.6100  -21.8900 C   0  0  0  0  0  0  0  0  0  0  0  0
   -0.5070    2.2600  -21.3690 C   0  0  0  0  0  0  0  0  0  0  0  0
   -0.7540    5.4110  -23.6110 F   0  0  0  0  0  0  0  0  0  0  0  0
   -3.7180    2.9760  -20.3830 F   0  0  0  0  0  0  0  0  0  0  0  0
    1.8930    5.6860  -23.1660 N   0  0  0  0  0  0  0  0  0  0  0  0
    4.0960    4.7230  -23.2000 N   0  0  0  0  0  0  0  0  0  0  0  0
    0.3370    2.1890  -24.8760 N   0  0  0  0  0  0  0  0  0  0  0  0
    4.5080    2.5010  -23.7590 N   0  0  0  0  0  0  0  0  0  0  0  0
    6.5010    0.7620  -22.5670 N   0  0  0  0  0  0  0  0  0  0  0  0
   -3.7500    3.4350  -28.0550 O   0  0  0  0  0  0  0  0  0  0  0  0
    3.7730    7.1710  -21.0770 N   0  0  0  0  0  0  0  0  0  0  0  0
    6.4470    9.5740  -21.2870 N   0  0  0  0  0  0  0  0  0  0  0  0
    8.1650   10.7540  -22.0450 N   0  0  0  0  0  0  0  0  0  0  0  0
    5.8050    8.6030  -20.5360 C   0  0  0  0  0  0  0  0  0  0  0  0
    4.2860    8.4740  -20.5210 C   0  0  0  0  0  0  0  0  0  0  0  0
    3.7930    7.0480  -22.5760 C   0  0  0  0  0  0  0  0  0  0  0  0
    7.8010    9.7370  -21.2570 C   0  0  0  0  0  0  0  0  0  0  0  0
    6.5580    7.7860  -19.7840 C   0  0  0  0  0  0  0  0  0  0  0  0
    6.0090   10.5360  -22.1460 C   0  0  0  0  0  0  0  0  0  0  0  0
    7.9790    7.9230  -19.7540 C   0  0  0  0  0  0  0  0  0  0  0  0
    8.6040    8.8790  -20.4670 C   0  0  0  0  0  0  0  0  0  0  0  0
    7.0320   11.2590  -22.6100 C   0  0  0  0  0  0  0  0  0  0  0  0
  1  2  2  0
  1  3  1  0
  2  6  1  0
  3  5  2  0
  3 27  1  0
  4  5  1  0
  4  6  2  0
  4 18  1  0
  5 24  1  0
  6 10  1  0
  7 10  2  0
  7 23  1  0
  7 33  1  0
 21  8  1  1
  8 22  1  0
  9 21  1  0
  9 31  1  0
 11 12  1  0
 11 14  1  0
 11 15  2  0
 12 17  2  0
 12 28  1  0
 13 28  2  0
 13 29  1  0
 13 39  1  0
 14 29  2  0
 14 31  1  0
 15 30  1  0
 16 17  1  0
 16 18  1  0
 16 30  2  0
 17 26  1  0
 18 23  2  0
 20 19  1  6
 19 31  1  0
 20 22  1  0
 20 32  1  0
 21 32  1  0
 24 25  3  0
 34 38  1  0
 34 39  1  0
 35 37  1  0
 35 40  1  0
 35 42  1  0
 36 40  2  0
 36 45  1  0
 37 38  1  0
 37 41  2  0
 40 44  1  0
 41 43  1  0
 42 45  2  0
 43 44  2  0
M  END
>  <s_m_entry_id>  (112) 
530

>  <s_m_entry_name>  (112) 
000000372.1

>  <s_m_Source_Path>  (112) 
/Users/zaksoul/Documents/3r_UNI/2nd_SEMESTER/BSC/FRAG_RECON/RESULTS/2

>  <s_m_Source_File>  (112) 
000000372.mol2

>  <i_m_Source_File_Index>  (112) 
1

$$$$
No_0_390,No_0_391
     RDKit          3D

 44 50  0  0  1  0  0  0  0  0999 V2000
   -5.2560    3.5470  -21.8870 C   0  0  0  0  0  0  0  0  0  0  0  0
   -5.5390    3.7100  -23.2220 C   0  0  0  0  0  0  0  0  0  0  0  0
   -4.0080    3.3320  -21.5540 C   0  0  0  0  0  0  0  0  0  0  0  0
   -3.1400    3.4510  -23.7290 C   0  0  0  0  0  0  0  0  0  0  0  0
   -2.9600    3.2310  -22.3070 C   0  0  0  0  0  0  0  0  0  0  0  0
   -4.4990    3.6700  -24.2410 C   0  0  0  0  0  0  0  0  0  0  0  0
   -3.7650    3.6810  -26.4470 C   0  0  0  0  0  0  0  0  0  0  0  0
    6.0280    3.2800  -21.2630 C   0  0  0  0  0  0  0  0  0  0  0  0
    5.8620    3.3830  -23.8130 C   0  0  0  0  0  0  0  0  0  0  0  0
   -4.7660    3.7720  -25.5760 C   0  0  0  0  0  0  0  0  0  0  0  0
    2.0640    3.8300  -23.8020 C   0  0  0  0  0  0  0  0  0  0  0  0
    1.2170    4.9200  -23.5110 C   0  0  0  0  0  0  0  0  0  0  0  0
    2.9890    6.1730  -22.8650 C   0  0  0  0  0  0  0  0  0  0  0  0
    3.4620    4.0620  -23.5050 C   0  0  0  0  0  0  0  0  0  0  0  0
    1.5420    2.6890  -24.4430 C   0  0  0  0  0  0  0  0  0  0  0  0
   -0.6050    3.4470  -24.3240 C   0  0  0  0  0  0  0  0  0  0  0  0
   -0.1060    4.6890  -23.7470 C   0  0  0  0  0  0  0  0  0  0  0  0
   -2.0610    3.4100  -24.6640 C   0  0  0  0  0  0  0  0  0  0  0  0
    4.1370    1.5850  -23.1840 C   0  0  0  0  0  0  0  0  0  0  0  0
    5.0900    1.2710  -22.0420 C   0  0  2  0  0  0  0  0  0  0  0  0
    6.6360    2.8460  -22.6140 C   0  0  2  0  0  0  0  0  0  0  0  0
    5.0560    2.2880  -20.8880 C   0  0  0  0  0  0  0  0  0  0  0  0
   -2.4030    3.5400  -26.0910 C   0  0  0  0  0  0  0  0  0  0  0  0
   -1.6000    2.8620  -21.7160 C   0  0  0  0  0  0  0  0  0  0  0  0
   -0.5560    2.5490  -21.2150 C   0  0  0  0  0  0  0  0  0  0  0  0
   -0.9720    5.7160  -23.4090 F   0  0  0  0  0  0  0  0  0  0  0  0
   -3.7790    3.1150  -20.1710 F   0  0  0  0  0  0  0  0  0  0  0  0
    1.6680    6.0990  -23.0000 N   0  0  0  0  0  0  0  0  0  0  0  0
    3.9080    5.2310  -23.0800 N   0  0  0  0  0  0  0  0  0  0  0  0
    0.2360    2.5610  -24.7340 N   0  0  0  0  0  0  0  0  0  0  0  0
    4.4060    3.0360  -23.6760 N   0  0  0  0  0  0  0  0  0  0  0  0
    6.4900    1.3680  -22.5380 N   0  0  0  0  0  0  0  0  0  0  0  0
   -3.9500    3.6710  -27.8350 O   0  0  0  0  0  0  0  0  0  0  0  0
    3.8590    7.5100  -20.9540 N   0  0  0  0  0  0  0  0  0  0  0  0
    7.7960   10.9390  -23.4980 N   0  0  0  0  0  0  0  0  0  0  0  0
    4.4960    8.7580  -20.3950 C   0  0  0  0  0  0  0  0  0  0  0  0
    5.8780    9.0400  -20.9840 C   0  0  0  0  0  0  0  0  0  0  0  0
    3.5160    7.5330  -22.4210 C   0  0  0  0  0  0  0  0  0  0  0  0
    6.1460    9.8920  -22.0420 C   0  0  0  0  0  0  0  0  0  0  0  0
    7.4660   10.0670  -22.4550 C   0  0  0  0  0  0  0  0  0  0  0  0
    6.9090    8.3610  -20.3690 C   0  0  0  0  0  0  0  0  0  0  0  0
    8.2090    8.5230  -20.7860 C   0  0  0  0  0  0  0  0  0  0  0  0
    8.4840    9.3760  -21.8220 C   0  0  0  0  0  0  0  0  0  0  0  0
    5.0470   10.6510  -22.7800 C   0  0  0  0  0  0  0  0  0  0  0  0
  1  2  2  0
  1  3  1  0
  2  6  1  0
  3  5  2  0
  3 27  1  0
  4  5  1  0
  4  6  2  0
  4 18  1  0
  5 24  1  0
  6 10  1  0
  7 10  2  0
  7 23  1  0
  7 33  1  0
 21  8  1  1
  8 22  1  0
  9 21  1  0
  9 31  1  0
 11 12  1  0
 11 14  1  0
 11 15  2  0
 12 17  2  0
 12 28  1  0
 13 28  2  0
 13 29  1  0
 13 38  1  0
 14 29  2  0
 14 31  1  0
 15 30  1  0
 16 17  1  0
 16 18  1  0
 16 30  2  0
 17 26  1  0
 18 23  2  0
 20 19  1  6
 19 31  1  0
 20 22  1  0
 20 32  1  0
 21 32  1  0
 24 25  3  0
 34 36  1  0
 34 38  1  0
 35 40  1  0
 36 37  1  0
 37 39  2  0
 37 41  1  0
 39 40  1  0
 39 44  1  0
 40 43  2  0
 41 42  2  0
 42 43  1  0
M  CHG  1  34   1
M  END
>  <s_m_entry_id>  (113) 
531

>  <s_m_entry_name>  (113) 
000000373.1

>  <s_m_Source_Path>  (113) 
/Users/zaksoul/Documents/3r_UNI/2nd_SEMESTER/BSC/FRAG_RECON/RESULTS/2

>  <s_m_Source_File>  (113) 
000000373.mol2

>  <i_m_Source_File_Index>  (113) 
1

$$$$
No_0_392,No_0_393
     RDKit          3D

 43 49  0  0  1  0  0  0  0  0999 V2000
   -5.3090    3.4180  -22.1480 C   0  0  0  0  0  0  0  0  0  0  0  0
   -5.5750    3.5670  -23.4880 C   0  0  0  0  0  0  0  0  0  0  0  0
   -4.0710    3.1730  -21.8000 C   0  0  0  0  0  0  0  0  0  0  0  0
   -3.1810    3.2320  -23.9690 C   0  0  0  0  0  0  0  0  0  0  0  0
   -3.0200    3.0300  -22.5420 C   0  0  0  0  0  0  0  0  0  0  0  0
   -4.5280    3.4820  -24.4970 C   0  0  0  0  0  0  0  0  0  0  0  0
   -3.7740    3.4360  -26.6950 C   0  0  0  0  0  0  0  0  0  0  0  0
    5.9570    2.8400  -21.4160 C   0  0  0  0  0  0  0  0  0  0  0  0
    5.8170    2.9060  -23.9680 C   0  0  0  0  0  0  0  0  0  0  0  0
   -4.7800    3.5700  -25.8360 C   0  0  0  0  0  0  0  0  0  0  0  0
    2.0330    3.4610  -24.0000 C   0  0  0  0  0  0  0  0  0  0  0  0
    1.2150    4.5800  -23.7340 C   0  0  0  0  0  0  0  0  0  0  0  0
    3.0160    5.7910  -23.0910 C   0  0  0  0  0  0  0  0  0  0  0  0
    3.4340    3.6580  -23.6930 C   0  0  0  0  0  0  0  0  0  0  0  0
    1.4840    2.3260  -24.6270 C   0  0  0  0  0  0  0  0  0  0  0  0
   -0.6410    3.1460  -24.5400 C   0  0  0  0  0  0  0  0  0  0  0  0
   -0.1120    4.3830  -23.9780 C   0  0  0  0  0  0  0  0  0  0  0  0
   -2.0950    3.1450  -24.8930 C   0  0  0  0  0  0  0  0  0  0  0  0
    4.0350    1.1690  -23.3270 C   0  0  0  0  0  0  0  0  0  0  0  0
    4.9680    0.8460  -22.1710 C   0  0  2  0  0  0  0  0  0  0  0  0
    6.5640    2.3660  -22.7540 C   0  0  2  0  0  0  0  0  0  0  0  0
    4.9530    1.8820  -21.0340 C   0  0  0  0  0  0  0  0  0  0  0  0
   -2.4210    3.2620  -26.3250 C   0  0  0  0  0  0  0  0  0  0  0  0
   -1.6760    2.6320  -21.9320 C   0  0  0  0  0  0  0  0  0  0  0  0
   -0.6460    2.2980  -21.4170 C   0  0  0  0  0  0  0  0  0  0  0  0
   -0.9510    5.4400  -23.6640 F   0  0  0  0  0  0  0  0  0  0  0  0
   -3.8600    2.9720  -20.4120 F   0  0  0  0  0  0  0  0  0  0  0  0
    1.6940    5.7530  -23.2370 N   0  0  0  0  0  0  0  0  0  0  0  0
    3.9100    4.8210  -23.2830 N   0  0  0  0  0  0  0  0  0  0  0  0
    0.1770    2.2300  -24.9290 N   0  0  0  0  0  0  0  0  0  0  0  0
    4.3500    2.6030  -23.8400 N   0  0  0  0  0  0  0  0  0  0  0  0
    6.3750    0.8950  -22.6560 N   0  0  0  0  0  0  0  0  0  0  0  0
   -3.9480    3.4090  -28.0850 O   0  0  0  0  0  0  0  0  0  0  0  0
    8.4530    8.3710  -19.7200 O   0  0  0  0  0  0  0  0  0  0  0  0
    3.2650    7.4740  -21.2270 N   0  0  0  0  0  0  0  0  0  0  0  0
    5.1510    9.1490  -21.0240 C   0  0  0  0  0  0  0  0  0  0  0  0
    3.5780    7.1430  -22.6640 C   0  0  0  0  0  0  0  0  0  0  0  0
    3.6810    8.8490  -20.7630 C   0  0  0  0  0  0  0  0  0  0  0  0
    7.4710    8.8960  -20.5030 C   0  0  0  0  0  0  0  0  0  0  0  0
    6.8120   10.2110  -22.3780 C   0  0  0  0  0  0  0  0  0  0  0  0
    6.1450    8.6320  -20.2220 C   0  0  0  0  0  0  0  0  0  0  0  0
    5.4920    9.9440  -22.0970 C   0  0  0  0  0  0  0  0  0  0  0  0
    7.8030    9.6860  -21.5850 C   0  0  0  0  0  0  0  0  0  0  0  0
  1  2  2  0
  1  3  1  0
  2  6  1  0
  3  5  2  0
  3 27  1  0
  4  5  1  0
  4  6  2  0
  4 18  1  0
  5 24  1  0
  6 10  1  0
  7 10  2  0
  7 23  1  0
  7 33  1  0
 21  8  1  1
  8 22  1  0
  9 21  1  0
  9 31  1  0
 11 12  1  0
 11 14  1  0
 11 15  2  0
 12 17  2  0
 12 28  1  0
 13 28  2  0
 13 29  1  0
 13 37  1  0
 14 29  2  0
 14 31  1  0
 15 30  1  0
 16 17  1  0
 16 18  1  0
 16 30  2  0
 17 26  1  0
 18 23  2  0
 20 19  1  6
 19 31  1  0
 20 22  1  0
 20 32  1  0
 21 32  1  0
 24 25  3  0
 34 39  1  0
 35 37  1  0
 35 38  1  0
 36 38  1  0
 36 41  1  0
 36 42  2  0
 39 41  2  0
 39 43  1  0
 40 42  1  0
 40 43  2  0
M  CHG  1  35   1
M  END
>  <s_m_entry_id>  (114) 
533

>  <s_m_entry_name>  (114) 
000000375.1

>  <s_m_Source_Path>  (114) 
/Users/zaksoul/Documents/3r_UNI/2nd_SEMESTER/BSC/FRAG_RECON/RESULTS/2

>  <s_m_Source_File>  (114) 
000000375.mol2

>  <i_m_Source_File_Index>  (114) 
1

$$$$
No_0_398,No_0_399
     RDKit          3D

 43 49  0  0  1  0  0  0  0  0999 V2000
   -5.1810    3.6090  -21.8530 C   0  0  0  0  0  0  0  0  0  0  0  0
   -5.4520    3.8050  -23.1860 C   0  0  0  0  0  0  0  0  0  0  0  0
   -3.9420    3.3510  -21.5190 C   0  0  0  0  0  0  0  0  0  0  0  0
   -3.0590    3.4860  -23.6870 C   0  0  0  0  0  0  0  0  0  0  0  0
   -2.8930    3.2340  -22.2690 C   0  0  0  0  0  0  0  0  0  0  0  0
   -4.4090    3.7540  -24.2010 C   0  0  0  0  0  0  0  0  0  0  0  0
   -3.6630    3.7850  -26.4030 C   0  0  0  0  0  0  0  0  0  0  0  0
    6.0870    3.0010  -21.1820 C   0  0  0  0  0  0  0  0  0  0  0  0
    5.9380    3.1560  -23.7310 C   0  0  0  0  0  0  0  0  0  0  0  0
   -4.6650    3.8890  -25.5350 C   0  0  0  0  0  0  0  0  0  0  0  0
    2.1540    3.7130  -23.7290 C   0  0  0  0  0  0  0  0  0  0  0  0
    1.3370    4.8230  -23.4210 C   0  0  0  0  0  0  0  0  0  0  0  0
    3.1410    6.0110  -22.7430 C   0  0  0  0  0  0  0  0  0  0  0  0
    3.5570    3.8990  -23.4210 C   0  0  0  0  0  0  0  0  0  0  0  0
    1.6030    2.6010  -24.3930 C   0  0  0  0  0  0  0  0  0  0  0  0
   -0.5220    3.4190  -24.2700 C   0  0  0  0  0  0  0  0  0  0  0  0
    0.0100    4.6350  -23.6670 C   0  0  0  0  0  0  0  0  0  0  0  0
   -1.9770    3.4300  -24.6180 C   0  0  0  0  0  0  0  0  0  0  0  0
    4.1570    1.3990  -23.1440 C   0  0  0  0  0  0  0  0  0  0  0  0
    5.0950    1.0350  -22.0030 C   0  0  2  0  0  0  0  0  0  0  0  0
    6.6890    2.5740  -22.5390 C   0  0  2  0  0  0  0  0  0  0  0  0
    5.0840    2.0310  -20.8310 C   0  0  0  0  0  0  0  0  0  0  0  0
   -2.3080    3.5970  -26.0440 C   0  0  0  0  0  0  0  0  0  0  0  0
   -1.5470    2.8150  -21.6780 C   0  0  0  0  0  0  0  0  0  0  0  0
   -0.5150    2.4620  -21.1780 C   0  0  0  0  0  0  0  0  0  0  0  0
   -0.8280    5.6800  -23.3140 F   0  0  0  0  0  0  0  0  0  0  0  0
   -3.7260    3.1020  -20.1390 F   0  0  0  0  0  0  0  0  0  0  0  0
    1.8200    5.9780  -22.8860 N   0  0  0  0  0  0  0  0  0  0  0  0
    4.0350    5.0470  -22.9720 N   0  0  0  0  0  0  0  0  0  0  0  0
    0.2950    2.5160  -24.6930 N   0  0  0  0  0  0  0  0  0  0  0  0
    4.4710    2.8500  -23.6070 N   0  0  0  0  0  0  0  0  0  0  0  0
    6.5000    1.1010  -22.4910 N   0  0  0  0  0  0  0  0  0  0  0  0
   -3.8410    3.8060  -27.7920 O   0  0  0  0  0  0  0  0  0  0  0  0
    5.9850    9.2430  -23.4040 Cl  0  0  0  0  0  0  0  0  0  0  0  0
    4.7330    7.1740  -21.1840 N   0  0  0  0  0  0  0  0  0  0  0  0
    5.2240    8.4620  -20.5650 C   0  0  0  0  0  0  0  0  0  0  0  0
    3.7060    7.3460  -22.2710 C   0  0  0  0  0  0  0  0  0  0  0  0
    7.1220    9.1280  -22.0950 C   0  0  0  0  0  0  0  0  0  0  0  0
    7.6090    8.6580  -19.8140 C   0  0  0  0  0  0  0  0  0  0  0  0
    6.6930    8.7530  -20.8390 C   0  0  0  0  0  0  0  0  0  0  0  0
    9.3590    9.3190  -21.2920 C   0  0  0  0  0  0  0  0  0  0  0  0
    8.4510    9.4120  -22.3200 C   0  0  0  0  0  0  0  0  0  0  0  0
    8.9370    8.9400  -20.0380 C   0  0  0  0  0  0  0  0  0  0  0  0
  1  2  2  0
  1  3  1  0
  2  6  1  0
  3  5  2  0
  3 27  1  0
  4  5  1  0
  4  6  2  0
  4 18  1  0
  5 24  1  0
  6 10  1  0
  7 10  2  0
  7 23  1  0
  7 33  1  0
 21  8  1  1
  8 22  1  0
  9 21  1  0
  9 31  1  0
 11 12  1  0
 11 14  1  0
 11 15  2  0
 12 17  2  0
 12 28  1  0
 13 28  2  0
 13 29  1  0
 13 37  1  0
 14 29  2  0
 14 31  1  0
 15 30  1  0
 16 17  1  0
 16 18  1  0
 16 30  2  0
 17 26  1  0
 18 23  2  0
 20 19  1  6
 19 31  1  0
 20 22  1  0
 20 32  1  0
 21 32  1  0
 24 25  3  0
 34 38  1  0
 35 36  1  0
 35 37  1  0
 36 40  1  0
 38 40  2  0
 38 42  1  0
 39 40  1  0
 39 43  2  0
 41 42  2  0
 41 43  1  0
M  CHG  1  35   1
M  END
>  <s_m_entry_id>  (115) 
535

>  <s_m_entry_name>  (115) 
000000377.1

>  <s_m_Source_Path>  (115) 
/Users/zaksoul/Documents/3r_UNI/2nd_SEMESTER/BSC/FRAG_RECON/RESULTS/2

>  <s_m_Source_File>  (115) 
000000377.mol2

>  <i_m_Source_File_Index>  (115) 
1

$$$$
No_0_401
     RDKit          3D

 43 49  0  0  1  0  0  0  0  0999 V2000
   -5.3130    3.7970  -21.9950 C   0  0  0  0  0  0  0  0  0  0  0  0
   -5.5680    3.9880  -23.3320 C   0  0  0  0  0  0  0  0  0  0  0  0
   -4.0830    3.5200  -21.6460 C   0  0  0  0  0  0  0  0  0  0  0  0
   -3.1760    3.6250  -23.8060 C   0  0  0  0  0  0  0  0  0  0  0  0
   -3.0280    3.3800  -22.3840 C   0  0  0  0  0  0  0  0  0  0  0  0
   -4.5140    3.9120  -24.3360 C   0  0  0  0  0  0  0  0  0  0  0  0
   -3.7460    3.9150  -26.5300 C   0  0  0  0  0  0  0  0  0  0  0  0
    5.9350    3.0030  -21.2020 C   0  0  0  0  0  0  0  0  0  0  0  0
    5.8150    3.1430  -23.7530 C   0  0  0  0  0  0  0  0  0  0  0  0
   -4.7550    4.0420  -25.6730 C   0  0  0  0  0  0  0  0  0  0  0  0
    2.0420    3.7640  -23.7950 C   0  0  0  0  0  0  0  0  0  0  0  0
    1.2400    4.8890  -23.5030 C   0  0  0  0  0  0  0  0  0  0  0  0
    3.0570    6.0510  -22.8140 C   0  0  0  0  0  0  0  0  0  0  0  0
    3.4430    3.9280  -23.4730 C   0  0  0  0  0  0  0  0  0  0  0  0
    1.4780    2.6570  -24.4570 C   0  0  0  0  0  0  0  0  0  0  0  0
   -0.6340    3.5110  -24.3610 C   0  0  0  0  0  0  0  0  0  0  0  0
   -0.0870    4.7220  -23.7610 C   0  0  0  0  0  0  0  0  0  0  0  0
   -2.0840    3.5450  -24.7250 C   0  0  0  0  0  0  0  0  0  0  0  0
    3.9990    1.4200  -23.1730 C   0  0  0  0  0  0  0  0  0  0  0  0
    4.9180    1.0480  -22.0200 C   0  0  2  0  0  0  0  0  0  0  0  0
    6.5440    2.5570  -22.5490 C   0  0  2  0  0  0  0  0  0  0  0  0
    4.9120    2.0520  -20.8550 C   0  0  0  0  0  0  0  0  0  0  0  0
   -2.3980    3.7080  -26.1550 C   0  0  0  0  0  0  0  0  0  0  0  0
   -1.6960    2.9420  -21.7770 C   0  0  0  0  0  0  0  0  0  0  0  0
   -0.6750    2.5750  -21.2640 C   0  0  0  0  0  0  0  0  0  0  0  0
   -0.9110    5.7840  -23.4240 F   0  0  0  0  0  0  0  0  0  0  0  0
   -3.8850    3.2760  -20.2620 F   0  0  0  0  0  0  0  0  0  0  0  0
    1.7370    6.0400  -22.9700 N   0  0  0  0  0  0  0  0  0  0  0  0
    3.9360    5.0710  -23.0270 N   0  0  0  0  0  0  0  0  0  0  0  0
    0.1720    2.5920  -24.7700 N   0  0  0  0  0  0  0  0  0  0  0  0
    4.3420    2.8630  -23.6430 N   0  0  0  0  0  0  0  0  0  0  0  0
    6.3290    1.0870  -22.4940 N   0  0  0  0  0  0  0  0  0  0  0  0
   -3.9090    3.9310  -27.9200 O   0  0  0  0  0  0  0  0  0  0  0  0
    4.2970    7.2530  -20.9960 N   0  0  0  0  0  0  0  0  0  0  0  0
    7.6350    7.7410  -20.0810 N   0  0  0  0  0  0  0  0  0  0  0  0
    4.8030    8.5430  -20.4030 C   0  0  0  0  0  0  0  0  0  0  0  0
    3.6400    7.3800  -22.3450 C   0  0  0  0  0  0  0  0  0  0  0  0
    5.9760    9.1390  -21.1740 C   0  0  0  0  0  0  0  0  0  0  0  0
    7.2970    8.7440  -20.9940 C   0  0  0  0  0  0  0  0  0  0  0  0
    5.6860   10.1250  -22.0890 C   0  0  0  0  0  0  0  0  0  0  0  0
    8.2970    9.3560  -21.7310 C   0  0  0  0  0  0  0  0  0  0  0  0
    7.9930   10.3380  -22.6410 C   0  0  0  0  0  0  0  0  0  0  0  0
    6.6850   10.7230  -22.8230 C   0  0  0  0  0  0  0  0  0  0  0  0
  1  2  2  0
  1  3  1  0
  2  6  1  0
  3  5  2  0
  3 27  1  0
  4  5  1  0
  4  6  2  0
  4 18  1  0
  5 24  1  0
  6 10  1  0
  7 10  2  0
  7 23  1  0
  7 33  1  0
 21  8  1  1
  8 22  1  0
  9 21  1  0
  9 31  1  0
 11 12  1  0
 11 14  1  0
 11 15  2  0
 12 17  2  0
 12 28  1  0
 13 28  2  0
 13 29  1  0
 13 37  1  0
 14 29  2  0
 14 31  1  0
 15 30  1  0
 16 17  1  0
 16 18  1  0
 16 30  2  0
 17 26  1  0
 18 23  2  0
 20 19  1  6
 19 31  1  0
 20 22  1  0
 20 32  1  0
 21 32  1  0
 24 25  3  0
 34 36  1  0
 34 37  1  0
 35 39  1  0
 36 38  1  0
 38 39  2  0
 38 40  1  0
 39 41  1  0
 40 43  2  0
 41 42  2  0
 42 43  1  0
M  CHG  1  34   1
M  END
>  <s_m_entry_id>  (116) 
538

>  <s_m_entry_name>  (116) 
000000380.1

>  <s_m_Source_Path>  (116) 
/Users/zaksoul/Documents/3r_UNI/2nd_SEMESTER/BSC/FRAG_RECON/RESULTS/2

>  <s_m_Source_File>  (116) 
000000380.mol2

>  <i_m_Source_File_Index>  (116) 
1

$$$$
No_0_402,No_0_403,No_0_404
     RDKit          3D

 42 48  0  0  1  0  0  0  0  0999 V2000
   -5.1880    3.3920  -21.9100 C   0  0  0  0  0  0  0  0  0  0  0  0
   -5.4870    3.5470  -23.2430 C   0  0  0  0  0  0  0  0  0  0  0  0
   -3.9410    3.1490  -21.5940 C   0  0  0  0  0  0  0  0  0  0  0  0
   -3.1040    3.2220  -23.7830 C   0  0  0  0  0  0  0  0  0  0  0  0
   -2.9080    3.0130  -22.3620 C   0  0  0  0  0  0  0  0  0  0  0  0
   -4.4640    3.4710  -24.2770 C   0  0  0  0  0  0  0  0  0  0  0  0
   -3.7630    3.4390  -26.4930 C   0  0  0  0  0  0  0  0  0  0  0  0
    6.0940    2.8460  -21.4520 C   0  0  0  0  0  0  0  0  0  0  0  0
    5.8920    2.9250  -24.0000 C   0  0  0  0  0  0  0  0  0  0  0  0
   -4.7480    3.5650  -25.6090 C   0  0  0  0  0  0  0  0  0  0  0  0
    2.1070    3.4680  -23.9380 C   0  0  0  0  0  0  0  0  0  0  0  0
    1.2920    4.5830  -23.6460 C   0  0  0  0  0  0  0  0  0  0  0  0
    3.1040    5.7970  -23.0400 C   0  0  0  0  0  0  0  0  0  0  0  0
    3.5150    3.6680  -23.6640 C   0  0  0  0  0  0  0  0  0  0  0  0
    1.5470    2.3340  -24.5580 C   0  0  0  0  0  0  0  0  0  0  0  0
   -0.5790    3.1480  -24.4150 C   0  0  0  0  0  0  0  0  0  0  0  0
   -0.0390    4.3830  -23.8590 C   0  0  0  0  0  0  0  0  0  0  0  0
   -2.0400    3.1430  -24.7340 C   0  0  0  0  0  0  0  0  0  0  0  0
    4.1310    1.1790  -23.3250 C   0  0  0  0  0  0  0  0  0  0  0  0
    5.0940    0.8520  -22.1940 C   0  0  2  0  0  0  0  0  0  0  0  0
    6.6700    2.3810  -22.8070 C   0  0  2  0  0  0  0  0  0  0  0  0
    5.1030    1.8820  -21.0520 C   0  0  0  0  0  0  0  0  0  0  0  0
   -2.4000    3.2670  -26.1570 C   0  0  0  0  0  0  0  0  0  0  0  0
   -1.5480    2.6170  -21.7860 C   0  0  0  0  0  0  0  0  0  0  0  0
   -0.5050    2.2830  -21.2970 C   0  0  0  0  0  0  0  0  0  0  0  0
   -0.8740    5.4350  -23.5200 F   0  0  0  0  0  0  0  0  0  0  0  0
   -3.6970    2.9410  -20.2120 F   0  0  0  0  0  0  0  0  0  0  0  0
    1.7800    5.7550  -23.1550 N   0  0  0  0  0  0  0  0  0  0  0  0
    3.9970    4.8300  -23.2590 N   0  0  0  0  0  0  0  0  0  0  0  0
    0.2330    2.2360  -24.8280 N   0  0  0  0  0  0  0  0  0  0  0  0
    4.4300    2.6170  -23.8380 N   0  0  0  0  0  0  0  0  0  0  0  0
    6.4880    0.9090  -22.7120 N   0  0  0  0  0  0  0  0  0  0  0  0
   -3.9700    3.4190  -27.8780 O   0  0  0  0  0  0  0  0  0  0  0  0
    4.4960    7.0220  -21.3620 N   0  0  0  0  0  0  0  0  0  0  0  0
    7.6530    8.5630  -20.8560 N   0  0  0  0  0  0  0  0  0  0  0  0
    5.1150    8.3040  -20.8640 C   0  0  0  0  0  0  0  0  0  0  0  0
    3.6730    7.1480  -22.6190 C   0  0  0  0  0  0  0  0  0  0  0  0
    6.4550    8.6260  -21.5150 C   0  0  0  0  0  0  0  0  0  0  0  0
    6.6300    9.0110  -22.7820 C   0  0  0  0  0  0  0  0  0  0  0  0
    8.0210    9.2020  -22.9620 C   0  0  0  0  0  0  0  0  0  0  0  0
    8.5820    8.9230  -21.7860 C   0  0  0  0  0  0  0  0  0  0  0  0
    7.9070    8.2090  -19.4540 C   0  0  0  0  0  0  0  0  0  0  0  0
  1  2  2  0
  1  3  1  0
  2  6  1  0
  3  5  2  0
  3 27  1  0
  4  5  1  0
  4  6  2  0
  4 18  1  0
  5 24  1  0
  6 10  1  0
  7 10  2  0
  7 23  1  0
  7 33  1  0
 21  8  1  1
  8 22  1  0
  9 21  1  0
  9 31  1  0
 11 12  1  0
 11 14  1  0
 11 15  2  0
 12 17  2  0
 12 28  1  0
 13 28  2  0
 13 29  1  0
 13 37  1  0
 14 29  2  0
 14 31  1  0
 15 30  1  0
 16 17  1  0
 16 18  1  0
 16 30  2  0
 17 26  1  0
 18 23  2  0
 20 19  1  6
 19 31  1  0
 20 22  1  0
 20 32  1  0
 21 32  1  0
 24 25  3  0
 34 36  1  0
 34 37  1  0
 35 38  1  0
 35 41  1  0
 35 42  1  0
 36 38  1  0
 38 39  2  0
 39 40  1  0
 40 41  2  0
M  END
>  <s_m_entry_id>  (117) 
539

>  <s_m_entry_name>  (117) 
000000381.1

>  <s_m_Source_Path>  (117) 
/Users/zaksoul/Documents/3r_UNI/2nd_SEMESTER/BSC/FRAG_RECON/RESULTS/2

>  <s_m_Source_File>  (117) 
000000381.mol2

>  <i_m_Source_File_Index>  (117) 
1

$$$$
No_0_405
     RDKit          3D

 43 49  0  0  1  0  0  0  0  0999 V2000
   -5.2790    3.5680  -21.7750 C   0  0  0  0  0  0  0  0  0  0  0  0
   -5.5810    3.7640  -23.1020 C   0  0  0  0  0  0  0  0  0  0  0  0
   -4.0380    3.2800  -21.4720 C   0  0  0  0  0  0  0  0  0  0  0  0
   -3.2110    3.3810  -23.6650 C   0  0  0  0  0  0  0  0  0  0  0  0
   -3.0130    3.1320  -22.2500 C   0  0  0  0  0  0  0  0  0  0  0  0
   -4.5660    3.6810  -24.1440 C   0  0  0  0  0  0  0  0  0  0  0  0
   -3.8790    3.6810  -26.3650 C   0  0  0  0  0  0  0  0  0  0  0  0
    5.9840    2.6740  -21.4020 C   0  0  0  0  0  0  0  0  0  0  0  0
    5.7700    2.8200  -23.9460 C   0  0  0  0  0  0  0  0  0  0  0  0
   -4.8550    3.8150  -25.4710 C   0  0  0  0  0  0  0  0  0  0  0  0
    2.0040    3.4740  -23.8470 C   0  0  0  0  0  0  0  0  0  0  0  0
    1.2240    4.6060  -23.5230 C   0  0  0  0  0  0  0  0  0  0  0  0
    3.0750    5.7500  -22.9010 C   0  0  0  0  0  0  0  0  0  0  0  0
    3.4180    3.6260  -23.5770 C   0  0  0  0  0  0  0  0  0  0  0  0
    1.4060    2.3730  -24.4900 C   0  0  0  0  0  0  0  0  0  0  0  0
   -0.6930    3.2460  -24.3140 C   0  0  0  0  0  0  0  0  0  0  0  0
   -0.1140    4.4510  -23.7330 C   0  0  0  0  0  0  0  0  0  0  0  0
   -2.1550    3.2930  -24.6230 C   0  0  0  0  0  0  0  0  0  0  0  0
    3.9620    1.1120  -23.3020 C   0  0  0  0  0  0  0  0  0  0  0  0
    4.9200    0.7300  -22.1840 C   0  0  2  0  0  0  0  0  0  0  0  0
    6.5390    2.2250  -22.7710 C   0  0  2  0  0  0  0  0  0  0  0  0
    4.9670    1.7310  -21.0180 C   0  0  0  0  0  0  0  0  0  0  0  0
   -2.5200    3.4610  -26.0410 C   0  0  0  0  0  0  0  0  0  0  0  0
   -1.6630    2.6810  -21.6930 C   0  0  0  0  0  0  0  0  0  0  0  0
   -0.6280    2.3050  -21.2180 C   0  0  0  0  0  0  0  0  0  0  0  0
   -0.9150    5.5190  -23.3630 F   0  0  0  0  0  0  0  0  0  0  0  0
   -3.7920    3.0320  -20.0970 F   0  0  0  0  0  0  0  0  0  0  0  0
    1.7500    5.7510  -23.0080 N   0  0  0  0  0  0  0  0  0  0  0  0
    3.9370    4.7630  -23.1480 N   0  0  0  0  0  0  0  0  0  0  0  0
    0.0890    2.3200  -24.7540 N   0  0  0  0  0  0  0  0  0  0  0  0
    4.3010    2.5520  -23.7820 N   0  0  0  0  0  0  0  0  0  0  0  0
    6.3130    0.7570  -22.7100 N   0  0  0  0  0  0  0  0  0  0  0  0
   -4.0940    3.7010  -27.7480 O   0  0  0  0  0  0  0  0  0  0  0  0
    3.7270    7.1660  -20.9480 N   0  0  0  0  0  0  0  0  0  0  0  0
    7.6880    9.7190  -21.6140 N   0  0  0  0  0  0  0  0  0  0  0  0
    3.6870    7.0730  -22.4510 C   0  0  0  0  0  0  0  0  0  0  0  0
    4.2870    8.4490  -20.3880 C   0  0  0  0  0  0  0  0  0  0  0  0
    5.7870    8.6140  -20.6300 C   0  0  0  0  0  0  0  0  0  0  0  0
    6.3590    9.5870  -21.4260 C   0  0  0  0  0  0  0  0  0  0  0  0
    6.6200    7.7280  -19.9940 C   0  0  0  0  0  0  0  0  0  0  0  0
    7.9730    7.8310  -20.1660 C   0  0  0  0  0  0  0  0  0  0  0  0
    5.4860   10.5910  -22.1540 C   0  0  0  0  0  0  0  0  0  0  0  0
    8.4650    8.8260  -20.9720 C   0  0  0  0  0  0  0  0  0  0  0  0
  1  2  2  0
  1  3  1  0
  2  6  1  0
  3  5  2  0
  3 27  1  0
  4  5  1  0
  4  6  2  0
  4 18  1  0
  5 24  1  0
  6 10  1  0
  7 10  2  0
  7 23  1  0
  7 33  1  0
 21  8  1  1
  8 22  1  0
  9 21  1  0
  9 31  1  0
 11 12  1  0
 11 14  1  0
 11 15  2  0
 12 17  2  0
 12 28  1  0
 13 28  2  0
 13 29  1  0
 13 36  1  0
 14 29  2  0
 14 31  1  0
 15 30  1  0
 16 17  1  0
 16 18  1  0
 16 30  2  0
 17 26  1  0
 18 23  2  0
 20 19  1  6
 19 31  1  0
 20 22  1  0
 20 32  1  0
 21 32  1  0
 24 25  3  0
 34 36  1  0
 34 37  1  0
 35 39  2  0
 35 43  1  0
 37 38  1  0
 38 39  1  0
 38 40  2  0
 39 42  1  0
 40 41  1  0
 41 43  2  0
M  END
>  <s_m_entry_id>  (118) 
542

>  <s_m_entry_name>  (118) 
000000384.1

>  <s_m_Source_Path>  (118) 
/Users/zaksoul/Documents/3r_UNI/2nd_SEMESTER/BSC/FRAG_RECON/RESULTS/2

>  <s_m_Source_File>  (118) 
000000384.mol2

>  <i_m_Source_File_Index>  (118) 
1

$$$$
No_0_406,No_0_407,No_0_408,No_0_409,No_0_410,No_0_411
     RDKit          3D

 41 47  0  0  1  0  0  0  0  0999 V2000
   -5.3720    3.3450  -21.7790 C   0  0  0  0  0  0  0  0  0  0  0  0
   -5.6420    3.5360  -23.1140 C   0  0  0  0  0  0  0  0  0  0  0  0
   -4.1330    3.0900  -21.4420 C   0  0  0  0  0  0  0  0  0  0  0  0
   -3.2480    3.2180  -23.6100 C   0  0  0  0  0  0  0  0  0  0  0  0
   -3.0840    2.9710  -22.1900 C   0  0  0  0  0  0  0  0  0  0  0  0
   -4.5960    3.4840  -24.1270 C   0  0  0  0  0  0  0  0  0  0  0  0
   -3.8470    3.5080  -26.3270 C   0  0  0  0  0  0  0  0  0  0  0  0
    5.8950    2.7510  -21.0890 C   0  0  0  0  0  0  0  0  0  0  0  0
    5.7500    2.8980  -23.6380 C   0  0  0  0  0  0  0  0  0  0  0  0
   -4.8510    3.6140  -25.4610 C   0  0  0  0  0  0  0  0  0  0  0  0
    1.9660    3.4510  -23.6440 C   0  0  0  0  0  0  0  0  0  0  0  0
    1.1470    4.5600  -23.3410 C   0  0  0  0  0  0  0  0  0  0  0  0
    2.9490    5.7520  -22.6640 C   0  0  0  0  0  0  0  0  0  0  0  0
    3.3670    3.6390  -23.3350 C   0  0  0  0  0  0  0  0  0  0  0  0
    1.4160    2.3360  -24.3060 C   0  0  0  0  0  0  0  0  0  0  0  0
   -0.7100    3.1520  -24.1880 C   0  0  0  0  0  0  0  0  0  0  0  0
   -0.1800    4.3710  -23.5890 C   0  0  0  0  0  0  0  0  0  0  0  0
   -2.1640    3.1610  -24.5390 C   0  0  0  0  0  0  0  0  0  0  0  0
    3.9700    1.1400  -23.0490 C   0  0  0  0  0  0  0  0  0  0  0  0
    4.9060    0.7810  -21.9050 C   0  0  2  0  0  0  0  0  0  0  0  0
    6.5000    2.3200  -22.4430 C   0  0  2  0  0  0  0  0  0  0  0  0
    4.8930    1.7800  -20.7360 C   0  0  0  0  0  0  0  0  0  0  0  0
   -2.4930    3.3230  -25.9650 C   0  0  0  0  0  0  0  0  0  0  0  0
   -1.7380    2.5550  -21.5960 C   0  0  0  0  0  0  0  0  0  0  0  0
   -0.7070    2.2050  -21.0940 C   0  0  0  0  0  0  0  0  0  0  0  0
   -1.0190    5.4160  -23.2400 F   0  0  0  0  0  0  0  0  0  0  0  0
   -3.9200    2.8440  -20.0610 F   0  0  0  0  0  0  0  0  0  0  0  0
    1.6270    5.7180  -22.8090 N   0  0  0  0  0  0  0  0  0  0  0  0
    3.8430    4.7890  -22.8880 N   0  0  0  0  0  0  0  0  0  0  0  0
    0.1090    2.2490  -24.6080 N   0  0  0  0  0  0  0  0  0  0  0  0
    4.2830    2.5900  -23.5160 N   0  0  0  0  0  0  0  0  0  0  0  0
    6.3120    0.8470  -22.3910 N   0  0  0  0  0  0  0  0  0  0  0  0
   -4.0240    3.5250  -27.7160 O   0  0  0  0  0  0  0  0  0  0  0  0
    6.3930    7.3970  -19.5360 O   0  0  0  0  0  0  0  0  0  0  0  0
    3.5150    7.1970  -20.6940 N   0  0  0  0  0  0  0  0  0  0  0  0
    3.5120    7.0900  -22.1950 C   0  0  0  0  0  0  0  0  0  0  0  0
    4.1980    8.4240  -20.1500 C   0  0  0  0  0  0  0  0  0  0  0  0
    5.7050    8.2890  -20.2530 C   0  0  0  0  0  0  0  0  0  0  0  0
    7.8160    8.4870  -20.8070 C   0  0  0  0  0  0  0  0  0  0  0  0
    6.5130    8.9860  -21.0430 C   0  0  0  0  0  0  0  0  0  0  0  0
    7.6700    7.5340  -19.8950 C   0  0  0  0  0  0  0  0  0  0  0  0
  1  2  2  0
  1  3  1  0
  2  6  1  0
  3  5  2  0
  3 27  1  0
  4  5  1  0
  4  6  2  0
  4 18  1  0
  5 24  1  0
  6 10  1  0
  7 10  2  0
  7 23  1  0
  7 33  1  0
 21  8  1  1
  8 22  1  0
  9 21  1  0
  9 31  1  0
 11 12  1  0
 11 14  1  0
 11 15  2  0
 12 17  2  0
 12 28  1  0
 13 28  2  0
 13 29  1  0
 13 36  1  0
 14 29  2  0
 14 31  1  0
 15 30  1  0
 16 17  1  0
 16 18  1  0
 16 30  2  0
 17 26  1  0
 18 23  2  0
 20 19  1  6
 19 31  1  0
 20 22  1  0
 20 32  1  0
 21 32  1  0
 24 25  3  0
 34 38  1  0
 34 41  1  0
 35 36  1  0
 35 37  1  0
 37 38  1  0
 38 40  2  0
 39 40  1  0
 39 41  2  0
M  CHG  1  35   1
M  END
>  <s_m_entry_id>  (119) 
543

>  <s_m_entry_name>  (119) 
000000385.1

>  <s_m_Source_Path>  (119) 
/Users/zaksoul/Documents/3r_UNI/2nd_SEMESTER/BSC/FRAG_RECON/RESULTS/2

>  <s_m_Source_File>  (119) 
000000385.mol2

>  <i_m_Source_File_Index>  (119) 
1

$$$$
No_0_412,No_0_413,No_0_414,No_0_415,No_0_416,No_0_417
     RDKit          3D

 41 47  0  0  1  0  0  0  0  0999 V2000
   -4.9160    3.4360  -21.7700 C   0  0  0  0  0  0  0  0  0  0  0  0
   -5.2240    3.5890  -23.1010 C   0  0  0  0  0  0  0  0  0  0  0  0
   -3.6660    3.1980  -21.4620 C   0  0  0  0  0  0  0  0  0  0  0  0
   -2.8430    3.2750  -23.6570 C   0  0  0  0  0  0  0  0  0  0  0  0
   -2.6370    3.0670  -22.2360 C   0  0  0  0  0  0  0  0  0  0  0  0
   -4.2080    3.5170  -24.1420 C   0  0  0  0  0  0  0  0  0  0  0  0
   -3.5220    3.4870  -26.3620 C   0  0  0  0  0  0  0  0  0  0  0  0
    6.3710    2.9410  -21.3870 C   0  0  0  0  0  0  0  0  0  0  0  0
    6.1520    3.0190  -23.9340 C   0  0  0  0  0  0  0  0  0  0  0  0
   -4.5010    3.6090  -25.4720 C   0  0  0  0  0  0  0  0  0  0  0  0
    2.3660    3.5440  -23.8460 C   0  0  0  0  0  0  0  0  0  0  0  0
    1.5470    4.6550  -23.5490 C   0  0  0  0  0  0  0  0  0  0  0  0
    3.3580    5.8780  -22.9560 C   0  0  0  0  0  0  0  0  0  0  0  0
    3.7740    3.7510  -23.5820 C   0  0  0  0  0  0  0  0  0  0  0  0
    1.8060    2.4080  -24.4620 C   0  0  0  0  0  0  0  0  0  0  0  0
   -0.3220    3.2120  -24.3050 C   0  0  0  0  0  0  0  0  0  0  0  0
    0.2150    4.4500  -23.7540 C   0  0  0  0  0  0  0  0  0  0  0  0
   -1.7850    3.2000  -24.6140 C   0  0  0  0  0  0  0  0  0  0  0  0
    4.4040    1.2650  -23.2470 C   0  0  0  0  0  0  0  0  0  0  0  0
    5.3750    0.9430  -22.1210 C   0  0  2  0  0  0  0  0  0  0  0  0
    6.9410    2.4790  -22.7460 C   0  0  2  0  0  0  0  0  0  0  0  0
    5.3870    1.9730  -20.9800 C   0  0  0  0  0  0  0  0  0  0  0  0
   -2.1560    3.3220  -26.0350 C   0  0  0  0  0  0  0  0  0  0  0  0
   -1.2720    2.6770  -21.6700 C   0  0  0  0  0  0  0  0  0  0  0  0
   -0.2230    2.3480  -21.1880 C   0  0  0  0  0  0  0  0  0  0  0  0
   -0.6220    5.4980  -23.4090 F   0  0  0  0  0  0  0  0  0  0  0  0
   -3.4110    2.9920  -20.0810 F   0  0  0  0  0  0  0  0  0  0  0  0
    2.0330    5.8300  -23.0620 N   0  0  0  0  0  0  0  0  0  0  0  0
    4.2530    4.9150  -23.1800 N   0  0  0  0  0  0  0  0  0  0  0  0
    0.4920    2.3030  -24.7240 N   0  0  0  0  0  0  0  0  0  0  0  0
    4.6930    2.7040  -23.7610 N   0  0  0  0  0  0  0  0  0  0  0  0
    6.7660    1.0060  -22.6490 N   0  0  0  0  0  0  0  0  0  0  0  0
   -3.7380    3.4660  -27.7460 O   0  0  0  0  0  0  0  0  0  0  0  0
    3.6360    7.5240  -21.0910 N   0  0  0  0  0  0  0  0  0  0  0  0
    6.0660    9.9810  -21.6690 N   0  0  0  0  0  0  0  0  0  0  0  0
    7.4080    9.9300  -21.4780 N   0  0  0  0  0  0  0  0  0  0  0  0
    4.0560    8.8920  -20.6170 C   0  0  0  0  0  0  0  0  0  0  0  0
    3.9230    7.2320  -22.5390 C   0  0  0  0  0  0  0  0  0  0  0  0
    5.5490    9.1330  -20.7430 C   0  0  0  0  0  0  0  0  0  0  0  0
    6.5060    8.5720  -19.9960 C   0  0  0  0  0  0  0  0  0  0  0  0
    7.6920    9.1090  -20.5010 C   0  0  0  0  0  0  0  0  0  0  0  0
  1  2  2  0
  1  3  1  0
  2  6  1  0
  3  5  2  0
  3 27  1  0
  4  5  1  0
  4  6  2  0
  4 18  1  0
  5 24  1  0
  6 10  1  0
  7 10  2  0
  7 23  1  0
  7 33  1  0
 21  8  1  1
  8 22  1  0
  9 21  1  0
  9 31  1  0
 11 12  1  0
 11 14  1  0
 11 15  2  0
 12 17  2  0
 12 28  1  0
 13 28  2  0
 13 29  1  0
 13 38  1  0
 14 29  2  0
 14 31  1  0
 15 30  1  0
 16 17  1  0
 16 18  1  0
 16 30  2  0
 17 26  1  0
 18 23  2  0
 20 19  1  6
 19 31  1  0
 20 22  1  0
 20 32  1  0
 21 32  1  0
 24 25  3  0
 34 37  1  0
 34 38  1  0
 35 36  1  0
 35 39  1  0
 36 41  2  0
 37 39  1  0
 39 40  2  0
 40 41  1  0
M  END
>  <s_m_entry_id>  (120) 
549

>  <s_m_entry_name>  (120) 
000000391.1

>  <s_m_Source_Path>  (120) 
/Users/zaksoul/Documents/3r_UNI/2nd_SEMESTER/BSC/FRAG_RECON/RESULTS/2

>  <s_m_Source_File>  (120) 
000000391.mol2

>  <i_m_Source_File_Index>  (120) 
1

$$$$
No_0_418
     RDKit          3D

 43 49  0  0  1  0  0  0  0  0999 V2000
   -5.4480    3.5280  -22.1550 C   0  0  0  0  0  0  0  0  0  0  0  0
   -5.6770    3.6790  -23.5020 C   0  0  0  0  0  0  0  0  0  0  0  0
   -4.2190    3.2880  -21.7730 C   0  0  0  0  0  0  0  0  0  0  0  0
   -3.2670    3.3580  -23.9150 C   0  0  0  0  0  0  0  0  0  0  0  0
   -3.1460    3.1530  -22.4850 C   0  0  0  0  0  0  0  0  0  0  0  0
   -4.6000    3.6020  -24.4810 C   0  0  0  0  0  0  0  0  0  0  0  0
   -3.7840    3.5660  -26.6570 C   0  0  0  0  0  0  0  0  0  0  0  0
    5.7950    3.0070  -21.1030 C   0  0  0  0  0  0  0  0  0  0  0  0
    5.7280    3.0790  -23.6590 C   0  0  0  0  0  0  0  0  0  0  0  0
   -4.8150    3.6920  -25.8260 C   0  0  0  0  0  0  0  0  0  0  0  0
    1.9440    3.6140  -23.7970 C   0  0  0  0  0  0  0  0  0  0  0  0
    1.1120    4.7280  -23.5510 C   0  0  0  0  0  0  0  0  0  0  0  0
    2.8880    5.9470  -22.8550 C   0  0  0  0  0  0  0  0  0  0  0  0
    3.3340    3.8180  -23.4500 C   0  0  0  0  0  0  0  0  0  0  0  0
    1.4190    2.4770  -24.4420 C   0  0  0  0  0  0  0  0  0  0  0  0
   -0.7130    3.2870  -24.4130 C   0  0  0  0  0  0  0  0  0  0  0  0
   -0.2060    4.5250  -23.8340 C   0  0  0  0  0  0  0  0  0  0  0  0
   -2.1550    3.2790  -24.8080 C   0  0  0  0  0  0  0  0  0  0  0  0
    3.9380    1.3310  -23.0730 C   0  0  0  0  0  0  0  0  0  0  0  0
    4.8400    1.0090  -21.8910 C   0  0  2  0  0  0  0  0  0  0  0  0
    6.4430    2.5400  -22.4250 C   0  0  2  0  0  0  0  0  0  0  0  0
    4.7870    2.0420  -20.7530 C   0  0  0  0  0  0  0  0  0  0  0  0
   -2.4410    3.3980  -26.2490 C   0  0  0  0  0  0  0  0  0  0  0  0
   -1.8180    2.7610  -21.8380 C   0  0  0  0  0  0  0  0  0  0  0  0
   -0.8010    2.4300  -21.2940 C   0  0  0  0  0  0  0  0  0  0  0  0
   -1.0590    5.5760  -23.5420 F   0  0  0  0  0  0  0  0  0  0  0  0
   -4.0470    3.0850  -20.3790 F   0  0  0  0  0  0  0  0  0  0  0  0
    1.5710    5.9020  -23.0390 N   0  0  0  0  0  0  0  0  0  0  0  0
    3.7920    4.9820  -23.0230 N   0  0  0  0  0  0  0  0  0  0  0  0
    0.1220    2.3750  -24.7810 N   0  0  0  0  0  0  0  0  0  0  0  0
    4.2600    2.7680  -23.5720 N   0  0  0  0  0  0  0  0  0  0  0  0
    6.2590    1.0680  -22.3360 N   0  0  0  0  0  0  0  0  0  0  0  0
   -3.9180    3.5420  -28.0510 O   0  0  0  0  0  0  0  0  0  0  0  0
    4.8360    7.1830  -21.8780 N   0  0  0  0  0  0  0  0  0  0  0  0
    4.8930    9.6270  -23.3700 N   0  0  0  0  0  0  0  0  0  0  0  0
    6.1910   11.5340  -24.0790 N   0  0  0  0  0  0  0  0  0  0  0  0
    5.4120    8.4360  -21.2700 C   0  0  0  0  0  0  0  0  0  0  0  0
    3.4310    7.3010  -22.4080 C   0  0  0  0  0  0  0  0  0  0  0  0
    5.6820    9.5310  -22.2900 C   0  0  0  0  0  0  0  0  0  0  0  0
    6.7190   10.3960  -22.0640 C   0  0  0  0  0  0  0  0  0  0  0  0
    4.3270   10.7720  -25.4280 C   0  0  0  0  0  0  0  0  0  0  0  0
    5.2030   10.6340  -24.2030 C   0  0  0  0  0  0  0  0  0  0  0  0
    6.9450   11.3860  -22.9800 C   0  0  0  0  0  0  0  0  0  0  0  0
  1  2  2  0
  1  3  1  0
  2  6  1  0
  3  5  2  0
  3 27  1  0
  4  5  1  0
  4  6  2  0
  4 18  1  0
  5 24  1  0
  6 10  1  0
  7 10  2  0
  7 23  1  0
  7 33  1  0
 21  8  1  1
  8 22  1  0
  9 21  1  0
  9 31  1  0
 11 12  1  0
 11 14  1  0
 11 15  2  0
 12 17  2  0
 12 28  1  0
 13 28  2  0
 13 29  1  0
 13 38  1  0
 14 29  2  0
 14 31  1  0
 15 30  1  0
 16 17  1  0
 16 18  1  0
 16 30  2  0
 17 26  1  0
 18 23  2  0
 20 19  1  6
 19 31  1  0
 20 22  1  0
 20 32  1  0
 21 32  1  0
 24 25  3  0
 34 37  1  0
 34 38  1  0
 35 39  2  0
 35 42  1  0
 36 42  2  0
 36 43  1  0
 37 39  1  0
 39 40  1  0
 40 43  2  0
 41 42  1  0
M  END
>  <s_m_entry_id>  (121) 
555

>  <s_m_entry_name>  (121) 
000000397.1

>  <s_m_Source_Path>  (121) 
/Users/zaksoul/Documents/3r_UNI/2nd_SEMESTER/BSC/FRAG_RECON/RESULTS/2

>  <s_m_Source_File>  (121) 
000000397.mol2

>  <i_m_Source_File_Index>  (121) 
1

$$$$
No_0_419,No_0_420,No_0_421,No_0_422,No_0_423
     RDKit          3D

 42 48  0  0  1  0  0  0  0  0999 V2000
   -5.1850    3.4670  -22.0720 C   0  0  0  0  0  0  0  0  0  0  0  0
   -5.4630    3.6250  -23.4090 C   0  0  0  0  0  0  0  0  0  0  0  0
   -3.9410    3.2430  -21.7340 C   0  0  0  0  0  0  0  0  0  0  0  0
   -3.0660    3.3420  -23.9080 C   0  0  0  0  0  0  0  0  0  0  0  0
   -2.8910    3.1290  -22.4840 C   0  0  0  0  0  0  0  0  0  0  0  0
   -4.4210    3.5700  -24.4250 C   0  0  0  0  0  0  0  0  0  0  0  0
   -3.6800    3.5620  -26.6280 C   0  0  0  0  0  0  0  0  0  0  0  0
    6.0940    3.1060  -21.4140 C   0  0  0  0  0  0  0  0  0  0  0  0
    5.9360    3.1950  -23.9650 C   0  0  0  0  0  0  0  0  0  0  0  0
   -4.6830    3.6670  -25.7610 C   0  0  0  0  0  0  0  0  0  0  0  0
    2.1430    3.6750  -23.9680 C   0  0  0  0  0  0  0  0  0  0  0  0
    1.3040    4.7750  -23.6850 C   0  0  0  0  0  0  0  0  0  0  0  0
    3.0840    6.0150  -23.0410 C   0  0  0  0  0  0  0  0  0  0  0  0
    3.5410    3.8970  -23.6680 C   0  0  0  0  0  0  0  0  0  0  0  0
    1.6120    2.5350  -24.6030 C   0  0  0  0  0  0  0  0  0  0  0  0
   -0.5290    3.3130  -24.4950 C   0  0  0  0  0  0  0  0  0  0  0  0
   -0.0200    4.5540  -23.9230 C   0  0  0  0  0  0  0  0  0  0  0  0
   -1.9840    3.2860  -24.8390 C   0  0  0  0  0  0  0  0  0  0  0  0
    4.1930    1.4170  -23.3310 C   0  0  0  0  0  0  0  0  0  0  0  0
    5.1410    1.1010  -22.1840 C   0  0  2  0  0  0  0  0  0  0  0  0
    6.7020    2.6580  -22.7610 C   0  0  2  0  0  0  0  0  0  0  0  0
    5.1120    2.1240  -21.0360 C   0  0  0  0  0  0  0  0  0  0  0  0
   -2.3210    3.4110  -26.2680 C   0  0  0  0  0  0  0  0  0  0  0  0
   -1.5360    2.7520  -21.8860 C   0  0  0  0  0  0  0  0  0  0  0  0
   -0.4960    2.4330  -21.3800 C   0  0  0  0  0  0  0  0  0  0  0  0
   -0.8780    5.5900  -23.5940 F   0  0  0  0  0  0  0  0  0  0  0  0
   -3.7170    3.0320  -20.3490 F   0  0  0  0  0  0  0  0  0  0  0  0
    1.7630    5.9520  -23.1800 N   0  0  0  0  0  0  0  0  0  0  0  0
    3.9960    5.0650  -23.2480 N   0  0  0  0  0  0  0  0  0  0  0  0
    0.3060    2.4170  -24.8980 N   0  0  0  0  0  0  0  0  0  0  0  0
    4.4770    2.8620  -23.8300 N   0  0  0  0  0  0  0  0  0  0  0  0
    6.5430    1.1830  -22.6770 N   0  0  0  0  0  0  0  0  0  0  0  0
   -3.8620    3.5460  -28.0170 O   0  0  0  0  0  0  0  0  0  0  0  0
    3.6190    7.4900  -21.1010 N   0  0  0  0  0  0  0  0  0  0  0  0
    8.0500   10.0870  -20.9320 N   0  0  0  0  0  0  0  0  0  0  0  0
    3.9290    8.8540  -20.5410 C   0  0  0  0  0  0  0  0  0  0  0  0
    3.6230    7.3730  -22.6030 C   0  0  0  0  0  0  0  0  0  0  0  0
    5.3840    9.2730  -20.6870 C   0  0  0  0  0  0  0  0  0  0  0  0
    6.3960    8.5590  -20.1010 C   0  0  0  0  0  0  0  0  0  0  0  0
    5.7170   10.3960  -21.3970 C   0  0  0  0  0  0  0  0  0  0  0  0
    7.0350   10.7690  -21.4970 C   0  0  0  0  0  0  0  0  0  0  0  0
    7.6950    8.9860  -20.2410 C   0  0  0  0  0  0  0  0  0  0  0  0
  1  2  2  0
  1  3  1  0
  2  6  1  0
  3  5  2  0
  3 27  1  0
  4  5  1  0
  4  6  2  0
  4 18  1  0
  5 24  1  0
  6 10  1  0
  7 10  2  0
  7 23  1  0
  7 33  1  0
 21  8  1  1
  8 22  1  0
  9 21  1  0
  9 31  1  0
 11 12  1  0
 11 14  1  0
 11 15  2  0
 12 17  2  0
 12 28  1  0
 13 28  2  0
 13 29  1  0
 13 37  1  0
 14 29  2  0
 14 31  1  0
 15 30  1  0
 16 17  1  0
 16 18  1  0
 16 30  2  0
 17 26  1  0
 18 23  2  0
 20 19  1  6
 19 31  1  0
 20 22  1  0
 20 32  1  0
 21 32  1  0
 24 25  3  0
 34 36  1  0
 34 37  1  0
 35 41  2  0
 35 42  1  0
 36 38  1  0
 38 39  1  0
 38 40  2  0
 39 42  2  0
 40 41  1  0
M  END
>  <s_m_entry_id>  (122) 
556

>  <s_m_entry_name>  (122) 
000000398.1

>  <s_m_Source_Path>  (122) 
/Users/zaksoul/Documents/3r_UNI/2nd_SEMESTER/BSC/FRAG_RECON/RESULTS/2

>  <s_m_Source_File>  (122) 
000000398.mol2

>  <i_m_Source_File_Index>  (122) 
1

$$$$
No_0_424,No_0_425
     RDKit          3D

 43 49  0  0  1  0  0  0  0  0999 V2000
   -5.3760    3.7810  -22.0350 C   0  0  0  0  0  0  0  0  0  0  0  0
   -5.6150    3.9400  -23.3790 C   0  0  0  0  0  0  0  0  0  0  0  0
   -4.1510    3.5020  -21.6660 C   0  0  0  0  0  0  0  0  0  0  0  0
   -3.2220    3.5420  -23.8190 C   0  0  0  0  0  0  0  0  0  0  0  0
   -3.0910    3.3330  -22.3900 C   0  0  0  0  0  0  0  0  0  0  0  0
   -4.5520    3.8280  -24.3700 C   0  0  0  0  0  0  0  0  0  0  0  0
   -3.7610    3.7670  -26.5550 C   0  0  0  0  0  0  0  0  0  0  0  0
    5.8560    2.9010  -21.1060 C   0  0  0  0  0  0  0  0  0  0  0  0
    5.7630    2.9760  -23.6600 C   0  0  0  0  0  0  0  0  0  0  0  0
   -4.7780    3.9250  -25.7120 C   0  0  0  0  0  0  0  0  0  0  0  0
    1.9960    3.6320  -23.7570 C   0  0  0  0  0  0  0  0  0  0  0  0
    1.2030    4.7710  -23.5030 C   0  0  0  0  0  0  0  0  0  0  0  0
    3.0240    5.9330  -22.8250 C   0  0  0  0  0  0  0  0  0  0  0  0
    3.3960    3.7910  -23.4260 C   0  0  0  0  0  0  0  0  0  0  0  0
    1.4280    2.5130  -24.3970 C   0  0  0  0  0  0  0  0  0  0  0  0
   -0.6760    3.3890  -24.3450 C   0  0  0  0  0  0  0  0  0  0  0  0
   -0.1230    4.6100  -23.7710 C   0  0  0  0  0  0  0  0  0  0  0  0
   -2.1220    3.4270  -24.7240 C   0  0  0  0  0  0  0  0  0  0  0  0
    3.9240    1.2860  -23.0550 C   0  0  0  0  0  0  0  0  0  0  0  0
    4.8280    0.9360  -21.8830 C   0  0  2  0  0  0  0  0  0  0  0  0
    6.4740    2.4140  -22.4350 C   0  0  2  0  0  0  0  0  0  0  0  0
    4.8210    1.9690  -20.7440 C   0  0  0  0  0  0  0  0  0  0  0  0
   -2.4200    3.5560  -26.1610 C   0  0  0  0  0  0  0  0  0  0  0  0
   -1.7690    2.8980  -21.7570 C   0  0  0  0  0  0  0  0  0  0  0  0
   -0.7580    2.5350  -21.2240 C   0  0  0  0  0  0  0  0  0  0  0  0
   -0.9400    5.6880  -23.4690 F   0  0  0  0  0  0  0  0  0  0  0  0
   -3.9700    3.2920  -20.2740 F   0  0  0  0  0  0  0  0  0  0  0  0
    1.7050    5.9300  -22.9950 N   0  0  0  0  0  0  0  0  0  0  0  0
    3.8960    4.9400  -23.0040 N   0  0  0  0  0  0  0  0  0  0  0  0
    0.1250    2.4520  -24.7210 N   0  0  0  0  0  0  0  0  0  0  0  0
    4.2860    2.7120  -23.5580 N   0  0  0  0  0  0  0  0  0  0  0  0
    6.2440    0.9490  -22.3430 N   0  0  0  0  0  0  0  0  0  0  0  0
   -3.9110    3.7470  -27.9470 O   0  0  0  0  0  0  0  0  0  0  0  0
    5.0350   10.0150  -22.7820 F   0  0  0  0  0  0  0  0  0  0  0  0
    3.9290    7.2800  -20.9120 N   0  0  0  0  0  0  0  0  0  0  0  0
    8.4620    9.4870  -21.7930 N   0  0  0  0  0  0  0  0  0  0  0  0
    3.6150    7.2690  -22.3850 C   0  0  0  0  0  0  0  0  0  0  0  0
    5.8770    8.8980  -20.8840 C   0  0  0  0  0  0  0  0  0  0  0  0
    4.4770    8.5780  -20.3740 C   0  0  0  0  0  0  0  0  0  0  0  0
    6.9840    8.4960  -20.1830 C   0  0  0  0  0  0  0  0  0  0  0  0
    6.0770    9.5990  -22.0490 C   0  0  0  0  0  0  0  0  0  0  0  0
    7.3600    9.8710  -22.4650 C   0  0  0  0  0  0  0  0  0  0  0  0
    8.2380    8.8010  -20.6560 C   0  0  0  0  0  0  0  0  0  0  0  0
  1  2  2  0
  1  3  1  0
  2  6  1  0
  3  5  2  0
  3 27  1  0
  4  5  1  0
  4  6  2  0
  4 18  1  0
  5 24  1  0
  6 10  1  0
  7 10  2  0
  7 23  1  0
  7 33  1  0
 21  8  1  1
  8 22  1  0
  9 21  1  0
  9 31  1  0
 11 12  1  0
 11 14  1  0
 11 15  2  0
 12 17  2  0
 12 28  1  0
 13 28  2  0
 13 29  1  0
 13 37  1  0
 14 29  2  0
 14 31  1  0
 15 30  1  0
 16 17  1  0
 16 18  1  0
 16 30  2  0
 17 26  1  0
 18 23  2  0
 20 19  1  6
 19 31  1  0
 20 22  1  0
 20 32  1  0
 21 32  1  0
 24 25  3  0
 34 41  1  0
 35 37  1  0
 35 39  1  0
 36 42  2  0
 36 43  1  0
 38 39  1  0
 38 40  1  0
 38 41  2  0
 40 43  2  0
 41 42  1  0
M  END
>  <s_m_entry_id>  (123) 
561

>  <s_m_entry_name>  (123) 
000000403.1

>  <s_m_Source_Path>  (123) 
/Users/zaksoul/Documents/3r_UNI/2nd_SEMESTER/BSC/FRAG_RECON/RESULTS/2

>  <s_m_Source_File>  (123) 
000000403.mol2

>  <i_m_Source_File_Index>  (123) 
1

$$$$
No_0_426,No_0_427,No_0_428,No_0_429
     RDKit          3D

 42 48  0  0  1  0  0  0  0  0999 V2000
   -5.1740    3.6050  -21.8920 C   0  0  0  0  0  0  0  0  0  0  0  0
   -5.4460    3.7590  -23.2300 C   0  0  0  0  0  0  0  0  0  0  0  0
   -3.9370    3.3450  -21.5510 C   0  0  0  0  0  0  0  0  0  0  0  0
   -3.0580    3.3980  -23.7250 C   0  0  0  0  0  0  0  0  0  0  0  0
   -2.8910    3.1920  -22.2990 C   0  0  0  0  0  0  0  0  0  0  0  0
   -4.4050    3.6630  -24.2450 C   0  0  0  0  0  0  0  0  0  0  0  0
   -3.6640    3.6120  -26.4480 C   0  0  0  0  0  0  0  0  0  0  0  0
    6.0890    2.8990  -21.2240 C   0  0  0  0  0  0  0  0  0  0  0  0
    5.9350    2.9700  -23.7750 C   0  0  0  0  0  0  0  0  0  0  0  0
   -4.6640    3.7560  -25.5820 C   0  0  0  0  0  0  0  0  0  0  0  0
    2.1580    3.5680  -23.7850 C   0  0  0  0  0  0  0  0  0  0  0  0
    1.3540    4.6950  -23.5130 C   0  0  0  0  0  0  0  0  0  0  0  0
    3.1720    5.8860  -22.8780 C   0  0  0  0  0  0  0  0  0  0  0  0
    3.5630    3.7490  -23.4860 C   0  0  0  0  0  0  0  0  0  0  0  0
    1.5930    2.4400  -24.4100 C   0  0  0  0  0  0  0  0  0  0  0  0
   -0.5230    3.2840  -24.3100 C   0  0  0  0  0  0  0  0  0  0  0  0
    0.0240    4.5140  -23.7490 C   0  0  0  0  0  0  0  0  0  0  0  0
   -1.9780    3.2990  -24.6550 C   0  0  0  0  0  0  0  0  0  0  0  0
    4.1370    1.2530  -23.1260 C   0  0  0  0  0  0  0  0  0  0  0  0
    5.0740    0.9170  -21.9760 C   0  0  2  0  0  0  0  0  0  0  0  0
    6.6830    2.4210  -22.5660 C   0  0  2  0  0  0  0  0  0  0  0  0
    5.0770    1.9520  -20.8380 C   0  0  0  0  0  0  0  0  0  0  0  0
   -2.3110    3.4220  -26.0850 C   0  0  0  0  0  0  0  0  0  0  0  0
   -1.5480    2.7780  -21.6970 C   0  0  0  0  0  0  0  0  0  0  0  0
   -0.5190    2.4310  -21.1880 C   0  0  0  0  0  0  0  0  0  0  0  0
   -0.8020    5.5800  -23.4300 F   0  0  0  0  0  0  0  0  0  0  0  0
   -3.7200    3.1400  -20.1640 F   0  0  0  0  0  0  0  0  0  0  0  0
    1.8490    5.8630  -23.0170 N   0  0  0  0  0  0  0  0  0  0  0  0
    4.0540    4.9060  -23.0760 N   0  0  0  0  0  0  0  0  0  0  0  0
    0.2830    2.3590  -24.7050 N   0  0  0  0  0  0  0  0  0  0  0  0
    4.4660    2.6840  -23.6390 N   0  0  0  0  0  0  0  0  0  0  0  0
    6.4780    0.9520  -22.4680 N   0  0  0  0  0  0  0  0  0  0  0  0
   -3.8460    3.5890  -27.8360 O   0  0  0  0  0  0  0  0  0  0  0  0
    4.0970    7.2380  -20.9850 N   0  0  0  0  0  0  0  0  0  0  0  0
    6.6320    8.3930  -22.2130 N   0  0  0  0  0  0  0  0  0  0  0  0
    8.9570    8.2580  -21.5790 N   0  0  0  0  0  0  0  0  0  0  0  0
    4.8440    8.4580  -20.5150 C   0  0  0  0  0  0  0  0  0  0  0  0
    3.7520    7.2310  -22.4520 C   0  0  0  0  0  0  0  0  0  0  0  0
    6.3100    8.3940  -20.9100 C   0  0  0  0  0  0  0  0  0  0  0  0
    7.2570    8.3320  -19.9240 C   0  0  0  0  0  0  0  0  0  0  0  0
    8.5720    8.2650  -20.2940 C   0  0  0  0  0  0  0  0  0  0  0  0
    7.9490    8.3240  -22.4640 C   0  0  0  0  0  0  0  0  0  0  0  0
  1  2  2  0
  1  3  1  0
  2  6  1  0
  3  5  2  0
  3 27  1  0
  4  5  1  0
  4  6  2  0
  4 18  1  0
  5 24  1  0
  6 10  1  0
  7 10  2  0
  7 23  1  0
  7 33  1  0
 21  8  1  1
  8 22  1  0
  9 21  1  0
  9 31  1  0
 11 12  1  0
 11 14  1  0
 11 15  2  0
 12 17  2  0
 12 28  1  0
 13 28  2  0
 13 29  1  0
 13 38  1  0
 14 29  2  0
 14 31  1  0
 15 30  1  0
 16 17  1  0
 16 18  1  0
 16 30  2  0
 17 26  1  0
 18 23  2  0
 20 19  1  6
 19 31  1  0
 20 22  1  0
 20 32  1  0
 21 32  1  0
 24 25  3  0
 34 37  1  0
 34 38  1  0
 35 39  2  0
 35 42  1  0
 36 41  1  0
 36 42  2  0
 37 39  1  0
 39 40  1  0
 40 41  2  0
M  END
>  <s_m_entry_id>  (124) 
563

>  <s_m_entry_name>  (124) 
000000405.1

>  <s_m_Source_Path>  (124) 
/Users/zaksoul/Documents/3r_UNI/2nd_SEMESTER/BSC/FRAG_RECON/RESULTS/2

>  <s_m_Source_File>  (124) 
000000405.mol2

>  <i_m_Source_File_Index>  (124) 
1

$$$$
No_0_430,No_0_431,No_0_432,No_0_433
     RDKit          3D

 42 48  0  0  1  0  0  0  0  0999 V2000
   -5.0990    3.7030  -22.2180 C   0  0  0  0  0  0  0  0  0  0  0  0
   -5.3530    3.8510  -23.5610 C   0  0  0  0  0  0  0  0  0  0  0  0
   -3.8670    3.4440  -21.8590 C   0  0  0  0  0  0  0  0  0  0  0  0
   -2.9590    3.4870  -24.0210 C   0  0  0  0  0  0  0  0  0  0  0  0
   -2.8120    3.2870  -22.5920 C   0  0  0  0  0  0  0  0  0  0  0  0
   -4.2990    3.7510  -24.5600 C   0  0  0  0  0  0  0  0  0  0  0  0
   -3.5270    3.6900  -26.7520 C   0  0  0  0  0  0  0  0  0  0  0  0
    6.1520    2.9950  -21.3910 C   0  0  0  0  0  0  0  0  0  0  0  0
    6.0340    3.0560  -23.9450 C   0  0  0  0  0  0  0  0  0  0  0  0
   -4.5380    3.8380  -25.9010 C   0  0  0  0  0  0  0  0  0  0  0  0
    2.2580    3.6550  -24.0090 C   0  0  0  0  0  0  0  0  0  0  0  0
    1.4500    4.7840  -23.7530 C   0  0  0  0  0  0  0  0  0  0  0  0
    3.2600    5.9760  -23.0980 C   0  0  0  0  0  0  0  0  0  0  0  0
    3.6580    3.8370  -23.6920 C   0  0  0  0  0  0  0  0  0  0  0  0
    1.7010    2.5240  -24.6380 C   0  0  0  0  0  0  0  0  0  0  0  0
   -0.4160    3.3700  -24.5700 C   0  0  0  0  0  0  0  0  0  0  0  0
    0.1240    4.6020  -24.0070 C   0  0  0  0  0  0  0  0  0  0  0  0
   -1.8660    3.3850  -24.9360 C   0  0  0  0  0  0  0  0  0  0  0  0
    4.2270    1.3420  -23.3140 C   0  0  0  0  0  0  0  0  0  0  0  0
    5.1470    1.0110  -22.1490 C   0  0  2  0  0  0  0  0  0  0  0  0
    6.7650    2.5110  -22.7230 C   0  0  2  0  0  0  0  0  0  0  0  0
    5.1350    2.0500  -21.0160 C   0  0  0  0  0  0  0  0  0  0  0  0
   -2.1790    3.5020  -26.3710 C   0  0  0  0  0  0  0  0  0  0  0  0
   -1.4770    2.8750  -21.9700 C   0  0  0  0  0  0  0  0  0  0  0  0
   -0.4550    2.5300  -21.4450 C   0  0  0  0  0  0  0  0  0  0  0  0
   -0.7060    5.6690  -23.7030 F   0  0  0  0  0  0  0  0  0  0  0  0
   -3.6700    3.2440  -20.4680 F   0  0  0  0  0  0  0  0  0  0  0  0
    1.9390    5.9530  -23.2550 N   0  0  0  0  0  0  0  0  0  0  0  0
    4.1440    4.9950  -23.2800 N   0  0  0  0  0  0  0  0  0  0  0  0
    0.3950    2.4430  -24.9500 N   0  0  0  0  0  0  0  0  0  0  0  0
    4.5630    2.7710  -23.8280 N   0  0  0  0  0  0  0  0  0  0  0  0
    6.5580    1.0430  -22.6230 N   0  0  0  0  0  0  0  0  0  0  0  0
   -3.6900    3.6620  -28.1430 O   0  0  0  0  0  0  0  0  0  0  0  0
    3.4990    7.6350  -21.2360 N   0  0  0  0  0  0  0  0  0  0  0  0
    6.2120   10.0420  -21.3250 N   0  0  0  0  0  0  0  0  0  0  0  0
    7.5150    9.7930  -21.0480 N   0  0  0  0  0  0  0  0  0  0  0  0
    3.9940    8.9670  -20.7320 C   0  0  0  0  0  0  0  0  0  0  0  0
    5.5120    9.0670  -20.6880 C   0  0  0  0  0  0  0  0  0  0  0  0
    3.8350    7.3220  -22.6700 C   0  0  0  0  0  0  0  0  0  0  0  0
    5.7420   11.1590  -22.1520 C   0  0  0  0  0  0  0  0  0  0  0  0
    6.3290    8.2370  -20.0300 C   0  0  0  0  0  0  0  0  0  0  0  0
    7.6100    8.7340  -20.2860 C   0  0  0  0  0  0  0  0  0  0  0  0
  1  2  2  0
  1  3  1  0
  2  6  1  0
  3  5  2  0
  3 27  1  0
  4  5  1  0
  4  6  2  0
  4 18  1  0
  5 24  1  0
  6 10  1  0
  7 10  2  0
  7 23  1  0
  7 33  1  0
 21  8  1  1
  8 22  1  0
  9 21  1  0
  9 31  1  0
 11 12  1  0
 11 14  1  0
 11 15  2  0
 12 17  2  0
 12 28  1  0
 13 28  2  0
 13 29  1  0
 13 39  1  0
 14 29  2  0
 14 31  1  0
 15 30  1  0
 16 17  1  0
 16 18  1  0
 16 30  2  0
 17 26  1  0
 18 23  2  0
 20 19  1  6
 19 31  1  0
 20 22  1  0
 20 32  1  0
 21 32  1  0
 24 25  3  0
 34 37  1  0
 34 39  1  0
 35 36  1  0
 35 38  1  0
 35 40  1  0
 36 42  2  0
 37 38  1  0
 38 41  2  0
 41 42  1  0
M  END
>  <s_m_entry_id>  (125) 
567

>  <s_m_entry_name>  (125) 
000000409.1

>  <s_m_Source_Path>  (125) 
/Users/zaksoul/Documents/3r_UNI/2nd_SEMESTER/BSC/FRAG_RECON/RESULTS/2

>  <s_m_Source_File>  (125) 
000000409.mol2

>  <i_m_Source_File_Index>  (125) 
1

$$$$
No_0_434,No_0_435,No_0_436
     RDKit          3D

 42 48  0  0  1  0  0  0  0  0999 V2000
   -5.1550    3.6070  -22.0410 C   0  0  0  0  0  0  0  0  0  0  0  0
   -5.4280    3.8000  -23.3750 C   0  0  0  0  0  0  0  0  0  0  0  0
   -3.9160    3.3530  -21.7070 C   0  0  0  0  0  0  0  0  0  0  0  0
   -3.0350    3.4840  -23.8760 C   0  0  0  0  0  0  0  0  0  0  0  0
   -2.8670    3.2360  -22.4570 C   0  0  0  0  0  0  0  0  0  0  0  0
   -4.3840    3.7490  -24.3900 C   0  0  0  0  0  0  0  0  0  0  0  0
   -3.6400    3.7760  -26.5920 C   0  0  0  0  0  0  0  0  0  0  0  0
    6.1140    3.0220  -21.3740 C   0  0  0  0  0  0  0  0  0  0  0  0
    5.9630    3.1720  -23.9230 C   0  0  0  0  0  0  0  0  0  0  0  0
   -4.6420    3.8800  -25.7240 C   0  0  0  0  0  0  0  0  0  0  0  0
    2.1790    3.7220  -23.9210 C   0  0  0  0  0  0  0  0  0  0  0  0
    1.3600    4.8300  -23.6150 C   0  0  0  0  0  0  0  0  0  0  0  0
    3.1620    6.0230  -22.9400 C   0  0  0  0  0  0  0  0  0  0  0  0
    3.5810    3.9110  -23.6140 C   0  0  0  0  0  0  0  0  0  0  0  0
    1.6290    2.6070  -24.5820 C   0  0  0  0  0  0  0  0  0  0  0  0
   -0.4980    3.4210  -24.4600 C   0  0  0  0  0  0  0  0  0  0  0  0
    0.0330    4.6390  -23.8600 C   0  0  0  0  0  0  0  0  0  0  0  0
   -1.9520    3.4290  -24.8070 C   0  0  0  0  0  0  0  0  0  0  0  0
    4.1860    1.4120  -23.3310 C   0  0  0  0  0  0  0  0  0  0  0  0
    5.1250    1.0530  -22.1900 C   0  0  2  0  0  0  0  0  0  0  0  0
    6.7160    2.5940  -22.7300 C   0  0  2  0  0  0  0  0  0  0  0  0
    5.1130    2.0510  -21.0200 C   0  0  0  0  0  0  0  0  0  0  0  0
   -2.2840    3.5920  -26.2330 C   0  0  0  0  0  0  0  0  0  0  0  0
   -1.5200    2.8200  -21.8660 C   0  0  0  0  0  0  0  0  0  0  0  0
   -0.4880    2.4710  -21.3660 C   0  0  0  0  0  0  0  0  0  0  0  0
   -0.8070    5.6840  -23.5080 F   0  0  0  0  0  0  0  0  0  0  0  0
   -3.6990    3.1060  -20.3260 F   0  0  0  0  0  0  0  0  0  0  0  0
    1.8400    5.9870  -23.0820 N   0  0  0  0  0  0  0  0  0  0  0  0
    4.0570    5.0600  -23.1670 N   0  0  0  0  0  0  0  0  0  0  0  0
    0.3210    2.5190  -24.8820 N   0  0  0  0  0  0  0  0  0  0  0  0
    4.4970    2.8630  -23.7980 N   0  0  0  0  0  0  0  0  0  0  0  0
    6.5300    1.1200  -22.6790 N   0  0  0  0  0  0  0  0  0  0  0  0
   -3.8190    3.7950  -27.9810 O   0  0  0  0  0  0  0  0  0  0  0  0
    4.3960    7.2260  -21.1290 N   0  0  0  0  0  0  0  0  0  0  0  0
    7.1120    8.4910  -22.0780 N   0  0  0  0  0  0  0  0  0  0  0  0
    8.7120    8.6400  -20.6000 N   0  0  0  0  0  0  0  0  0  0  0  0
    5.0230    8.4900  -20.5940 C   0  0  0  0  0  0  0  0  0  0  0  0
    7.5170    8.6280  -19.9630 C   0  0  0  0  0  0  0  0  0  0  0  0
    3.7240    7.3610  -22.4710 C   0  0  0  0  0  0  0  0  0  0  0  0
   10.0380    8.7360  -19.9820 C   0  0  0  0  0  0  0  0  0  0  0  0
    8.4200    8.5520  -21.9170 C   0  0  0  0  0  0  0  0  0  0  0  0
    6.5200    8.5380  -20.8430 C   0  0  0  0  0  0  0  0  0  0  0  0
  1  2  2  0
  1  3  1  0
  2  6  1  0
  3  5  2  0
  3 27  1  0
  4  5  1  0
  4  6  2  0
  4 18  1  0
  5 24  1  0
  6 10  1  0
  7 10  2  0
  7 23  1  0
  7 33  1  0
 21  8  1  1
  8 22  1  0
  9 21  1  0
  9 31  1  0
 11 12  1  0
 11 14  1  0
 11 15  2  0
 12 17  2  0
 12 28  1  0
 13 28  2  0
 13 29  1  0
 13 39  1  0
 14 29  2  0
 14 31  1  0
 15 30  1  0
 16 17  1  0
 16 18  1  0
 16 30  2  0
 17 26  1  0
 18 23  2  0
 20 19  1  6
 19 31  1  0
 20 22  1  0
 20 32  1  0
 21 32  1  0
 24 25  3  0
 34 37  1  0
 34 39  1  0
 35 41  2  0
 35 42  1  0
 36 38  1  0
 36 40  1  0
 36 41  1  0
 37 42  1  0
 38 42  2  0
M  CHG  1  34   1
M  END
>  <s_m_entry_id>  (126) 
571

>  <s_m_entry_name>  (126) 
000000413.1

>  <s_m_Source_Path>  (126) 
/Users/zaksoul/Documents/3r_UNI/2nd_SEMESTER/BSC/FRAG_RECON/RESULTS/2

>  <s_m_Source_File>  (126) 
000000413.mol2

>  <i_m_Source_File_Index>  (126) 
1

$$$$
No_0_437,No_0_438,No_0_439,No_0_440,No_0_441,No_0_442,No_0_443,No_0_444,No_0_445
     RDKit          3D

 41 47  0  0  1  0  0  0  0  0999 V2000
   -5.1810    3.6090  -21.8530 C   0  0  0  0  0  0  0  0  0  0  0  0
   -5.4520    3.8050  -23.1860 C   0  0  0  0  0  0  0  0  0  0  0  0
   -3.9420    3.3510  -21.5190 C   0  0  0  0  0  0  0  0  0  0  0  0
   -3.0590    3.4860  -23.6870 C   0  0  0  0  0  0  0  0  0  0  0  0
   -2.8930    3.2340  -22.2690 C   0  0  0  0  0  0  0  0  0  0  0  0
   -4.4090    3.7540  -24.2010 C   0  0  0  0  0  0  0  0  0  0  0  0
   -3.6630    3.7850  -26.4030 C   0  0  0  0  0  0  0  0  0  0  0  0
    6.0870    3.0010  -21.1820 C   0  0  0  0  0  0  0  0  0  0  0  0
    5.9380    3.1560  -23.7310 C   0  0  0  0  0  0  0  0  0  0  0  0
   -4.6650    3.8890  -25.5350 C   0  0  0  0  0  0  0  0  0  0  0  0
    2.1540    3.7130  -23.7290 C   0  0  0  0  0  0  0  0  0  0  0  0
    1.3370    4.8230  -23.4210 C   0  0  0  0  0  0  0  0  0  0  0  0
    3.1410    6.0110  -22.7430 C   0  0  0  0  0  0  0  0  0  0  0  0
    3.5570    3.8990  -23.4210 C   0  0  0  0  0  0  0  0  0  0  0  0
    1.6030    2.6010  -24.3930 C   0  0  0  0  0  0  0  0  0  0  0  0
   -0.5220    3.4190  -24.2700 C   0  0  0  0  0  0  0  0  0  0  0  0
    0.0100    4.6350  -23.6670 C   0  0  0  0  0  0  0  0  0  0  0  0
   -1.9770    3.4300  -24.6180 C   0  0  0  0  0  0  0  0  0  0  0  0
    4.1570    1.3990  -23.1440 C   0  0  0  0  0  0  0  0  0  0  0  0
    5.0950    1.0350  -22.0030 C   0  0  2  0  0  0  0  0  0  0  0  0
    6.6890    2.5740  -22.5390 C   0  0  2  0  0  0  0  0  0  0  0  0
    5.0840    2.0310  -20.8310 C   0  0  0  0  0  0  0  0  0  0  0  0
   -2.3080    3.5970  -26.0440 C   0  0  0  0  0  0  0  0  0  0  0  0
   -1.5470    2.8150  -21.6780 C   0  0  0  0  0  0  0  0  0  0  0  0
   -0.5150    2.4620  -21.1780 C   0  0  0  0  0  0  0  0  0  0  0  0
   -0.8280    5.6800  -23.3140 F   0  0  0  0  0  0  0  0  0  0  0  0
   -3.7260    3.1020  -20.1390 F   0  0  0  0  0  0  0  0  0  0  0  0
    1.8200    5.9780  -22.8860 N   0  0  0  0  0  0  0  0  0  0  0  0
    4.0350    5.0470  -22.9720 N   0  0  0  0  0  0  0  0  0  0  0  0
    0.2950    2.5160  -24.6930 N   0  0  0  0  0  0  0  0  0  0  0  0
    4.4710    2.8500  -23.6070 N   0  0  0  0  0  0  0  0  0  0  0  0
    6.5000    1.1010  -22.4910 N   0  0  0  0  0  0  0  0  0  0  0  0
   -3.8410    3.8060  -27.7920 O   0  0  0  0  0  0  0  0  0  0  0  0
    4.0480    7.3100  -20.8050 N   0  0  0  0  0  0  0  0  0  0  0  0
    8.3130    8.6990  -20.7480 N   0  0  0  0  0  0  0  0  0  0  0  0
    7.8860    9.6070  -21.6520 N   0  0  0  0  0  0  0  0  0  0  0  0
    4.6200    8.5880  -20.2450 C   0  0  0  0  0  0  0  0  0  0  0  0
    3.7060    7.3460  -22.2710 C   0  0  0  0  0  0  0  0  0  0  0  0
    7.1750    8.2500  -20.1610 C   0  0  0  0  0  0  0  0  0  0  0  0
    6.5830    9.6950  -21.6110 C   0  0  0  0  0  0  0  0  0  0  0  0
    6.0660    8.8220  -20.6470 C   0  0  0  0  0  0  0  0  0  0  0  0
  1  2  2  0
  1  3  1  0
  2  6  1  0
  3  5  2  0
  3 27  1  0
  4  5  1  0
  4  6  2  0
  4 18  1  0
  5 24  1  0
  6 10  1  0
  7 10  2  0
  7 23  1  0
  7 33  1  0
 21  8  1  1
  8 22  1  0
  9 21  1  0
  9 31  1  0
 11 12  1  0
 11 14  1  0
 11 15  2  0
 12 17  2  0
 12 28  1  0
 13 28  2  0
 13 29  1  0
 13 38  1  0
 14 29  2  0
 14 31  1  0
 15 30  1  0
 16 17  1  0
 16 18  1  0
 16 30  2  0
 17 26  1  0
 18 23  2  0
 20 19  1  6
 19 31  1  0
 20 22  1  0
 20 32  1  0
 21 32  1  0
 24 25  3  0
 34 37  1  0
 34 38  1  0
 35 36  1  0
 35 39  1  0
 36 40  2  0
 37 41  1  0
 39 41  2  0
 40 41  1  0
M  END
>  <s_m_entry_id>  (127) 
574

>  <s_m_entry_name>  (127) 
000000416.1

>  <s_m_Source_Path>  (127) 
/Users/zaksoul/Documents/3r_UNI/2nd_SEMESTER/BSC/FRAG_RECON/RESULTS/2

>  <s_m_Source_File>  (127) 
000000416.mol2

>  <i_m_Source_File_Index>  (127) 
1

$$$$
No_0_446,No_0_447
     RDKit          3D

 45 52  0  0  1  0  0  0  0  0999 V2000
   -5.2560    3.6710  -21.5970 C   0  0  0  0  0  0  0  0  0  0  0  0
   -5.5650    3.8390  -22.9260 C   0  0  0  0  0  0  0  0  0  0  0  0
   -4.0140    3.3900  -21.2950 C   0  0  0  0  0  0  0  0  0  0  0  0
   -3.1990    3.4450  -23.4930 C   0  0  0  0  0  0  0  0  0  0  0  0
   -2.9930    3.2260  -22.0740 C   0  0  0  0  0  0  0  0  0  0  0  0
   -4.5560    3.7350  -23.9710 C   0  0  0  0  0  0  0  0  0  0  0  0
   -3.8810    3.6890  -26.1950 C   0  0  0  0  0  0  0  0  0  0  0  0
    6.0080    2.7880  -21.2650 C   0  0  0  0  0  0  0  0  0  0  0  0
    5.7810    2.8810  -23.8110 C   0  0  0  0  0  0  0  0  0  0  0  0
   -4.8520    3.8410  -25.3000 C   0  0  0  0  0  0  0  0  0  0  0  0
    2.0150    3.5360  -23.7050 C   0  0  0  0  0  0  0  0  0  0  0  0
    1.2370    4.6740  -23.4010 C   0  0  0  0  0  0  0  0  0  0  0  0
    3.0910    5.8320  -22.8130 C   0  0  0  0  0  0  0  0  0  0  0  0
    3.4310    3.6930  -23.4460 C   0  0  0  0  0  0  0  0  0  0  0  0
    1.4140    2.4210  -24.3210 C   0  0  0  0  0  0  0  0  0  0  0  0
   -0.6840    3.2970  -24.1530 C   0  0  0  0  0  0  0  0  0  0  0  0
   -0.1020    4.5140  -23.6000 C   0  0  0  0  0  0  0  0  0  0  0  0
   -2.1480    3.3370  -24.4550 C   0  0  0  0  0  0  0  0  0  0  0  0
    3.9770    1.1860  -23.1210 C   0  0  0  0  0  0  0  0  0  0  0  0
    4.9410    0.8280  -22.0010 C   0  0  2  0  0  0  0  0  0  0  0  0
    6.5560    2.3110  -22.6280 C   0  0  2  0  0  0  0  0  0  0  0  0
    4.9940    1.8540  -20.8560 C   0  0  0  0  0  0  0  0  0  0  0  0
   -2.5210    3.4760  -25.8740 C   0  0  0  0  0  0  0  0  0  0  0  0
   -1.6400    2.7870  -21.5150 C   0  0  0  0  0  0  0  0  0  0  0  0
   -0.6020    2.4210  -21.0390 C   0  0  0  0  0  0  0  0  0  0  0  0
   -0.9020    5.5900  -23.2490 F   0  0  0  0  0  0  0  0  0  0  0  0
   -3.7600    3.1700  -19.9160 F   0  0  0  0  0  0  0  0  0  0  0  0
    1.7650    5.8290  -22.9130 N   0  0  0  0  0  0  0  0  0  0  0  0
    3.9520    4.8390  -23.0430 N   0  0  0  0  0  0  0  0  0  0  0  0
    0.0960    2.3630  -24.5780 N   0  0  0  0  0  0  0  0  0  0  0  0
    4.3120    2.6160  -23.6330 N   0  0  0  0  0  0  0  0  0  0  0  0
    6.3310    0.8450  -22.5350 N   0  0  0  0  0  0  0  0  0  0  0  0
   -4.1040    3.6790  -27.5780 O   0  0  0  0  0  0  0  0  0  0  0  0
    4.7000    6.9580  -21.2860 N   0  0  0  0  0  0  0  0  0  0  0  0
    7.8420    8.0550  -20.4650 N   0  0  0  0  0  0  0  0  0  0  0  0
    8.5120    8.9290  -22.3840 N   0  0  0  0  0  0  0  0  0  0  0  0
    6.7550    8.4070  -21.2100 C   0  0  0  0  0  0  0  0  0  0  0  0
    3.7040    7.1640  -22.3940 C   0  0  0  0  0  0  0  0  0  0  0  0
    5.3200    8.2200  -20.7410 C   0  0  0  0  0  0  0  0  0  0  0  0
    8.9190    8.4030  -21.2250 C   0  0  0  0  0  0  0  0  0  0  0  0
    7.9840    7.4770  -19.2170 C   0  0  0  0  0  0  0  0  0  0  0  0
   10.2310    8.1900  -20.7380 C   0  0  0  0  0  0  0  0  0  0  0  0
    7.1490    8.9330  -22.3750 C   0  0  0  0  0  0  0  0  0  0  0  0
    9.2210    7.2670  -18.7440 C   0  0  0  0  0  0  0  0  0  0  0  0
   10.3620    7.6330  -19.5180 C   0  0  0  0  0  0  0  0  0  0  0  0
  1  2  2  0
  1  3  1  0
  2  6  1  0
  3  5  2  0
  3 27  1  0
  4  5  1  0
  4  6  2  0
  4 18  1  0
  5 24  1  0
  6 10  1  0
  7 10  2  0
  7 23  1  0
  7 33  1  0
 21  8  1  1
  8 22  1  0
  9 21  1  0
  9 31  1  0
 11 12  1  0
 11 14  1  0
 11 15  2  0
 12 17  2  0
 12 28  1  0
 13 28  2  0
 13 29  1  0
 13 38  1  0
 14 29  2  0
 14 31  1  0
 15 30  1  0
 16 17  1  0
 16 18  1  0
 16 30  2  0
 17 26  1  0
 18 23  2  0
 20 19  1  6
 19 31  1  0
 20 22  1  0
 20 32  1  0
 21 32  1  0
 24 25  3  0
 34 38  1  0
 34 39  1  0
 35 37  1  0
 35 40  1  0
 35 41  1  0
 36 40  2  0
 36 43  1  0
 37 39  1  0
 37 43  2  0
 40 42  1  0
 41 44  2  0
 42 45  2  0
 44 45  1  0
M  END
>  <s_m_entry_id>  (128) 
583

>  <s_m_entry_name>  (128) 
000000425.1

>  <s_m_Source_Path>  (128) 
/Users/zaksoul/Documents/3r_UNI/2nd_SEMESTER/BSC/FRAG_RECON/RESULTS/2

>  <s_m_Source_File>  (128) 
000000425.mol2

>  <i_m_Source_File_Index>  (128) 
1

$$$$
No_0_448,No_0_449,No_0_450
     RDKit          3D

 45 52  0  0  1  0  0  0  0  0999 V2000
   -5.4000    3.5390  -22.0430 C   0  0  0  0  0  0  0  0  0  0  0  0
   -5.6590    3.7450  -23.3770 C   0  0  0  0  0  0  0  0  0  0  0  0
   -4.1640    3.2760  -21.7000 C   0  0  0  0  0  0  0  0  0  0  0  0
   -3.2630    3.4240  -23.8600 C   0  0  0  0  0  0  0  0  0  0  0  0
   -3.1090    3.1610  -22.4420 C   0  0  0  0  0  0  0  0  0  0  0  0
   -4.6070    3.6990  -24.3840 C   0  0  0  0  0  0  0  0  0  0  0  0
   -3.8430    3.7440  -26.5780 C   0  0  0  0  0  0  0  0  0  0  0  0
    5.8610    2.9000  -21.2830 C   0  0  0  0  0  0  0  0  0  0  0  0
    5.7330    3.0740  -23.8310 C   0  0  0  0  0  0  0  0  0  0  0  0
   -4.8520    3.8440  -25.7180 C   0  0  0  0  0  0  0  0  0  0  0  0
    1.9510    3.6400  -23.8570 C   0  0  0  0  0  0  0  0  0  0  0  0
    1.1340    4.7480  -23.5480 C   0  0  0  0  0  0  0  0  0  0  0  0
    2.9350    5.9270  -22.8460 C   0  0  0  0  0  0  0  0  0  0  0  0
    3.3510    3.8200  -23.5360 C   0  0  0  0  0  0  0  0  0  0  0  0
    1.4030    2.5330  -24.5340 C   0  0  0  0  0  0  0  0  0  0  0  0
   -0.7210    3.3550  -24.4220 C   0  0  0  0  0  0  0  0  0  0  0  0
   -0.1910    4.5660  -23.8060 C   0  0  0  0  0  0  0  0  0  0  0  0
   -2.1730    3.3730  -24.7820 C   0  0  0  0  0  0  0  0  0  0  0  0
    3.9440    1.3160  -23.2720 C   0  0  0  0  0  0  0  0  0  0  0  0
    4.8710    0.9420  -22.1260 C   0  0  2  0  0  0  0  0  0  0  0  0
    6.4740    2.4810  -22.6370 C   0  0  2  0  0  0  0  0  0  0  0  0
    4.8530    1.9290  -20.9470 C   0  0  0  0  0  0  0  0  0  0  0  0
   -2.4920    3.5510  -26.2090 C   0  0  0  0  0  0  0  0  0  0  0  0
   -1.7700    2.7350  -21.8430 C   0  0  0  0  0  0  0  0  0  0  0  0
   -0.7430    2.3760  -21.3380 C   0  0  0  0  0  0  0  0  0  0  0  0
   -1.0300    5.6110  -23.4520 F   0  0  0  0  0  0  0  0  0  0  0  0
   -3.9600    3.0150  -20.3200 F   0  0  0  0  0  0  0  0  0  0  0  0
    1.6150    5.8990  -23.0000 N   0  0  0  0  0  0  0  0  0  0  0  0
    3.8280    4.9630  -23.0740 N   0  0  0  0  0  0  0  0  0  0  0  0
    0.0970    2.4540  -24.8450 N   0  0  0  0  0  0  0  0  0  0  0  0
    4.2650    2.7700  -23.7220 N   0  0  0  0  0  0  0  0  0  0  0  0
    6.2800    1.0080  -22.6020 N   0  0  0  0  0  0  0  0  0  0  0  0
   -4.0100    3.7760  -27.9690 O   0  0  0  0  0  0  0  0  0  0  0  0
    3.8300    7.2120  -20.8890 N   0  0  0  0  0  0  0  0  0  0  0  0
    6.8840    7.8430  -20.2950 N   0  0  0  0  0  0  0  0  0  0  0  0
    7.7220    9.4050  -21.6110 N   0  0  0  0  0  0  0  0  0  0  0  0
    9.3310    6.6460  -19.8050 N   0  0  0  0  0  0  0  0  0  0  0  0
    5.8820    8.6520  -20.7260 C   0  0  0  0  0  0  0  0  0  0  0  0
    3.4990    7.2580  -22.3590 C   0  0  0  0  0  0  0  0  0  0  0  0
    4.4260    8.4760  -20.3280 C   0  0  0  0  0  0  0  0  0  0  0  0
    8.0130    8.3370  -20.8570 C   0  0  0  0  0  0  0  0  0  0  0  0
    6.9410    6.7410  -19.4850 C   0  0  0  0  0  0  0  0  0  0  0  0
    6.3800    9.6040  -21.5290 C   0  0  0  0  0  0  0  0  0  0  0  0
    9.2430    7.7130  -20.5910 C   0  0  0  0  0  0  0  0  0  0  0  0
    8.1470    6.1800  -19.2650 C   0  0  0  0  0  0  0  0  0  0  0  0
  1  2  2  0
  1  3  1  0
  2  6  1  0
  3  5  2  0
  3 27  1  0
  4  5  1  0
  4  6  2  0
  4 18  1  0
  5 24  1  0
  6 10  1  0
  7 10  2  0
  7 23  1  0
  7 33  1  0
 21  8  1  1
  8 22  1  0
  9 21  1  0
  9 31  1  0
 11 12  1  0
 11 14  1  0
 11 15  2  0
 12 17  2  0
 12 28  1  0
 13 28  2  0
 13 29  1  0
 13 39  1  0
 14 29  2  0
 14 31  1  0
 15 30  1  0
 16 17  1  0
 16 18  1  0
 16 30  2  0
 17 26  1  0
 18 23  2  0
 20 19  1  6
 19 31  1  0
 20 22  1  0
 20 32  1  0
 21 32  1  0
 24 25  3  0
 34 39  1  0
 34 40  1  0
 35 38  1  0
 35 41  1  0
 35 42  1  0
 36 41  2  0
 36 43  1  0
 37 44  2  0
 37 45  1  0
 38 40  1  0
 38 43  2  0
 41 44  1  0
 42 45  2  0
M  END
>  <s_m_entry_id>  (129) 
585

>  <s_m_entry_name>  (129) 
000000427.1

>  <s_m_Source_Path>  (129) 
/Users/zaksoul/Documents/3r_UNI/2nd_SEMESTER/BSC/FRAG_RECON/RESULTS/2

>  <s_m_Source_File>  (129) 
000000427.mol2

>  <i_m_Source_File_Index>  (129) 
1

$$$$
No_0_451,No_0_452,No_0_453
     RDKit          3D

 43 49  0  0  1  0  0  0  0  0999 V2000
   -5.0550    3.4790  -21.6310 C   0  0  0  0  0  0  0  0  0  0  0  0
   -5.3710    3.6440  -22.9590 C   0  0  0  0  0  0  0  0  0  0  0  0
   -3.8060    3.2260  -21.3330 C   0  0  0  0  0  0  0  0  0  0  0  0
   -2.9970    3.3080  -23.5330 C   0  0  0  0  0  0  0  0  0  0  0  0
   -2.7830    3.0900  -22.1160 C   0  0  0  0  0  0  0  0  0  0  0  0
   -4.3630    3.5680  -24.0070 C   0  0  0  0  0  0  0  0  0  0  0  0
   -3.6930    3.5450  -26.2330 C   0  0  0  0  0  0  0  0  0  0  0  0
    6.2280    2.8620  -21.3310 C   0  0  0  0  0  0  0  0  0  0  0  0
    5.9930    2.9570  -23.8750 C   0  0  0  0  0  0  0  0  0  0  0  0
   -4.6650    3.6720  -25.3340 C   0  0  0  0  0  0  0  0  0  0  0  0
    2.2120    3.5230  -23.7580 C   0  0  0  0  0  0  0  0  0  0  0  0
    1.4080    4.6410  -23.4480 C   0  0  0  0  0  0  0  0  0  0  0  0
    3.2360    5.8400  -22.8600 C   0  0  0  0  0  0  0  0  0  0  0  0
    3.6240    3.7130  -23.5020 C   0  0  0  0  0  0  0  0  0  0  0  0
    1.6360    2.3970  -24.3770 C   0  0  0  0  0  0  0  0  0  0  0  0
   -0.4820    3.2220  -24.2000 C   0  0  0  0  0  0  0  0  0  0  0  0
    0.0730    4.4510  -23.6440 C   0  0  0  0  0  0  0  0  0  0  0  0
   -1.9470    3.2290  -24.4990 C   0  0  0  0  0  0  0  0  0  0  0  0
    4.2300    1.2180  -23.1870 C   0  0  0  0  0  0  0  0  0  0  0  0
    5.2060    0.8790  -22.0700 C   0  0  2  0  0  0  0  0  0  0  0  0
    6.7830    2.4020  -22.6960 C   0  0  2  0  0  0  0  0  0  0  0  0
    5.2370    1.9020  -20.9220 C   0  0  0  0  0  0  0  0  0  0  0  0
   -2.3270    3.3630  -25.9160 C   0  0  0  0  0  0  0  0  0  0  0  0
   -1.4190    2.6810  -21.5610 C   0  0  0  0  0  0  0  0  0  0  0  0
   -0.3710    2.3380  -21.0890 C   0  0  0  0  0  0  0  0  0  0  0  0
   -0.7510    5.5060  -23.2880 F   0  0  0  0  0  0  0  0  0  0  0  0
   -3.5430    3.0090  -19.9560 F   0  0  0  0  0  0  0  0  0  0  0  0
    1.9100    5.8070  -22.9570 N   0  0  0  0  0  0  0  0  0  0  0  0
    4.1190    4.8700  -23.0960 N   0  0  0  0  0  0  0  0  0  0  0  0
    0.3190    2.3080  -24.6300 N   0  0  0  0  0  0  0  0  0  0  0  0
    4.5310    2.6580  -23.6950 N   0  0  0  0  0  0  0  0  0  0  0  0
    6.5930    0.9300  -22.6080 N   0  0  0  0  0  0  0  0  0  0  0  0
   -3.9180    3.5350  -27.6150 O   0  0  0  0  0  0  0  0  0  0  0  0
   10.7110    8.4320  -21.4390 O   0  0  0  0  0  0  0  0  0  0  0  0
    4.5340    7.0760  -21.1180 N   0  0  0  0  0  0  0  0  0  0  0  0
    8.5910    8.3060  -22.3330 N   0  0  0  0  0  0  0  0  0  0  0  0
    6.7010    8.3570  -20.8450 C   0  0  0  0  0  0  0  0  0  0  0  0
    3.8180    7.1850  -22.4390 C   0  0  0  0  0  0  0  0  0  0  0  0
    5.1920    8.3480  -20.6390 C   0  0  0  0  0  0  0  0  0  0  0  0
    8.8840    8.4630  -19.9470 C   0  0  0  0  0  0  0  0  0  0  0  0
    7.5340    8.4420  -19.7530 C   0  0  0  0  0  0  0  0  0  0  0  0
    7.2610    8.2920  -22.0970 C   0  0  0  0  0  0  0  0  0  0  0  0
    9.3730    8.3980  -21.2380 C   0  0  0  0  0  0  0  0  0  0  0  0
  1  2  2  0
  1  3  1  0
  2  6  1  0
  3  5  2  0
  3 27  1  0
  4  5  1  0
  4  6  2  0
  4 18  1  0
  5 24  1  0
  6 10  1  0
  7 10  2  0
  7 23  1  0
  7 33  1  0
 21  8  1  1
  8 22  1  0
  9 21  1  0
  9 31  1  0
 11 12  1  0
 11 14  1  0
 11 15  2  0
 12 17  2  0
 12 28  1  0
 13 28  2  0
 13 29  1  0
 13 38  1  0
 14 29  2  0
 14 31  1  0
 15 30  1  0
 16 17  1  0
 16 18  1  0
 16 30  2  0
 17 26  1  0
 18 23  2  0
 20 19  1  6
 19 31  1  0
 20 22  1  0
 20 32  1  0
 21 32  1  0
 24 25  3  0
 34 43  2  0
 35 38  1  0
 35 39  1  0
 36 42  1  0
 36 43  1  0
 37 39  1  0
 37 41  1  0
 37 42  2  0
 40 41  2  0
 40 43  1  0
M  END
>  <s_m_entry_id>  (130) 
588

>  <s_m_entry_name>  (130) 
000000430.1

>  <s_m_Source_Path>  (130) 
/Users/zaksoul/Documents/3r_UNI/2nd_SEMESTER/BSC/FRAG_RECON/RESULTS/2

>  <s_m_Source_File>  (130) 
000000430.mol2

>  <i_m_Source_File_Index>  (130) 
1

$$$$
No_0_454
     RDKit          3D

 43 49  0  0  1  0  0  0  0  0999 V2000
   -5.3740    3.5930  -21.9500 C   0  0  0  0  0  0  0  0  0  0  0  0
   -5.6510    3.7300  -23.2900 C   0  0  0  0  0  0  0  0  0  0  0  0
   -4.1340    3.3520  -21.6090 C   0  0  0  0  0  0  0  0  0  0  0  0
   -3.2590    3.3950  -23.7840 C   0  0  0  0  0  0  0  0  0  0  0  0
   -3.0870    3.2050  -22.3570 C   0  0  0  0  0  0  0  0  0  0  0  0
   -4.6100    3.6380  -24.3050 C   0  0  0  0  0  0  0  0  0  0  0  0
   -3.8710    3.5750  -26.5080 C   0  0  0  0  0  0  0  0  0  0  0  0
    5.8970    3.0400  -21.2910 C   0  0  0  0  0  0  0  0  0  0  0  0
    5.7390    3.0840  -23.8430 C   0  0  0  0  0  0  0  0  0  0  0  0
   -4.8710    3.7140  -25.6420 C   0  0  0  0  0  0  0  0  0  0  0  0
    1.9550    3.6320  -23.8530 C   0  0  0  0  0  0  0  0  0  0  0  0
    1.1360    4.7520  -23.5910 C   0  0  0  0  0  0  0  0  0  0  0  0
    2.9390    5.9720  -22.9710 C   0  0  0  0  0  0  0  0  0  0  0  0
    3.3570    3.8340  -23.5580 C   0  0  0  0  0  0  0  0  0  0  0  0
    1.4030    2.4910  -24.4670 C   0  0  0  0  0  0  0  0  0  0  0  0
   -0.7230    3.3090  -24.3720 C   0  0  0  0  0  0  0  0  0  0  0  0
   -0.1920    4.5510  -23.8240 C   0  0  0  0  0  0  0  0  0  0  0  0
   -2.1790    3.3020  -24.7150 C   0  0  0  0  0  0  0  0  0  0  0  0
    3.9650    1.3490  -23.1750 C   0  0  0  0  0  0  0  0  0  0  0  0
    4.9070    1.0380  -22.0220 C   0  0  2  0  0  0  0  0  0  0  0  0
    6.4960    2.5560  -22.6300 C   0  0  2  0  0  0  0  0  0  0  0  0
    4.8980    2.0830  -20.8950 C   0  0  0  0  0  0  0  0  0  0  0  0
   -2.5150    3.4060  -26.1460 C   0  0  0  0  0  0  0  0  0  0  0  0
   -1.7390    2.8150  -21.7530 C   0  0  0  0  0  0  0  0  0  0  0  0
   -0.7040    2.4860  -21.2420 C   0  0  0  0  0  0  0  0  0  0  0  0
   -1.0310    5.6090  -23.5130 F   0  0  0  0  0  0  0  0  0  0  0  0
   -3.9130    3.1630  -20.2200 F   0  0  0  0  0  0  0  0  0  0  0  0
    1.6170    5.9300  -23.1080 N   0  0  0  0  0  0  0  0  0  0  0  0
    3.8340    5.0010  -23.1600 N   0  0  0  0  0  0  0  0  0  0  0  0
    0.0940    2.3900  -24.7590 N   0  0  0  0  0  0  0  0  0  0  0  0
    4.2740    2.7800  -23.7020 N   0  0  0  0  0  0  0  0  0  0  0  0
    6.3100    1.0860  -22.5180 N   0  0  0  0  0  0  0  0  0  0  0  0
   -4.0550    3.5360  -27.8960 O   0  0  0  0  0  0  0  0  0  0  0  0
    4.1140    7.2640  -21.1820 N   0  0  0  0  0  0  0  0  0  0  0  0
    7.0370    8.9400  -20.9070 N   0  0  0  0  0  0  0  0  0  0  0  0
    7.0510   10.3030  -22.6170 N   0  0  0  0  0  0  0  0  0  0  0  0
    4.5370    8.5860  -20.5970 C   0  0  0  0  0  0  0  0  0  0  0  0
    5.7540    9.1800  -21.2860 C   0  0  0  0  0  0  0  0  0  0  0  0
    3.5020    7.3280  -22.5580 C   0  0  0  0  0  0  0  0  0  0  0  0
    7.4890    8.0860  -19.8000 C   0  0  0  0  0  0  0  0  0  0  0  0
    7.8140    9.6630  -21.7520 C   0  0  0  0  0  0  0  0  0  0  0  0
    5.7470   10.0060  -22.3310 C   0  0  0  0  0  0  0  0  0  0  0  0
    9.3270    9.7390  -21.7180 C   0  0  0  0  0  0  0  0  0  0  0  0
  1  2  2  0
  1  3  1  0
  2  6  1  0
  3  5  2  0
  3 27  1  0
  4  5  1  0
  4  6  2  0
  4 18  1  0
  5 24  1  0
  6 10  1  0
  7 10  2  0
  7 23  1  0
  7 33  1  0
 21  8  1  1
  8 22  1  0
  9 21  1  0
  9 31  1  0
 11 12  1  0
 11 14  1  0
 11 15  2  0
 12 17  2  0
 12 28  1  0
 13 28  2  0
 13 29  1  0
 13 39  1  0
 14 29  2  0
 14 31  1  0
 15 30  1  0
 16 17  1  0
 16 18  1  0
 16 30  2  0
 17 26  1  0
 18 23  2  0
 20 19  1  6
 19 31  1  0
 20 22  1  0
 20 32  1  0
 21 32  1  0
 24 25  3  0
 34 37  1  0
 34 39  1  0
 35 38  1  0
 35 40  1  0
 35 41  1  0
 36 41  1  0
 36 42  1  0
 37 38  1  0
 38 42  2  0
 41 43  1  0
M  END
>  <s_m_entry_id>  (131) 
591

>  <s_m_entry_name>  (131) 
000000433.1

>  <s_m_Source_Path>  (131) 
/Users/zaksoul/Documents/3r_UNI/2nd_SEMESTER/BSC/FRAG_RECON/RESULTS/2

>  <s_m_Source_File>  (131) 
000000433.mol2

>  <i_m_Source_File_Index>  (131) 
1

$$$$
No_0_455
     RDKit          3D

 44 50  0  0  1  0  0  0  0  0999 V2000
   -5.2510    3.4610  -21.7140 C   0  0  0  0  0  0  0  0  0  0  0  0
   -5.5610    3.6600  -23.0380 C   0  0  0  0  0  0  0  0  0  0  0  0
   -3.9990    3.2230  -21.4140 C   0  0  0  0  0  0  0  0  0  0  0  0
   -3.1770    3.3880  -23.6040 C   0  0  0  0  0  0  0  0  0  0  0  0
   -2.9690    3.1300  -22.1920 C   0  0  0  0  0  0  0  0  0  0  0  0
   -4.5440    3.6350  -24.0810 C   0  0  0  0  0  0  0  0  0  0  0  0
   -3.8570    3.6940  -26.3000 C   0  0  0  0  0  0  0  0  0  0  0  0
    6.0400    3.0530  -21.3440 C   0  0  0  0  0  0  0  0  0  0  0  0
    5.8210    3.2220  -23.8860 C   0  0  0  0  0  0  0  0  0  0  0  0
   -4.8380    3.7740  -25.4060 C   0  0  0  0  0  0  0  0  0  0  0  0
    2.0290    3.7110  -23.7810 C   0  0  0  0  0  0  0  0  0  0  0  0
    1.2010    4.8030  -23.4440 C   0  0  0  0  0  0  0  0  0  0  0  0
    3.0000    6.0190  -22.8050 C   0  0  0  0  0  0  0  0  0  0  0  0
    3.4350    3.9200  -23.5080 C   0  0  0  0  0  0  0  0  0  0  0  0
    1.4800    2.5930  -24.4380 C   0  0  0  0  0  0  0  0  0  0  0  0
   -0.6550    3.3710  -24.2530 C   0  0  0  0  0  0  0  0  0  0  0  0
   -0.1290    4.5930  -23.6560 C   0  0  0  0  0  0  0  0  0  0  0  0
   -2.1180    3.3580  -24.5630 C   0  0  0  0  0  0  0  0  0  0  0  0
    4.0880    1.4290  -23.2650 C   0  0  0  0  0  0  0  0  0  0  0  0
    5.0620    1.0750  -22.1520 C   0  0  2  0  0  0  0  0  0  0  0  0
    6.6140    2.6460  -22.7180 C   0  0  2  0  0  0  0  0  0  0  0  0
    5.0640    2.0620  -20.9730 C   0  0  0  0  0  0  0  0  0  0  0  0
   -2.4900    3.5290  -25.9780 C   0  0  0  0  0  0  0  0  0  0  0  0
   -1.6010    2.7310  -21.6400 C   0  0  0  0  0  0  0  0  0  0  0  0
   -0.5500    2.3940  -21.1700 C   0  0  0  0  0  0  0  0  0  0  0  0
   -0.9760    5.6200  -23.2740 F   0  0  0  0  0  0  0  0  0  0  0  0
   -3.7430    2.9680  -20.0420 F   0  0  0  0  0  0  0  0  0  0  0  0
    1.6760    5.9630  -22.9130 N   0  0  0  0  0  0  0  0  0  0  0  0
    3.9040    5.0730  -23.0640 N   0  0  0  0  0  0  0  0  0  0  0  0
    0.1660    2.4860  -24.7050 N   0  0  0  0  0  0  0  0  0  0  0  0
    4.3640    2.8890  -23.7260 N   0  0  0  0  0  0  0  0  0  0  0  0
    6.4520    1.1690  -22.6760 N   0  0  0  0  0  0  0  0  0  0  0  0
   -4.0720    3.7220  -27.6840 O   0  0  0  0  0  0  0  0  0  0  0  0
    3.9370    7.3270  -20.8810 N   0  0  0  0  0  0  0  0  0  0  0  0
    7.5980    9.9040  -22.1520 N   0  0  0  0  0  0  0  0  0  0  0  0
    8.2540    8.3880  -20.4000 N   0  0  0  0  0  0  0  0  0  0  0  0
    3.5530    7.3610  -22.3380 C   0  0  0  0  0  0  0  0  0  0  0  0
    4.5190    8.6010  -20.3190 C   0  0  0  0  0  0  0  0  0  0  0  0
    5.9500    8.8690  -20.7800 C   0  0  0  0  0  0  0  0  0  0  0  0
    6.3150    9.7080  -21.8080 C   0  0  0  0  0  0  0  0  0  0  0  0
    8.4930    9.2290  -21.4160 C   0  0  0  0  0  0  0  0  0  0  0  0
    6.9570    8.2290  -20.1060 C   0  0  0  0  0  0  0  0  0  0  0  0
    5.2910   10.4900  -22.6100 C   0  0  0  0  0  0  0  0  0  0  0  0
    9.9460    9.4510  -21.7720 C   0  0  0  0  0  0  0  0  0  0  0  0
  1  2  2  0
  1  3  1  0
  2  6  1  0
  3  5  2  0
  3 27  1  0
  4  5  1  0
  4  6  2  0
  4 18  1  0
  5 24  1  0
  6 10  1  0
  7 10  2  0
  7 23  1  0
  7 33  1  0
 21  8  1  1
  8 22  1  0
  9 21  1  0
  9 31  1  0
 11 12  1  0
 11 14  1  0
 11 15  2  0
 12 17  2  0
 12 28  1  0
 13 28  2  0
 13 29  1  0
 13 37  1  0
 14 29  2  0
 14 31  1  0
 15 30  1  0
 16 17  1  0
 16 18  1  0
 16 30  2  0
 17 26  1  0
 18 23  2  0
 20 19  1  6
 19 31  1  0
 20 22  1  0
 20 32  1  0
 21 32  1  0
 24 25  3  0
 34 37  1  0
 34 38  1  0
 35 40  2  0
 35 41  1  0
 36 41  2  0
 36 42  1  0
 38 39  1  0
 39 40  1  0
 39 42  2  0
 40 43  1  0
 41 44  1  0
M  END
>  <s_m_entry_id>  (132) 
592

>  <s_m_entry_name>  (132) 
000000434.1

>  <s_m_Source_Path>  (132) 
/Users/zaksoul/Documents/3r_UNI/2nd_SEMESTER/BSC/FRAG_RECON/RESULTS/2

>  <s_m_Source_File>  (132) 
000000434.mol2

>  <i_m_Source_File_Index>  (132) 
1

$$$$
No_0_456,No_0_457
     RDKit          3D

 44 50  0  0  1  0  0  0  0  0999 V2000
   -5.3300    3.4790  -21.8760 C   0  0  0  0  0  0  0  0  0  0  0  0
   -5.5960    3.6450  -23.2140 C   0  0  0  0  0  0  0  0  0  0  0  0
   -4.0920    3.2290  -21.5310 C   0  0  0  0  0  0  0  0  0  0  0  0
   -3.2010    3.3150  -23.6990 C   0  0  0  0  0  0  0  0  0  0  0  0
   -3.0400    3.0960  -22.2750 C   0  0  0  0  0  0  0  0  0  0  0  0
   -4.5490    3.5720  -24.2240 C   0  0  0  0  0  0  0  0  0  0  0  0
   -3.7950    3.5530  -26.4230 C   0  0  0  0  0  0  0  0  0  0  0  0
    5.9360    2.8910  -21.1490 C   0  0  0  0  0  0  0  0  0  0  0  0
    5.7960    2.9880  -23.7010 C   0  0  0  0  0  0  0  0  0  0  0  0
   -4.8000    3.6760  -25.5610 C   0  0  0  0  0  0  0  0  0  0  0  0
    2.0130    3.5440  -23.7260 C   0  0  0  0  0  0  0  0  0  0  0  0
    1.1940    4.6590  -23.4460 C   0  0  0  0  0  0  0  0  0  0  0  0
    2.9950    5.8630  -22.7880 C   0  0  0  0  0  0  0  0  0  0  0  0
    3.4130    3.7370  -23.4170 C   0  0  0  0  0  0  0  0  0  0  0  0
    1.4630    2.4170  -24.3670 C   0  0  0  0  0  0  0  0  0  0  0  0
   -0.6620    3.2360  -24.2700 C   0  0  0  0  0  0  0  0  0  0  0  0
   -0.1320    4.4660  -23.6930 C   0  0  0  0  0  0  0  0  0  0  0  0
   -2.1150    3.2390  -24.6240 C   0  0  0  0  0  0  0  0  0  0  0  0
    4.0140    1.2440  -23.0820 C   0  0  0  0  0  0  0  0  0  0  0  0
    4.9470    0.9060  -21.9290 C   0  0  2  0  0  0  0  0  0  0  0  0
    6.5430    2.4340  -22.4940 C   0  0  2  0  0  0  0  0  0  0  0  0
    4.9320    1.9280  -20.7800 C   0  0  0  0  0  0  0  0  0  0  0  0
   -2.4410    3.3740  -26.0540 C   0  0  0  0  0  0  0  0  0  0  0  0
   -1.6970    2.6900  -21.6690 C   0  0  0  0  0  0  0  0  0  0  0  0
   -0.6670    2.3490  -21.1580 C   0  0  0  0  0  0  0  0  0  0  0  0
   -0.9720    5.5190  -23.3670 F   0  0  0  0  0  0  0  0  0  0  0  0
   -3.8810    3.0110  -20.1450 F   0  0  0  0  0  0  0  0  0  0  0  0
    1.6740    5.8270  -22.9350 N   0  0  0  0  0  0  0  0  0  0  0  0
    3.8890    4.8950  -22.9920 N   0  0  0  0  0  0  0  0  0  0  0  0
    0.1570    2.3250  -24.6700 N   0  0  0  0  0  0  0  0  0  0  0  0
    4.3290    2.6840  -23.5760 N   0  0  0  0  0  0  0  0  0  0  0  0
    6.3540    0.9620  -22.4130 N   0  0  0  0  0  0  0  0  0  0  0  0
   -3.9680    3.5440  -27.8120 O   0  0  0  0  0  0  0  0  0  0  0  0
    3.8890    7.1910  -20.8750 N   0  0  0  0  0  0  0  0  0  0  0  0
    7.4160    9.9200  -22.2100 N   0  0  0  0  0  0  0  0  0  0  0  0
    8.1780    8.4950  -20.4000 N   0  0  0  0  0  0  0  0  0  0  0  0
    5.1560   10.2100  -22.6250 N   0  0  0  0  0  0  0  0  0  0  0  0
    9.6670    9.6140  -21.7720 N   0  0  0  0  0  0  0  0  0  0  0  0
    5.8430    8.8060  -20.7780 C   0  0  0  0  0  0  0  0  0  0  0  0
    3.5580    7.2090  -22.3440 C   0  0  0  0  0  0  0  0  0  0  0  0
    4.4320    8.4770  -20.3020 C   0  0  0  0  0  0  0  0  0  0  0  0
    6.1500    9.6300  -21.8540 C   0  0  0  0  0  0  0  0  0  0  0  0
    6.8880    8.2610  -20.0920 C   0  0  0  0  0  0  0  0  0  0  0  0
    8.3570    9.3270  -21.4450 C   0  0  0  0  0  0  0  0  0  0  0  0
  1  2  2  0
  1  3  1  0
  2  6  1  0
  3  5  2  0
  3 27  1  0
  4  5  1  0
  4  6  2  0
  4 18  1  0
  5 24  1  0
  6 10  1  0
  7 10  2  0
  7 23  1  0
  7 33  1  0
 21  8  1  1
  8 22  1  0
  9 21  1  0
  9 31  1  0
 11 12  1  0
 11 14  1  0
 11 15  2  0
 12 17  2  0
 12 28  1  0
 13 28  2  0
 13 29  1  0
 13 40  1  0
 14 29  2  0
 14 31  1  0
 15 30  1  0
 16 17  1  0
 16 18  1  0
 16 30  2  0
 17 26  1  0
 18 23  2  0
 20 19  1  6
 19 31  1  0
 20 22  1  0
 20 32  1  0
 21 32  1  0
 24 25  3  0
 34 40  1  0
 34 41  1  0
 35 42  2  0
 35 44  1  0
 36 43  1  0
 36 44  1  0
 37 42  1  0
 38 44  1  0
 39 41  1  0
 39 42  1  0
 39 43  2  0
M  END
>  <s_m_entry_id>  (133) 
593

>  <s_m_entry_name>  (133) 
000000435.1

>  <s_m_Source_Path>  (133) 
/Users/zaksoul/Documents/3r_UNI/2nd_SEMESTER/BSC/FRAG_RECON/RESULTS/2

>  <s_m_Source_File>  (133) 
000000435.mol2

>  <i_m_Source_File_Index>  (133) 
1

$$$$
No_0_458,No_0_459,No_0_460
     RDKit          3D

 42 48  0  0  1  0  0  0  0  0999 V2000
   -5.3450    3.7830  -21.9690 C   0  0  0  0  0  0  0  0  0  0  0  0
   -5.6060    3.9540  -23.3080 C   0  0  0  0  0  0  0  0  0  0  0  0
   -4.1130    3.5040  -21.6230 C   0  0  0  0  0  0  0  0  0  0  0  0
   -3.2200    3.5650  -23.7910 C   0  0  0  0  0  0  0  0  0  0  0  0
   -3.0650    3.3430  -22.3660 C   0  0  0  0  0  0  0  0  0  0  0  0
   -4.5600    3.8540  -24.3170 C   0  0  0  0  0  0  0  0  0  0  0  0
   -3.8060    3.8140  -26.5150 C   0  0  0  0  0  0  0  0  0  0  0  0
    5.9030    2.9190  -21.2360 C   0  0  0  0  0  0  0  0  0  0  0  0
    5.7670    3.0170  -23.7880 C   0  0  0  0  0  0  0  0  0  0  0  0
   -4.8090    3.9630  -25.6550 C   0  0  0  0  0  0  0  0  0  0  0  0
    1.9980    3.6660  -23.8160 C   0  0  0  0  0  0  0  0  0  0  0  0
    1.2070    4.8010  -23.5380 C   0  0  0  0  0  0  0  0  0  0  0  0
    3.0370    5.9610  -22.8800 C   0  0  0  0  0  0  0  0  0  0  0  0
    3.4030    3.8250  -23.5060 C   0  0  0  0  0  0  0  0  0  0  0  0
    1.4220    2.5510  -24.4560 C   0  0  0  0  0  0  0  0  0  0  0  0
   -0.6830    3.4230  -24.3610 C   0  0  0  0  0  0  0  0  0  0  0  0
   -0.1240    4.6400  -23.7850 C   0  0  0  0  0  0  0  0  0  0  0  0
   -2.1360    3.4610  -24.7150 C   0  0  0  0  0  0  0  0  0  0  0  0
    3.9420    1.3180  -23.1670 C   0  0  0  0  0  0  0  0  0  0  0  0
    4.8660    0.9590  -22.0140 C   0  0  2  0  0  0  0  0  0  0  0  0
    6.4990    2.4460  -22.5790 C   0  0  2  0  0  0  0  0  0  0  0  0
    4.8760    1.9820  -20.8660 C   0  0  0  0  0  0  0  0  0  0  0  0
   -2.4570    3.6030  -26.1460 C   0  0  0  0  0  0  0  0  0  0  0  0
   -1.7320    2.9060  -21.7600 C   0  0  0  0  0  0  0  0  0  0  0  0
   -0.7110    2.5400  -21.2480 C   0  0  0  0  0  0  0  0  0  0  0  0
   -0.9370    5.7130  -23.4600 F   0  0  0  0  0  0  0  0  0  0  0  0
   -3.9090    3.2820  -20.2370 F   0  0  0  0  0  0  0  0  0  0  0  0
    1.7150    5.9570  -23.0280 N   0  0  0  0  0  0  0  0  0  0  0  0
    3.9070    4.9710  -23.0820 N   0  0  0  0  0  0  0  0  0  0  0  0
    0.1130    2.4910  -24.7590 N   0  0  0  0  0  0  0  0  0  0  0  0
    4.2930    2.7500  -23.6640 N   0  0  0  0  0  0  0  0  0  0  0  0
    6.2740    0.9790  -22.4980 N   0  0  0  0  0  0  0  0  0  0  0  0
   -3.9790    3.8070  -27.9050 O   0  0  0  0  0  0  0  0  0  0  0  0
    6.9580    8.8810  -19.8310 O   0  0  0  0  0  0  0  0  0  0  0  0
    3.9700    7.2880  -20.9680 N   0  0  0  0  0  0  0  0  0  0  0  0
    7.8170    9.3460  -21.7270 N   0  0  0  0  0  0  0  0  0  0  0  0
    4.4960    8.5900  -20.4190 C   0  0  0  0  0  0  0  0  0  0  0  0
    3.6320    7.2930  -22.4370 C   0  0  0  0  0  0  0  0  0  0  0  0
    5.9470    8.8730  -20.7700 C   0  0  0  0  0  0  0  0  0  0  0  0
    6.4830    9.1640  -21.9500 C   0  0  0  0  0  0  0  0  0  0  0  0
    9.3840    9.3020  -19.7810 C   0  0  0  0  0  0  0  0  0  0  0  0
    8.0300    9.1690  -20.4450 C   0  0  0  0  0  0  0  0  0  0  0  0
  1  2  2  0
  1  3  1  0
  2  6  1  0
  3  5  2  0
  3 27  1  0
  4  5  1  0
  4  6  2  0
  4 18  1  0
  5 24  1  0
  6 10  1  0
  7 10  2  0
  7 23  1  0
  7 33  1  0
 21  8  1  1
  8 22  1  0
  9 21  1  0
  9 31  1  0
 11 12  1  0
 11 14  1  0
 11 15  2  0
 12 17  2  0
 12 28  1  0
 13 28  2  0
 13 29  1  0
 13 38  1  0
 14 29  2  0
 14 31  1  0
 15 30  1  0
 16 17  1  0
 16 18  1  0
 16 30  2  0
 17 26  1  0
 18 23  2  0
 20 19  1  6
 19 31  1  0
 20 22  1  0
 20 32  1  0
 21 32  1  0
 24 25  3  0
 34 39  1  0
 34 42  1  0
 35 37  1  0
 35 38  1  0
 36 40  1  0
 36 42  2  0
 37 39  1  0
 39 40  2  0
 41 42  1  0
M  END
>  <s_m_entry_id>  (134) 
595

>  <s_m_entry_name>  (134) 
000000437.1

>  <s_m_Source_Path>  (134) 
/Users/zaksoul/Documents/3r_UNI/2nd_SEMESTER/BSC/FRAG_RECON/RESULTS/2

>  <s_m_Source_File>  (134) 
000000437.mol2

>  <i_m_Source_File_Index>  (134) 
1

$$$$
No_0_461
     RDKit          3D

 44 50  0  0  1  0  0  0  0  0999 V2000
   -5.3200    3.5670  -21.7930 C   0  0  0  0  0  0  0  0  0  0  0  0
   -5.6010    3.7620  -23.1250 C   0  0  0  0  0  0  0  0  0  0  0  0
   -4.0800    3.3040  -21.4680 C   0  0  0  0  0  0  0  0  0  0  0  0
   -3.2140    3.4310  -23.6440 C   0  0  0  0  0  0  0  0  0  0  0  0
   -3.0380    3.1810  -22.2260 C   0  0  0  0  0  0  0  0  0  0  0  0
   -4.5650    3.7050  -24.1480 C   0  0  0  0  0  0  0  0  0  0  0  0
   -3.8370    3.7280  -26.3550 C   0  0  0  0  0  0  0  0  0  0  0  0
    5.9490    2.9070  -21.2090 C   0  0  0  0  0  0  0  0  0  0  0  0
    5.7810    3.0580  -23.7560 C   0  0  0  0  0  0  0  0  0  0  0  0
   -4.8320    3.8380  -25.4790 C   0  0  0  0  0  0  0  0  0  0  0  0
    2.0010    3.6340  -23.7260 C   0  0  0  0  0  0  0  0  0  0  0  0
    1.1910    4.7470  -23.4140 C   0  0  0  0  0  0  0  0  0  0  0  0
    3.0060    5.9280  -22.7520 C   0  0  0  0  0  0  0  0  0  0  0  0
    3.4060    3.8130  -23.4290 C   0  0  0  0  0  0  0  0  0  0  0  0
    1.4380    2.5230  -24.3840 C   0  0  0  0  0  0  0  0  0  0  0  0
   -0.6810    3.3510  -24.2450 C   0  0  0  0  0  0  0  0  0  0  0  0
   -0.1390    4.5660  -23.6490 C   0  0  0  0  0  0  0  0  0  0  0  0
   -2.1380    3.3690  -24.5820 C   0  0  0  0  0  0  0  0  0  0  0  0
    3.9970    1.3100  -23.1520 C   0  0  0  0  0  0  0  0  0  0  0  0
    4.9420    0.9440  -22.0180 C   0  0  2  0  0  0  0  0  0  0  0  0
    6.5390    2.4750  -22.5690 C   0  0  2  0  0  0  0  0  0  0  0  0
    4.9450    1.9420  -20.8470 C   0  0  0  0  0  0  0  0  0  0  0  0
   -2.4800    3.5350  -26.0060 C   0  0  0  0  0  0  0  0  0  0  0  0
   -1.6890    2.7560  -21.6450 C   0  0  0  0  0  0  0  0  0  0  0  0
   -0.6550    2.3990  -21.1520 C   0  0  0  0  0  0  0  0  0  0  0  0
   -0.9690    5.6160  -23.2910 F   0  0  0  0  0  0  0  0  0  0  0  0
   -3.8550    3.0560  -20.0890 F   0  0  0  0  0  0  0  0  0  0  0  0
    1.6830    5.9010  -22.8840 N   0  0  0  0  0  0  0  0  0  0  0  0
    3.8930    4.9590  -22.9860 N   0  0  0  0  0  0  0  0  0  0  0  0
    0.1280    2.4440  -24.6740 N   0  0  0  0  0  0  0  0  0  0  0  0
    4.3140    2.7590  -23.6200 N   0  0  0  0  0  0  0  0  0  0  0  0
    6.3430    1.0030  -22.5170 N   0  0  0  0  0  0  0  0  0  0  0  0
   -4.0260    3.7480  -27.7420 O   0  0  0  0  0  0  0  0  0  0  0  0
    8.8080    9.8840  -22.9470 Br  0  0  0  0  0  0  0  0  0  0  0  0
    3.5940    7.3550  -20.7820 N   0  0  0  0  0  0  0  0  0  0  0  0
    7.8960    7.2970  -19.8890 N   0  0  0  0  0  0  0  0  0  0  0  0
    3.5810    7.2610  -22.2860 C   0  0  0  0  0  0  0  0  0  0  0  0
    4.3580    8.5230  -20.2080 C   0  0  0  0  0  0  0  0  0  0  0  0
    5.8520    8.4170  -20.4920 C   0  0  0  0  0  0  0  0  0  0  0  0
    6.4990    9.1510  -21.4600 C   0  0  0  0  0  0  0  0  0  0  0  0
    6.5770    7.5200  -19.7410 C   0  0  0  0  0  0  0  0  0  0  0  0
    7.8450    8.9380  -21.6360 C   0  0  0  0  0  0  0  0  0  0  0  0
    5.7870   10.1770  -22.3290 C   0  0  0  0  0  0  0  0  0  0  0  0
    8.5000    8.0220  -20.8480 C   0  0  0  0  0  0  0  0  0  0  0  0
  1  2  2  0
  1  3  1  0
  2  6  1  0
  3  5  2  0
  3 27  1  0
  4  5  1  0
  4  6  2  0
  4 18  1  0
  5 24  1  0
  6 10  1  0
  7 10  2  0
  7 23  1  0
  7 33  1  0
 21  8  1  1
  8 22  1  0
  9 21  1  0
  9 31  1  0
 11 12  1  0
 11 14  1  0
 11 15  2  0
 12 17  2  0
 12 28  1  0
 13 28  2  0
 13 29  1  0
 13 37  1  0
 14 29  2  0
 14 31  1  0
 15 30  1  0
 16 17  1  0
 16 18  1  0
 16 30  2  0
 17 26  1  0
 18 23  2  0
 20 19  1  6
 19 31  1  0
 20 22  1  0
 20 32  1  0
 21 32  1  0
 24 25  3  0
 34 42  1  0
 35 37  1  0
 35 38  1  0
 36 41  2  0
 36 44  1  0
 38 39  1  0
 39 40  2  0
 39 41  1  0
 40 42  1  0
 40 43  1  0
 42 44  2  0
M  END
>  <s_m_entry_id>  (135) 
598

>  <s_m_entry_name>  (135) 
000000440.1

>  <s_m_Source_Path>  (135) 
/Users/zaksoul/Documents/3r_UNI/2nd_SEMESTER/BSC/FRAG_RECON/RESULTS/2

>  <s_m_Source_File>  (135) 
000000440.mol2

>  <i_m_Source_File_Index>  (135) 
1

$$$$
No_0_462,No_0_463,No_0_464
     RDKit          3D

 42 48  0  0  1  0  0  0  0  0999 V2000
   -5.0930    3.5490  -22.0330 C   0  0  0  0  0  0  0  0  0  0  0  0
   -5.3400    3.7630  -23.3680 C   0  0  0  0  0  0  0  0  0  0  0  0
   -3.8650    3.2650  -21.6820 C   0  0  0  0  0  0  0  0  0  0  0  0
   -2.9460    3.4070  -23.8350 C   0  0  0  0  0  0  0  0  0  0  0  0
   -2.8070    3.1370  -22.4170 C   0  0  0  0  0  0  0  0  0  0  0  0
   -4.2820    3.7050  -24.3670 C   0  0  0  0  0  0  0  0  0  0  0  0
   -3.5010    3.7450  -26.5560 C   0  0  0  0  0  0  0  0  0  0  0  0
    6.1500    2.7310  -21.1940 C   0  0  0  0  0  0  0  0  0  0  0  0
    6.0430    2.9150  -23.7430 C   0  0  0  0  0  0  0  0  0  0  0  0
   -4.5150    3.8580  -25.7030 C   0  0  0  0  0  0  0  0  0  0  0  0
    2.2710    3.5410  -23.7940 C   0  0  0  0  0  0  0  0  0  0  0  0
    1.4690    4.6610  -23.4870 C   0  0  0  0  0  0  0  0  0  0  0  0
    3.2830    5.8090  -22.7680 C   0  0  0  0  0  0  0  0  0  0  0  0
    3.6710    3.6980  -23.4620 C   0  0  0  0  0  0  0  0  0  0  0  0
    1.7100    2.4450  -24.4780 C   0  0  0  0  0  0  0  0  0  0  0  0
   -0.4020    3.3000  -24.3790 C   0  0  0  0  0  0  0  0  0  0  0  0
    0.1430    4.5000  -23.7550 C   0  0  0  0  0  0  0  0  0  0  0  0
   -1.8500    3.3410  -24.7490 C   0  0  0  0  0  0  0  0  0  0  0  0
    4.2230    1.1840  -23.2020 C   0  0  0  0  0  0  0  0  0  0  0  0
    5.1360    0.7920  -22.0510 C   0  0  2  0  0  0  0  0  0  0  0  0
    6.7660    2.3080  -22.5460 C   0  0  2  0  0  0  0  0  0  0  0  0
    5.1250    1.7750  -20.8690 C   0  0  0  0  0  0  0  0  0  0  0  0
   -2.1560    3.5290  -26.1780 C   0  0  0  0  0  0  0  0  0  0  0  0
   -1.4780    2.6870  -21.8100 C   0  0  0  0  0  0  0  0  0  0  0  0
   -0.4600    2.3110  -21.2980 C   0  0  0  0  0  0  0  0  0  0  0  0
   -0.6820    5.5570  -23.4040 F   0  0  0  0  0  0  0  0  0  0  0  0
   -3.6750    2.9970  -20.3010 F   0  0  0  0  0  0  0  0  0  0  0  0
    1.9640    5.8020  -22.9320 N   0  0  0  0  0  0  0  0  0  0  0  0
    4.1630    4.8320  -22.9930 N   0  0  0  0  0  0  0  0  0  0  0  0
    0.4050    2.3870  -24.7990 N   0  0  0  0  0  0  0  0  0  0  0  0
    4.5700    2.6340  -23.6450 N   0  0  0  0  0  0  0  0  0  0  0  0
    6.5490    0.8380  -22.5170 N   0  0  0  0  0  0  0  0  0  0  0  0
   -3.6580    3.7840  -27.9470 O   0  0  0  0  0  0  0  0  0  0  0  0
    4.5740    6.9490  -20.9580 N   0  0  0  0  0  0  0  0  0  0  0  0
    7.8550    7.3930  -20.1800 N   0  0  0  0  0  0  0  0  0  0  0  0
    8.7400    7.9160  -22.1080 N   0  0  0  0  0  0  0  0  0  0  0  0
    5.4390    8.1130  -20.5430 C   0  0  0  0  0  0  0  0  0  0  0  0
    6.8870    7.9290  -20.9720 C   0  0  0  0  0  0  0  0  0  0  0  0
    3.8640    7.1290  -22.2730 C   0  0  0  0  0  0  0  0  0  0  0  0
    7.7270    6.9230  -18.7950 C   0  0  0  0  0  0  0  0  0  0  0  0
    8.9900    7.4050  -20.9190 C   0  0  0  0  0  0  0  0  0  0  0  0
    7.4140    8.2500  -22.1530 C   0  0  0  0  0  0  0  0  0  0  0  0
  1  2  2  0
  1  3  1  0
  2  6  1  0
  3  5  2  0
  3 27  1  0
  4  5  1  0
  4  6  2  0
  4 18  1  0
  5 24  1  0
  6 10  1  0
  7 10  2  0
  7 23  1  0
  7 33  1  0
 21  8  1  1
  8 22  1  0
  9 21  1  0
  9 31  1  0
 11 12  1  0
 11 14  1  0
 11 15  2  0
 12 17  2  0
 12 28  1  0
 13 28  2  0
 13 29  1  0
 13 39  1  0
 14 29  2  0
 14 31  1  0
 15 30  1  0
 16 17  1  0
 16 18  1  0
 16 30  2  0
 17 26  1  0
 18 23  2  0
 20 19  1  6
 19 31  1  0
 20 22  1  0
 20 32  1  0
 21 32  1  0
 24 25  3  0
 34 37  1  0
 34 39  1  0
 35 38  1  0
 35 40  1  0
 35 41  1  0
 36 41  1  0
 36 42  1  0
 37 38  1  0
 38 42  2  0
M  END
>  <s_m_entry_id>  (136) 
599

>  <s_m_entry_name>  (136) 
000000441.1

>  <s_m_Source_Path>  (136) 
/Users/zaksoul/Documents/3r_UNI/2nd_SEMESTER/BSC/FRAG_RECON/RESULTS/2

>  <s_m_Source_File>  (136) 
000000441.mol2

>  <i_m_Source_File_Index>  (136) 
1

$$$$
No_0_465,No_0_466,No_0_467,No_0_468
     RDKit          3D

 42 48  0  0  1  0  0  0  0  0999 V2000
   -5.4430    3.5330  -21.9920 C   0  0  0  0  0  0  0  0  0  0  0  0
   -5.7040    3.7030  -23.3310 C   0  0  0  0  0  0  0  0  0  0  0  0
   -4.2110    3.2580  -21.6450 C   0  0  0  0  0  0  0  0  0  0  0  0
   -3.3160    3.3240  -23.8110 C   0  0  0  0  0  0  0  0  0  0  0  0
   -3.1610    3.1020  -22.3860 C   0  0  0  0  0  0  0  0  0  0  0  0
   -4.6560    3.6070  -24.3390 C   0  0  0  0  0  0  0  0  0  0  0  0
   -3.9000    3.5710  -26.5360 C   0  0  0  0  0  0  0  0  0  0  0  0
    5.8070    2.7130  -21.2470 C   0  0  0  0  0  0  0  0  0  0  0  0
    5.6730    2.8110  -23.7990 C   0  0  0  0  0  0  0  0  0  0  0  0
   -4.9040    3.7150  -25.6760 C   0  0  0  0  0  0  0  0  0  0  0  0
    1.9020    3.4440  -23.8310 C   0  0  0  0  0  0  0  0  0  0  0  0
    1.1060    4.5770  -23.5530 C   0  0  0  0  0  0  0  0  0  0  0  0
    2.9310    5.7440  -22.8940 C   0  0  0  0  0  0  0  0  0  0  0  0
    3.3060    3.6090  -23.5190 C   0  0  0  0  0  0  0  0  0  0  0  0
    1.3310    2.3280  -24.4710 C   0  0  0  0  0  0  0  0  0  0  0  0
   -0.7770    3.1910  -24.3780 C   0  0  0  0  0  0  0  0  0  0  0  0
   -0.2230    4.4100  -23.8020 C   0  0  0  0  0  0  0  0  0  0  0  0
   -2.2300    3.2240  -24.7340 C   0  0  0  0  0  0  0  0  0  0  0  0
    3.8540    1.1040  -23.1800 C   0  0  0  0  0  0  0  0  0  0  0  0
    4.7790    0.7480  -22.0260 C   0  0  2  0  0  0  0  0  0  0  0  0
    6.4070    2.2420  -22.5900 C   0  0  2  0  0  0  0  0  0  0  0  0
    4.7830    1.7710  -20.8780 C   0  0  0  0  0  0  0  0  0  0  0  0
   -2.5500    3.3640  -26.1650 C   0  0  0  0  0  0  0  0  0  0  0  0
   -1.8270    2.6690  -21.7790 C   0  0  0  0  0  0  0  0  0  0  0  0
   -0.8050    2.3080  -21.2650 C   0  0  0  0  0  0  0  0  0  0  0  0
   -1.0410    5.4810  -23.4780 F   0  0  0  0  0  0  0  0  0  0  0  0
   -4.0070    3.0370  -20.2580 F   0  0  0  0  0  0  0  0  0  0  0  0
    1.6090    5.7340  -23.0430 N   0  0  0  0  0  0  0  0  0  0  0  0
    3.8050    4.7570  -23.0950 N   0  0  0  0  0  0  0  0  0  0  0  0
    0.0230    2.2630  -24.7760 N   0  0  0  0  0  0  0  0  0  0  0  0
    4.2000    2.5370  -23.6760 N   0  0  0  0  0  0  0  0  0  0  0  0
    6.1870    0.7740  -22.5080 N   0  0  0  0  0  0  0  0  0  0  0  0
   -4.0710    3.5630  -27.9260 O   0  0  0  0  0  0  0  0  0  0  0  0
    3.8510    7.0590  -20.9800 N   0  0  0  0  0  0  0  0  0  0  0  0
    7.6680    9.6790  -21.7230 N   0  0  0  0  0  0  0  0  0  0  0  0
    8.1220    7.9410  -20.1150 N   0  0  0  0  0  0  0  0  0  0  0  0
    4.3870    8.3490  -20.4130 C   0  0  0  0  0  0  0  0  0  0  0  0
    3.5210    7.0780  -22.4500 C   0  0  0  0  0  0  0  0  0  0  0  0
    6.3570    9.4780  -21.5190 C   0  0  0  0  0  0  0  0  0  0  0  0
    6.7980    7.7920  -19.9560 C   0  0  0  0  0  0  0  0  0  0  0  0
    8.4740    8.8870  -20.9990 C   0  0  0  0  0  0  0  0  0  0  0  0
    5.8790    8.5430  -20.6400 C   0  0  0  0  0  0  0  0  0  0  0  0
  1  2  2  0
  1  3  1  0
  2  6  1  0
  3  5  2  0
  3 27  1  0
  4  5  1  0
  4  6  2  0
  4 18  1  0
  5 24  1  0
  6 10  1  0
  7 10  2  0
  7 23  1  0
  7 33  1  0
 21  8  1  1
  8 22  1  0
  9 21  1  0
  9 31  1  0
 11 12  1  0
 11 14  1  0
 11 15  2  0
 12 17  2  0
 12 28  1  0
 13 28  2  0
 13 29  1  0
 13 38  1  0
 14 29  2  0
 14 31  1  0
 15 30  1  0
 16 17  1  0
 16 18  1  0
 16 30  2  0
 17 26  1  0
 18 23  2  0
 20 19  1  6
 19 31  1  0
 20 22  1  0
 20 32  1  0
 21 32  1  0
 24 25  3  0
 34 37  1  0
 34 38  1  0
 35 39  2  0
 35 41  1  0
 36 40  1  0
 36 41  2  0
 37 42  1  0
 39 42  1  0
 40 42  2  0
M  END
>  <s_m_entry_id>  (137) 
602

>  <s_m_entry_name>  (137) 
000000444.1

>  <s_m_Source_Path>  (137) 
/Users/zaksoul/Documents/3r_UNI/2nd_SEMESTER/BSC/FRAG_RECON/RESULTS/2

>  <s_m_Source_File>  (137) 
000000444.mol2

>  <i_m_Source_File_Index>  (137) 
1

$$$$
No_0_469,No_0_470
     RDKit          3D

 41 47  0  0  1  0  0  0  0  0999 V2000
   -5.3090    3.5960  -21.8920 C   0  0  0  0  0  0  0  0  0  0  0  0
   -5.5770    3.7780  -23.2280 C   0  0  0  0  0  0  0  0  0  0  0  0
   -4.0710    3.3410  -21.5520 C   0  0  0  0  0  0  0  0  0  0  0  0
   -3.1830    3.4520  -23.7190 C   0  0  0  0  0  0  0  0  0  0  0  0
   -3.0200    3.2150  -22.2980 C   0  0  0  0  0  0  0  0  0  0  0  0
   -4.5300    3.7160  -24.2400 C   0  0  0  0  0  0  0  0  0  0  0  0
   -3.7790    3.7240  -26.4390 C   0  0  0  0  0  0  0  0  0  0  0  0
    5.9570    2.9870  -21.1860 C   0  0  0  0  0  0  0  0  0  0  0  0
    5.8140    3.1160  -23.7350 C   0  0  0  0  0  0  0  0  0  0  0  0
   -4.7830    3.8370  -25.5750 C   0  0  0  0  0  0  0  0  0  0  0  0
    2.0310    3.6760  -23.7500 C   0  0  0  0  0  0  0  0  0  0  0  0
    1.2140    4.7890  -23.4550 C   0  0  0  0  0  0  0  0  0  0  0  0
    3.0180    5.9820  -22.7850 C   0  0  0  0  0  0  0  0  0  0  0  0
    3.4330    3.8640  -23.4400 C   0  0  0  0  0  0  0  0  0  0  0  0
    1.4800    2.5570  -24.4040 C   0  0  0  0  0  0  0  0  0  0  0  0
   -0.6440    3.3780  -24.2940 C   0  0  0  0  0  0  0  0  0  0  0  0
   -0.1120    4.6000  -23.7030 C   0  0  0  0  0  0  0  0  0  0  0  0
   -2.0980    3.3860  -24.6460 C   0  0  0  0  0  0  0  0  0  0  0  0
    4.0310    1.3660  -23.1350 C   0  0  0  0  0  0  0  0  0  0  0  0
    4.9650    1.0130  -21.9880 C   0  0  2  0  0  0  0  0  0  0  0  0
    6.5620    2.5460  -22.5360 C   0  0  2  0  0  0  0  0  0  0  0  0
    4.9530    2.0210  -20.8270 C   0  0  0  0  0  0  0  0  0  0  0  0
   -2.4250    3.5390  -26.0750 C   0  0  0  0  0  0  0  0  0  0  0  0
   -1.6760    2.8010  -21.6990 C   0  0  0  0  0  0  0  0  0  0  0  0
   -0.6460    2.4530  -21.1930 C   0  0  0  0  0  0  0  0  0  0  0  0
   -0.9500    5.6490  -23.3630 F   0  0  0  0  0  0  0  0  0  0  0  0
   -3.8590    3.1050  -20.1690 F   0  0  0  0  0  0  0  0  0  0  0  0
    1.6960    5.9490  -22.9310 N   0  0  0  0  0  0  0  0  0  0  0  0
    3.9110    5.0160  -23.0010 N   0  0  0  0  0  0  0  0  0  0  0  0
    0.1730    2.4700  -24.7060 N   0  0  0  0  0  0  0  0  0  0  0  0
    4.3470    2.8120  -23.6130 N   0  0  0  0  0  0  0  0  0  0  0  0
    6.3720    1.0730  -22.4730 N   0  0  0  0  0  0  0  0  0  0  0  0
   -3.9540    3.7310  -27.8290 O   0  0  0  0  0  0  0  0  0  0  0  0
    7.1300    9.7340  -21.0420 O   0  0  0  0  0  0  0  0  0  0  0  0
    4.6050    7.1560  -21.2340 N   0  0  0  0  0  0  0  0  0  0  0  0
    6.5700   10.8140  -22.7940 N   0  0  0  0  0  0  0  0  0  0  0  0
    5.0040    8.4250  -20.5210 C   0  0  0  0  0  0  0  0  0  0  0  0
    3.5820    7.3220  -22.3250 C   0  0  0  0  0  0  0  0  0  0  0  0
    5.8280    9.3950  -21.3520 C   0  0  0  0  0  0  0  0  0  0  0  0
    5.4810   10.0720  -22.4410 C   0  0  0  0  0  0  0  0  0  0  0  0
    7.5150   10.5670  -21.9180 C   0  0  0  0  0  0  0  0  0  0  0  0
  1  2  2  0
  1  3  1  0
  2  6  1  0
  3  5  2  0
  3 27  1  0
  4  5  1  0
  4  6  2  0
  4 18  1  0
  5 24  1  0
  6 10  1  0
  7 10  2  0
  7 23  1  0
  7 33  1  0
 21  8  1  1
  8 22  1  0
  9 21  1  0
  9 31  1  0
 11 12  1  0
 11 14  1  0
 11 15  2  0
 12 17  2  0
 12 28  1  0
 13 28  2  0
 13 29  1  0
 13 38  1  0
 14 29  2  0
 14 31  1  0
 15 30  1  0
 16 17  1  0
 16 18  1  0
 16 30  2  0
 17 26  1  0
 18 23  2  0
 20 19  1  6
 19 31  1  0
 20 22  1  0
 20 32  1  0
 21 32  1  0
 24 25  3  0
 34 39  1  0
 34 41  1  0
 35 37  1  0
 35 38  1  0
 36 40  1  0
 36 41  2  0
 37 39  1  0
 39 40  2  0
M  END
>  <s_m_entry_id>  (138) 
606

>  <s_m_entry_name>  (138) 
000000448.1

>  <s_m_Source_Path>  (138) 
/Users/zaksoul/Documents/3r_UNI/2nd_SEMESTER/BSC/FRAG_RECON/RESULTS/2

>  <s_m_Source_File>  (138) 
000000448.mol2

>  <i_m_Source_File_Index>  (138) 
1

$$$$
No_0_471
     RDKit          3D

 45 52  0  0  1  0  0  0  0  0999 V2000
   -5.1580    3.9400  -22.2200 C   0  0  0  0  0  0  0  0  0  0  0  0
   -5.4070    4.1130  -23.5610 C   0  0  0  0  0  0  0  0  0  0  0  0
   -3.9300    3.6650  -21.8630 C   0  0  0  0  0  0  0  0  0  0  0  0
   -3.0140    3.7370  -24.0200 C   0  0  0  0  0  0  0  0  0  0  0  0
   -2.8730    3.5110  -22.5950 C   0  0  0  0  0  0  0  0  0  0  0  0
   -4.3500    4.0210  -24.5600 C   0  0  0  0  0  0  0  0  0  0  0  0
   -3.5720    3.9910  -26.7500 C   0  0  0  0  0  0  0  0  0  0  0  0
    6.0840    3.1240  -21.3720 C   0  0  0  0  0  0  0  0  0  0  0  0
    5.9750    3.2290  -23.9240 C   0  0  0  0  0  0  0  0  0  0  0  0
   -4.5850    4.1330  -25.8990 C   0  0  0  0  0  0  0  0  0  0  0  0
    2.2040    3.8610  -23.9900 C   0  0  0  0  0  0  0  0  0  0  0  0
    1.4050    4.9920  -23.7170 C   0  0  0  0  0  0  0  0  0  0  0  0
    3.2220    6.1580  -23.0370 C   0  0  0  0  0  0  0  0  0  0  0  0
    3.6050    4.0250  -23.6650 C   0  0  0  0  0  0  0  0  0  0  0  0
    1.6390    2.7460  -24.6390 C   0  0  0  0  0  0  0  0  0  0  0  0
   -0.4700    3.6080  -24.5640 C   0  0  0  0  0  0  0  0  0  0  0  0
    0.0770    4.8250  -23.9780 C   0  0  0  0  0  0  0  0  0  0  0  0
   -1.9190    3.6410  -24.9340 C   0  0  0  0  0  0  0  0  0  0  0  0
    4.1510    1.5190  -23.3280 C   0  0  0  0  0  0  0  0  0  0  0  0
    5.0650    1.1610  -22.1660 C   0  0  2  0  0  0  0  0  0  0  0  0
    6.6970    2.6570  -22.7100 C   0  0  2  0  0  0  0  0  0  0  0  0
    5.0580    2.1810  -21.0150 C   0  0  0  0  0  0  0  0  0  0  0  0
   -2.2270    3.7850  -26.3670 C   0  0  0  0  0  0  0  0  0  0  0  0
   -1.5440    3.0780  -21.9760 C   0  0  0  0  0  0  0  0  0  0  0  0
   -0.5270    2.7150  -21.4540 C   0  0  0  0  0  0  0  0  0  0  0  0
   -0.7440    5.8940  -23.6590 F   0  0  0  0  0  0  0  0  0  0  0  0
   -3.7390    3.4390  -20.4750 F   0  0  0  0  0  0  0  0  0  0  0  0
    1.9020    6.1480  -23.1980 N   0  0  0  0  0  0  0  0  0  0  0  0
    4.0990    5.1720  -23.2320 N   0  0  0  0  0  0  0  0  0  0  0  0
    0.3340    2.6800  -24.9570 N   0  0  0  0  0  0  0  0  0  0  0  0
    4.5010    2.9540  -23.8160 N   0  0  0  0  0  0  0  0  0  0  0  0
    6.4780    1.1890  -22.6350 N   0  0  0  0  0  0  0  0  0  0  0  0
   -3.7300    3.9880  -28.1410 O   0  0  0  0  0  0  0  0  0  0  0  0
    4.1340    7.4980  -21.1130 N   0  0  0  0  0  0  0  0  0  0  0  0
    7.9590    9.6790  -22.1220 N   0  0  0  0  0  0  0  0  0  0  0  0
    5.9330    9.4520  -23.3590 N   0  0  0  0  0  0  0  0  0  0  0  0
    8.2530    9.5550  -20.8090 N   0  0  0  0  0  0  0  0  0  0  0  0
    6.0690    9.1410  -20.9470 C   0  0  0  0  0  0  0  0  0  0  0  0
    3.8070    7.4920  -22.5840 C   0  0  0  0  0  0  0  0  0  0  0  0
    4.6340    8.8130  -20.5660 C   0  0  0  0  0  0  0  0  0  0  0  0
    6.6200    9.4230  -22.1700 C   0  0  0  0  0  0  0  0  0  0  0  0
    8.0550   10.0050  -24.4070 C   0  0  0  0  0  0  0  0  0  0  0  0
    7.1680    9.2440  -20.1190 C   0  0  0  0  0  0  0  0  0  0  0  0
    8.6970    9.9750  -23.2290 C   0  0  0  0  0  0  0  0  0  0  0  0
    6.6710    9.7370  -24.4310 C   0  0  0  0  0  0  0  0  0  0  0  0
  1  2  2  0
  1  3  1  0
  2  6  1  0
  3  5  2  0
  3 27  1  0
  4  5  1  0
  4  6  2  0
  4 18  1  0
  5 24  1  0
  6 10  1  0
  7 10  2  0
  7 23  1  0
  7 33  1  0
 21  8  1  1
  8 22  1  0
  9 21  1  0
  9 31  1  0
 11 12  1  0
 11 14  1  0
 11 15  2  0
 12 17  2  0
 12 28  1  0
 13 28  2  0
 13 29  1  0
 13 39  1  0
 14 29  2  0
 14 31  1  0
 15 30  1  0
 16 17  1  0
 16 18  1  0
 16 30  2  0
 17 26  1  0
 18 23  2  0
 20 19  1  6
 19 31  1  0
 20 22  1  0
 20 32  1  0
 21 32  1  0
 24 25  3  0
 34 39  1  0
 34 40  1  0
 35 37  1  0
 35 41  1  0
 35 44  1  0
 36 41  1  0
 36 45  2  0
 37 43  2  0
 38 40  1  0
 38 41  2  0
 38 43  1  0
 42 44  2  0
 42 45  1  0
M  END
>  <s_m_entry_id>  (139) 
608

>  <s_m_entry_name>  (139) 
000000450.1

>  <s_m_Source_Path>  (139) 
/Users/zaksoul/Documents/3r_UNI/2nd_SEMESTER/BSC/FRAG_RECON/RESULTS/2

>  <s_m_Source_File>  (139) 
000000450.mol2

>  <i_m_Source_File_Index>  (139) 
1

$$$$
No_0_472
     RDKit          3D

 43 49  0  0  1  0  0  0  0  0999 V2000
   -5.1420    3.5850  -21.9430 C   0  0  0  0  0  0  0  0  0  0  0  0
   -5.4130    3.7820  -23.2770 C   0  0  0  0  0  0  0  0  0  0  0  0
   -3.9030    3.3270  -21.6090 C   0  0  0  0  0  0  0  0  0  0  0  0
   -3.0190    3.4650  -23.7770 C   0  0  0  0  0  0  0  0  0  0  0  0
   -2.8540    3.2120  -22.3580 C   0  0  0  0  0  0  0  0  0  0  0  0
   -4.3680    3.7330  -24.2910 C   0  0  0  0  0  0  0  0  0  0  0  0
   -3.6210    3.7660  -26.4920 C   0  0  0  0  0  0  0  0  0  0  0  0
    6.1260    2.9820  -21.2660 C   0  0  0  0  0  0  0  0  0  0  0  0
    5.9780    3.1400  -23.8140 C   0  0  0  0  0  0  0  0  0  0  0  0
   -4.6240    3.8680  -25.6250 C   0  0  0  0  0  0  0  0  0  0  0  0
    2.1940    3.6950  -23.8150 C   0  0  0  0  0  0  0  0  0  0  0  0
    1.3770    4.8030  -23.5060 C   0  0  0  0  0  0  0  0  0  0  0  0
    3.1800    5.9920  -22.8260 C   0  0  0  0  0  0  0  0  0  0  0  0
    3.5960    3.8810  -23.5050 C   0  0  0  0  0  0  0  0  0  0  0  0
    1.6430    2.5830  -24.4800 C   0  0  0  0  0  0  0  0  0  0  0  0
   -0.4820    3.4000  -24.3570 C   0  0  0  0  0  0  0  0  0  0  0  0
    0.0500    4.6150  -23.7530 C   0  0  0  0  0  0  0  0  0  0  0  0
   -1.9360    3.4100  -24.7060 C   0  0  0  0  0  0  0  0  0  0  0  0
    4.1980    1.3800  -23.2300 C   0  0  0  0  0  0  0  0  0  0  0  0
    5.1350    1.0160  -22.0890 C   0  0  2  0  0  0  0  0  0  0  0  0
    6.7290    2.5570  -22.6220 C   0  0  2  0  0  0  0  0  0  0  0  0
    5.1230    2.0110  -20.9160 C   0  0  0  0  0  0  0  0  0  0  0  0
   -2.2660    3.5790  -26.1320 C   0  0  0  0  0  0  0  0  0  0  0  0
   -1.5080    2.7920  -21.7670 C   0  0  0  0  0  0  0  0  0  0  0  0
   -0.4760    2.4400  -21.2670 C   0  0  0  0  0  0  0  0  0  0  0  0
   -0.7890    5.6600  -23.4000 F   0  0  0  0  0  0  0  0  0  0  0  0
   -3.6880    3.0770  -20.2290 F   0  0  0  0  0  0  0  0  0  0  0  0
    1.8580    5.9580  -22.9700 N   0  0  0  0  0  0  0  0  0  0  0  0
    4.0730    5.0280  -23.0550 N   0  0  0  0  0  0  0  0  0  0  0  0
    0.3360    2.4970  -24.7810 N   0  0  0  0  0  0  0  0  0  0  0  0
    4.5120    2.8320  -23.6920 N   0  0  0  0  0  0  0  0  0  0  0  0
    6.5400    1.0830  -22.5760 N   0  0  0  0  0  0  0  0  0  0  0  0
   -3.7990    3.7890  -27.8810 O   0  0  0  0  0  0  0  0  0  0  0  0
    4.3510    7.2080  -20.9780 N   0  0  0  0  0  0  0  0  0  0  0  0
    8.5160    8.8600  -21.3960 N   0  0  0  0  0  0  0  0  0  0  0  0
    7.9000    9.7070  -22.2430 N   0  0  0  0  0  0  0  0  0  0  0  0
    4.9350    8.4790  -20.4190 C   0  0  0  0  0  0  0  0  0  0  0  0
    7.5230    8.3130  -20.6460 C   0  0  0  0  0  0  0  0  0  0  0  0
    3.7430    7.3270  -22.3520 C   0  0  0  0  0  0  0  0  0  0  0  0
    6.3130    8.7880  -20.9830 C   0  0  0  0  0  0  0  0  0  0  0  0
    9.9670    8.6580  -21.3360 C   0  0  0  0  0  0  0  0  0  0  0  0
    6.6140    9.6810  -22.0200 C   0  0  0  0  0  0  0  0  0  0  0  0
    7.8140    7.2870  -19.5650 C   0  0  0  0  0  0  0  0  0  0  0  0
  1  2  2  0
  1  3  1  0
  2  6  1  0
  3  5  2  0
  3 27  1  0
  4  5  1  0
  4  6  2  0
  4 18  1  0
  5 24  1  0
  6 10  1  0
  7 10  2  0
  7 23  1  0
  7 33  1  0
 21  8  1  1
  8 22  1  0
  9 21  1  0
  9 31  1  0
 11 12  1  0
 11 14  1  0
 11 15  2  0
 12 17  2  0
 12 28  1  0
 13 28  2  0
 13 29  1  0
 13 39  1  0
 14 29  2  0
 14 31  1  0
 15 30  1  0
 16 17  1  0
 16 18  1  0
 16 30  2  0
 17 26  1  0
 18 23  2  0
 20 19  1  6
 19 31  1  0
 20 22  1  0
 20 32  1  0
 21 32  1  0
 24 25  3  0
 34 37  1  0
 34 39  1  0
 35 36  1  0
 35 38  1  0
 35 41  1  0
 36 42  2  0
 37 40  1  0
 38 40  2  0
 38 43  1  0
 40 42  1  0
M  END
>  <s_m_entry_id>  (140) 
609

>  <s_m_entry_name>  (140) 
000000451.1

>  <s_m_Source_Path>  (140) 
/Users/zaksoul/Documents/3r_UNI/2nd_SEMESTER/BSC/FRAG_RECON/RESULTS/2

>  <s_m_Source_File>  (140) 
000000451.mol2

>  <i_m_Source_File_Index>  (140) 
1

$$$$
No_0_474,No_0_475,No_0_476
     RDKit          3D

 43 49  0  0  1  0  0  0  0  0999 V2000
   -5.1110    3.4500  -22.1250 C   0  0  0  0  0  0  0  0  0  0  0  0
   -5.3660    3.6340  -23.4640 C   0  0  0  0  0  0  0  0  0  0  0  0
   -3.8760    3.2010  -21.7720 C   0  0  0  0  0  0  0  0  0  0  0  0
   -2.9650    3.3220  -23.9300 C   0  0  0  0  0  0  0  0  0  0  0  0
   -2.8170    3.0820  -22.5070 C   0  0  0  0  0  0  0  0  0  0  0  0
   -4.3080    3.5800  -24.4640 C   0  0  0  0  0  0  0  0  0  0  0  0
   -3.5330    3.5960  -26.6560 C   0  0  0  0  0  0  0  0  0  0  0  0
    6.1490    2.8980  -21.3000 C   0  0  0  0  0  0  0  0  0  0  0  0
    6.0330    3.0320  -23.8510 C   0  0  0  0  0  0  0  0  0  0  0  0
   -4.5480    3.7030  -25.8020 C   0  0  0  0  0  0  0  0  0  0  0  0
    2.2480    3.5720  -23.9040 C   0  0  0  0  0  0  0  0  0  0  0  0
    1.4220    4.6800  -23.6160 C   0  0  0  0  0  0  0  0  0  0  0  0
    3.2120    5.8810  -22.9240 C   0  0  0  0  0  0  0  0  0  0  0  0
    3.6450    3.7670  -23.5790 C   0  0  0  0  0  0  0  0  0  0  0  0
    1.7100    2.4520  -24.5670 C   0  0  0  0  0  0  0  0  0  0  0  0
   -0.4200    3.2610  -24.4780 C   0  0  0  0  0  0  0  0  0  0  0  0
    0.0990    4.4850  -23.8780 C   0  0  0  0  0  0  0  0  0  0  0  0
   -1.8700    3.2640  -24.8460 C   0  0  0  0  0  0  0  0  0  0  0  0
    4.2530    1.2710  -23.2740 C   0  0  0  0  0  0  0  0  0  0  0  0
    5.1770    0.9210  -22.1170 C   0  0  2  0  0  0  0  0  0  0  0  0
    6.7710    2.4630  -22.6440 C   0  0  2  0  0  0  0  0  0  0  0  0
    5.1460    1.9260  -20.9540 C   0  0  0  0  0  0  0  0  0  0  0  0
   -2.1820    3.4180  -26.2770 C   0  0  0  0  0  0  0  0  0  0  0  0
   -1.4770    2.6730  -21.8950 C   0  0  0  0  0  0  0  0  0  0  0  0
   -0.4500    2.3290  -21.3790 C   0  0  0  0  0  0  0  0  0  0  0  0
   -0.7480    5.5290  -23.5450 F   0  0  0  0  0  0  0  0  0  0  0  0
   -3.6770    2.9630  -20.3880 F   0  0  0  0  0  0  0  0  0  0  0  0
    1.8920    5.8420  -23.0840 N   0  0  0  0  0  0  0  0  0  0  0  0
    4.1120    4.9200  -23.1330 N   0  0  0  0  0  0  0  0  0  0  0  0
    0.4060    2.3590  -24.8840 N   0  0  0  0  0  0  0  0  0  0  0  0
    4.5670    2.7200  -23.7440 N   0  0  0  0  0  0  0  0  0  0  0  0
    6.5880    0.9890  -22.5870 N   0  0  0  0  0  0  0  0  0  0  0  0
   -3.6930    3.6060  -28.0470 O   0  0  0  0  0  0  0  0  0  0  0  0
    3.3640    7.5270  -21.0360 N   0  0  0  0  0  0  0  0  0  0  0  0
    7.4130    8.5870  -20.4000 N   0  0  0  0  0  0  0  0  0  0  0  0
    6.1790    8.1690  -20.0850 N   0  0  0  0  0  0  0  0  0  0  0  0
    7.3450    9.7060  -21.1270 N   0  0  0  0  0  0  0  0  0  0  0  0
    3.7650    7.2230  -22.4550 C   0  0  0  0  0  0  0  0  0  0  0  0
    5.3290    9.0080  -20.6150 C   0  0  0  0  0  0  0  0  0  0  0  0
    3.8220    8.8660  -20.5190 C   0  0  0  0  0  0  0  0  0  0  0  0
    8.6580    7.9220  -20.0000 C   0  0  0  0  0  0  0  0  0  0  0  0
    8.4740    6.4130  -19.7650 C   0  0  0  0  0  0  0  0  0  0  0  0
    6.0790    9.9880  -21.2760 C   0  0  0  0  0  0  0  0  0  0  0  0
  1  2  2  0
  1  3  1  0
  2  6  1  0
  3  5  2  0
  3 27  1  0
  4  5  1  0
  4  6  2  0
  4 18  1  0
  5 24  1  0
  6 10  1  0
  7 10  2  0
  7 23  1  0
  7 33  1  0
 21  8  1  1
  8 22  1  0
  9 21  1  0
  9 31  1  0
 11 12  1  0
 11 14  1  0
 11 15  2  0
 12 17  2  0
 12 28  1  0
 13 28  2  0
 13 29  1  0
 13 38  1  0
 14 29  2  0
 14 31  1  0
 15 30  1  0
 16 17  1  0
 16 18  1  0
 16 30  2  0
 17 26  1  0
 18 23  2  0
 20 19  1  6
 19 31  1  0
 20 22  1  0
 20 32  1  0
 21 32  1  0
 24 25  3  0
 34 38  1  0
 34 40  1  0
 35 36  1  0
 35 37  1  0
 35 41  1  0
 36 39  2  0
 37 43  2  0
 39 40  1  0
 39 43  1  0
 41 42  1  0
M  END
>  <s_m_entry_id>  (141) 
611

>  <s_m_entry_name>  (141) 
000000453.1

>  <s_m_Source_Path>  (141) 
/Users/zaksoul/Documents/3r_UNI/2nd_SEMESTER/BSC/FRAG_RECON/RESULTS/2

>  <s_m_Source_File>  (141) 
000000453.mol2

>  <i_m_Source_File_Index>  (141) 
1

$$$$
No_0_481,No_0_482,No_0_483,No_0_484,No_0_485,No_0_486,No_0_487
     RDKit          3D

 41 47  0  0  1  0  0  0  0  0999 V2000
   -5.1830    3.8390  -22.1620 C   0  0  0  0  0  0  0  0  0  0  0  0
   -5.4490    4.0130  -23.4990 C   0  0  0  0  0  0  0  0  0  0  0  0
   -3.9460    3.5830  -21.8180 C   0  0  0  0  0  0  0  0  0  0  0  0
   -3.0550    3.6800  -23.9850 C   0  0  0  0  0  0  0  0  0  0  0  0
   -2.8950    3.4510  -22.5620 C   0  0  0  0  0  0  0  0  0  0  0  0
   -4.4010    3.9440  -24.5090 C   0  0  0  0  0  0  0  0  0  0  0  0
   -3.6460    3.9360  -26.7070 C   0  0  0  0  0  0  0  0  0  0  0  0
    6.0800    3.2130  -21.4350 C   0  0  0  0  0  0  0  0  0  0  0  0
    5.9420    3.3270  -23.9860 C   0  0  0  0  0  0  0  0  0  0  0  0
   -4.6520    4.0570  -25.8460 C   0  0  0  0  0  0  0  0  0  0  0  0
    2.1600    3.8940  -24.0090 C   0  0  0  0  0  0  0  0  0  0  0  0
    1.3450    5.0100  -23.7230 C   0  0  0  0  0  0  0  0  0  0  0  0
    3.1490    6.2040  -23.0570 C   0  0  0  0  0  0  0  0  0  0  0  0
    3.5610    4.0810  -23.6990 C   0  0  0  0  0  0  0  0  0  0  0  0
    1.6080    2.7720  -24.6570 C   0  0  0  0  0  0  0  0  0  0  0  0
   -0.5150    3.5970  -24.5560 C   0  0  0  0  0  0  0  0  0  0  0  0
    0.0180    4.8220  -23.9710 C   0  0  0  0  0  0  0  0  0  0  0  0
   -1.9680    3.6070  -24.9100 C   0  0  0  0  0  0  0  0  0  0  0  0
    4.1540    1.5840  -23.3780 C   0  0  0  0  0  0  0  0  0  0  0  0
    5.0860    1.2360  -22.2270 C   0  0  2  0  0  0  0  0  0  0  0  0
    6.6870    2.7630  -22.7820 C   0  0  2  0  0  0  0  0  0  0  0  0
    5.0740    2.2510  -21.0720 C   0  0  0  0  0  0  0  0  0  0  0  0
   -2.2930    3.7510  -26.3400 C   0  0  0  0  0  0  0  0  0  0  0  0
   -1.5520    3.0380  -21.9590 C   0  0  0  0  0  0  0  0  0  0  0  0
   -0.5230    2.6910  -21.4490 C   0  0  0  0  0  0  0  0  0  0  0  0
   -0.8190    5.8750  -23.6390 F   0  0  0  0  0  0  0  0  0  0  0  0
   -3.7370    3.3560  -20.4330 F   0  0  0  0  0  0  0  0  0  0  0  0
    1.8280    6.1720  -23.2050 N   0  0  0  0  0  0  0  0  0  0  0  0
    4.0410    5.2350  -23.2660 N   0  0  0  0  0  0  0  0  0  0  0  0
    0.3010    2.6850  -24.9610 N   0  0  0  0  0  0  0  0  0  0  0  0
    4.4740    3.0270  -23.8640 N   0  0  0  0  0  0  0  0  0  0  0  0
    6.4930    1.2910  -22.7110 N   0  0  0  0  0  0  0  0  0  0  0  0
   -3.8190    3.9360  -28.0970 O   0  0  0  0  0  0  0  0  0  0  0  0
    8.1290    9.6270  -20.5890 O   0  0  0  0  0  0  0  0  0  0  0  0
    4.0530    7.5370  -21.1360 N   0  0  0  0  0  0  0  0  0  0  0  0
    3.7150    7.5460  -22.6040 C   0  0  0  0  0  0  0  0  0  0  0  0
    5.9740    9.1850  -20.8770 C   0  0  0  0  0  0  0  0  0  0  0  0
    4.5220    8.8530  -20.5650 C   0  0  0  0  0  0  0  0  0  0  0  0
    6.5910    9.4310  -22.1320 C   0  0  0  0  0  0  0  0  0  0  0  0
    7.8700    9.6830  -21.8920 C   0  0  0  0  0  0  0  0  0  0  0  0
    6.9680    9.3260  -20.0030 C   0  0  0  0  0  0  0  0  0  0  0  0
  1  2  2  0
  1  3  1  0
  2  6  1  0
  3  5  2  0
  3 27  1  0
  4  5  1  0
  4  6  2  0
  4 18  1  0
  5 24  1  0
  6 10  1  0
  7 10  2  0
  7 23  1  0
  7 33  1  0
 21  8  1  1
  8 22  1  0
  9 21  1  0
  9 31  1  0
 11 12  1  0
 11 14  1  0
 11 15  2  0
 12 17  2  0
 12 28  1  0
 13 28  2  0
 13 29  1  0
 13 36  1  0
 14 29  2  0
 14 31  1  0
 15 30  1  0
 16 17  1  0
 16 18  1  0
 16 30  2  0
 17 26  1  0
 18 23  2  0
 20 19  1  6
 19 31  1  0
 20 22  1  0
 20 32  1  0
 21 32  1  0
 24 25  3  0
 34 40  1  0
 34 41  1  0
 35 36  1  0
 35 38  1  0
 37 38  1  0
 37 39  1  0
 37 41  2  0
 39 40  2  0
M  CHG  1  35   1
M  END
>  <s_m_entry_id>  (142) 
618

>  <s_m_entry_name>  (142) 
000000460.1

>  <s_m_Source_Path>  (142) 
/Users/zaksoul/Documents/3r_UNI/2nd_SEMESTER/BSC/FRAG_RECON/RESULTS/2

>  <s_m_Source_File>  (142) 
000000460.mol2

>  <i_m_Source_File_Index>  (142) 
1

$$$$
No_0_488,No_0_489,No_0_490,No_0_491,No_0_492,No_0_493,No_0_494,No_0_495
     RDKit          3D

 41 47  0  0  1  0  0  0  0  0999 V2000
   -5.1990    3.5300  -22.1690 C   0  0  0  0  0  0  0  0  0  0  0  0
   -5.4590    3.6920  -23.5090 C   0  0  0  0  0  0  0  0  0  0  0  0
   -3.9580    3.3140  -21.8140 C   0  0  0  0  0  0  0  0  0  0  0  0
   -3.0520    3.4300  -23.9750 C   0  0  0  0  0  0  0  0  0  0  0  0
   -2.8970    3.2110  -22.5490 C   0  0  0  0  0  0  0  0  0  0  0  0
   -4.4020    3.6510  -24.5100 C   0  0  0  0  0  0  0  0  0  0  0  0
   -3.6290    3.6590  -26.7020 C   0  0  0  0  0  0  0  0  0  0  0  0
    6.0720    3.2510  -21.3510 C   0  0  0  0  0  0  0  0  0  0  0  0
    5.9510    3.3510  -23.9040 C   0  0  0  0  0  0  0  0  0  0  0  0
   -4.6450    3.7520  -25.8490 C   0  0  0  0  0  0  0  0  0  0  0  0
    2.1540    3.8030  -23.9590 C   0  0  0  0  0  0  0  0  0  0  0  0
    1.3020    4.8940  -23.6830 C   0  0  0  0  0  0  0  0  0  0  0  0
    3.0640    6.1460  -23.0070 C   0  0  0  0  0  0  0  0  0  0  0  0
    3.5460    4.0340  -23.6380 C   0  0  0  0  0  0  0  0  0  0  0  0
    1.6410    2.6620  -24.6070 C   0  0  0  0  0  0  0  0  0  0  0  0
   -0.5070    3.4230  -24.5250 C   0  0  0  0  0  0  0  0  0  0  0  0
   -0.0160    4.6650  -23.9410 C   0  0  0  0  0  0  0  0  0  0  0  0
   -1.9570    3.3870  -24.8910 C   0  0  0  0  0  0  0  0  0  0  0  0
    4.2120    1.5570  -23.3030 C   0  0  0  0  0  0  0  0  0  0  0  0
    5.1450    1.2420  -22.1440 C   0  0  2  0  0  0  0  0  0  0  0  0
    6.7030    2.8140  -22.6910 C   0  0  2  0  0  0  0  0  0  0  0  0
    5.0930    2.2600  -20.9920 C   0  0  0  0  0  0  0  0  0  0  0  0
   -2.2750    3.5160  -26.3240 C   0  0  0  0  0  0  0  0  0  0  0  0
   -1.5470    2.8410  -21.9340 C   0  0  0  0  0  0  0  0  0  0  0  0
   -0.5120    2.5280  -21.4150 C   0  0  0  0  0  0  0  0  0  0  0  0
   -0.8870    5.6930  -23.6190 F   0  0  0  0  0  0  0  0  0  0  0  0
   -3.7520    3.0980  -20.4270 F   0  0  0  0  0  0  0  0  0  0  0  0
    1.7460    6.0730  -23.1650 N   0  0  0  0  0  0  0  0  0  0  0  0
    3.9860    5.2030  -23.2060 N   0  0  0  0  0  0  0  0  0  0  0  0
    0.3400    2.5350  -24.9210 N   0  0  0  0  0  0  0  0  0  0  0  0
    4.4920    3.0070  -23.7920 N   0  0  0  0  0  0  0  0  0  0  0  0
    6.5540    1.3380  -22.6160 N   0  0  0  0  0  0  0  0  0  0  0  0
   -3.7910    3.6480  -28.0940 O   0  0  0  0  0  0  0  0  0  0  0  0
    7.8500    8.8310  -20.6240 O   0  0  0  0  0  0  0  0  0  0  0  0
    3.5680    7.6330  -21.0550 N   0  0  0  0  0  0  0  0  0  0  0  0
    6.2480    9.5850  -21.8140 N   0  0  0  0  0  0  0  0  0  0  0  0
    4.1530    8.9120  -20.5140 C   0  0  0  0  0  0  0  0  0  0  0  0
    3.5860    7.5050  -22.5550 C   0  0  0  0  0  0  0  0  0  0  0  0
    5.6530    8.9890  -20.7370 C   0  0  0  0  0  0  0  0  0  0  0  0
    6.6580    8.5260  -20.0060 C   0  0  0  0  0  0  0  0  0  0  0  0
    7.5480    9.4550  -21.6840 C   0  0  0  0  0  0  0  0  0  0  0  0
  1  2  2  0
  1  3  1  0
  2  6  1  0
  3  5  2  0
  3 27  1  0
  4  5  1  0
  4  6  2  0
  4 18  1  0
  5 24  1  0
  6 10  1  0
  7 10  2  0
  7 23  1  0
  7 33  1  0
 21  8  1  1
  8 22  1  0
  9 21  1  0
  9 31  1  0
 11 12  1  0
 11 14  1  0
 11 15  2  0
 12 17  2  0
 12 28  1  0
 13 28  2  0
 13 29  1  0
 13 38  1  0
 14 29  2  0
 14 31  1  0
 15 30  1  0
 16 17  1  0
 16 18  1  0
 16 30  2  0
 17 26  1  0
 18 23  2  0
 20 19  1  6
 19 31  1  0
 20 22  1  0
 20 32  1  0
 21 32  1  0
 24 25  3  0
 34 40  1  0
 34 41  1  0
 35 37  1  0
 35 38  1  0
 36 39  1  0
 36 41  2  0
 37 39  1  0
 39 40  2  0
M  CHG  1  35   1
M  END
>  <s_m_entry_id>  (143) 
625

>  <s_m_entry_name>  (143) 
000000467.1

>  <s_m_Source_Path>  (143) 
/Users/zaksoul/Documents/3r_UNI/2nd_SEMESTER/BSC/FRAG_RECON/RESULTS/2

>  <s_m_Source_File>  (143) 
000000467.mol2

>  <i_m_Source_File_Index>  (143) 
1

$$$$
No_0_496,No_0_497,No_0_498,No_0_499,No_0_500,No_0_501,No_0_502
     RDKit          3D

 41 47  0  0  1  0  0  0  0  0999 V2000
   -5.2450    3.4500  -21.9800 C   0  0  0  0  0  0  0  0  0  0  0  0
   -5.5210    3.6340  -23.3140 C   0  0  0  0  0  0  0  0  0  0  0  0
   -4.0060    3.1880  -21.6480 C   0  0  0  0  0  0  0  0  0  0  0  0
   -3.1320    3.2960  -23.8220 C   0  0  0  0  0  0  0  0  0  0  0  0
   -2.9620    3.0580  -22.4010 C   0  0  0  0  0  0  0  0  0  0  0  0
   -4.4820    3.5670  -24.3330 C   0  0  0  0  0  0  0  0  0  0  0  0
   -3.7460    3.5720  -26.5370 C   0  0  0  0  0  0  0  0  0  0  0  0
    6.0220    2.7840  -21.3510 C   0  0  0  0  0  0  0  0  0  0  0  0
    5.8620    2.9140  -23.9000 C   0  0  0  0  0  0  0  0  0  0  0  0
   -4.7440    3.6900  -25.6670 C   0  0  0  0  0  0  0  0  0  0  0  0
    2.0820    3.4930  -23.8880 C   0  0  0  0  0  0  0  0  0  0  0  0
    1.2730    4.6100  -23.5870 C   0  0  0  0  0  0  0  0  0  0  0  0
    3.0870    5.7940  -22.9290 C   0  0  0  0  0  0  0  0  0  0  0  0
    3.4870    3.6740  -23.5870 C   0  0  0  0  0  0  0  0  0  0  0  0
    1.5210    2.3780  -24.5390 C   0  0  0  0  0  0  0  0  0  0  0  0
   -0.5980    3.2090  -24.4140 C   0  0  0  0  0  0  0  0  0  0  0  0
   -0.0560    4.4280  -23.8260 C   0  0  0  0  0  0  0  0  0  0  0  0
   -2.0540    3.2250  -24.7560 C   0  0  0  0  0  0  0  0  0  0  0  0
    4.0740    1.1730  -23.2880 C   0  0  0  0  0  0  0  0  0  0  0  0
    5.0150    0.8150  -22.1470 C   0  0  2  0  0  0  0  0  0  0  0  0
    6.6160    2.3400  -22.7050 C   0  0  2  0  0  0  0  0  0  0  0  0
    5.0150    1.8220  -20.9850 C   0  0  0  0  0  0  0  0  0  0  0  0
   -2.3900    3.3800  -26.1820 C   0  0  0  0  0  0  0  0  0  0  0  0
   -1.6160    2.6360  -21.8120 C   0  0  0  0  0  0  0  0  0  0  0  0
   -0.5840    2.2830  -21.3130 C   0  0  0  0  0  0  0  0  0  0  0  0
   -0.8870    5.4820  -23.4790 F   0  0  0  0  0  0  0  0  0  0  0  0
   -3.7860    2.9510  -20.2670 F   0  0  0  0  0  0  0  0  0  0  0  0
    1.7640    5.7680  -23.0660 N   0  0  0  0  0  0  0  0  0  0  0  0
    3.9730    4.8230  -23.1520 N   0  0  0  0  0  0  0  0  0  0  0  0
    0.2120    2.2970  -24.8320 N   0  0  0  0  0  0  0  0  0  0  0  0
    4.3950    2.6180  -23.7670 N   0  0  0  0  0  0  0  0  0  0  0  0
    6.4180    0.8680  -22.6420 N   0  0  0  0  0  0  0  0  0  0  0  0
   -3.9300    3.5810  -27.9250 O   0  0  0  0  0  0  0  0  0  0  0  0
    3.3440    7.3980  -21.0230 N   0  0  0  0  0  0  0  0  0  0  0  0
    6.2650    7.8860  -19.9480 N   0  0  0  0  0  0  0  0  0  0  0  0
    6.1040    9.4840  -21.4120 N   0  0  0  0  0  0  0  0  0  0  0  0
    3.9230    8.6700  -20.4590 C   0  0  0  0  0  0  0  0  0  0  0  0
    3.6610    7.1310  -22.4720 C   0  0  0  0  0  0  0  0  0  0  0  0
    5.4330    8.6920  -20.5930 C   0  0  0  0  0  0  0  0  0  0  0  0
    7.5250    8.2020  -20.4140 C   0  0  0  0  0  0  0  0  0  0  0  0
    7.4350    9.1810  -21.3090 C   0  0  0  0  0  0  0  0  0  0  0  0
  1  2  2  0
  1  3  1  0
  2  6  1  0
  3  5  2  0
  3 27  1  0
  4  5  1  0
  4  6  2  0
  4 18  1  0
  5 24  1  0
  6 10  1  0
  7 10  2  0
  7 23  1  0
  7 33  1  0
 21  8  1  1
  8 22  1  0
  9 21  1  0
  9 31  1  0
 11 12  1  0
 11 14  1  0
 11 15  2  0
 12 17  2  0
 12 28  1  0
 13 28  2  0
 13 29  1  0
 13 38  1  0
 14 29  2  0
 14 31  1  0
 15 30  1  0
 16 17  1  0
 16 18  1  0
 16 30  2  0
 17 26  1  0
 18 23  2  0
 20 19  1  6
 19 31  1  0
 20 22  1  0
 20 32  1  0
 21 32  1  0
 24 25  3  0
 34 37  1  0
 34 38  1  0
 35 39  1  0
 35 40  1  0
 36 39  1  0
 36 41  1  0
 37 39  1  0
 40 41  2  0
M  END
>  <s_m_entry_id>  (144) 
633

>  <s_m_entry_name>  (144) 
000000475.1

>  <s_m_Source_Path>  (144) 
/Users/zaksoul/Documents/3r_UNI/2nd_SEMESTER/BSC/FRAG_RECON/RESULTS/2

>  <s_m_Source_File>  (144) 
000000475.mol2

>  <i_m_Source_File_Index>  (144) 
1

$$$$
No_0_503,No_0_504,No_0_505
     RDKit          3D

 42 48  0  0  1  0  0  0  0  0999 V2000
   -5.1990    3.6920  -21.8560 C   0  0  0  0  0  0  0  0  0  0  0  0
   -5.4650    3.8830  -23.1920 C   0  0  0  0  0  0  0  0  0  0  0  0
   -3.9620    3.4350  -21.5150 C   0  0  0  0  0  0  0  0  0  0  0  0
   -3.0690    3.5640  -23.6800 C   0  0  0  0  0  0  0  0  0  0  0  0
   -2.9100    3.3160  -22.2600 C   0  0  0  0  0  0  0  0  0  0  0  0
   -4.4160    3.8300  -24.2010 C   0  0  0  0  0  0  0  0  0  0  0  0
   -3.6600    3.8540  -26.3990 C   0  0  0  0  0  0  0  0  0  0  0  0
    6.0650    3.0900  -21.1310 C   0  0  0  0  0  0  0  0  0  0  0  0
    5.9280    3.2370  -23.6810 C   0  0  0  0  0  0  0  0  0  0  0  0
   -4.6670    3.9600  -25.5370 C   0  0  0  0  0  0  0  0  0  0  0  0
    2.1440    3.7930  -23.6980 C   0  0  0  0  0  0  0  0  0  0  0  0
    1.3260    4.9030  -23.3980 C   0  0  0  0  0  0  0  0  0  0  0  0
    3.1260    6.0930  -22.7150 C   0  0  0  0  0  0  0  0  0  0  0  0
    3.5450    3.9800  -23.3840 C   0  0  0  0  0  0  0  0  0  0  0  0
    1.5960    2.6780  -24.3620 C   0  0  0  0  0  0  0  0  0  0  0  0
   -0.5300    3.4960  -24.2510 C   0  0  0  0  0  0  0  0  0  0  0  0
   -0.0000    4.7140  -23.6490 C   0  0  0  0  0  0  0  0  0  0  0  0
   -1.9820    3.5060  -24.6060 C   0  0  0  0  0  0  0  0  0  0  0  0
    4.1450    1.4810  -23.0970 C   0  0  0  0  0  0  0  0  0  0  0  0
    5.0780    1.1210  -21.9500 C   0  0  2  0  0  0  0  0  0  0  0  0
    6.6740    2.6590  -22.4830 C   0  0  2  0  0  0  0  0  0  0  0  0
    5.0610    2.1200  -20.7810 C   0  0  0  0  0  0  0  0  0  0  0  0
   -2.3070    3.6680  -26.0330 C   0  0  0  0  0  0  0  0  0  0  0  0
   -1.5670    2.8990  -21.6620 C   0  0  0  0  0  0  0  0  0  0  0  0
   -0.5370    2.5480  -21.1560 C   0  0  0  0  0  0  0  0  0  0  0  0
   -0.8400    5.7600  -23.3030 F   0  0  0  0  0  0  0  0  0  0  0  0
   -3.7530    3.1900  -20.1340 F   0  0  0  0  0  0  0  0  0  0  0  0
    1.8050    6.0600  -22.8640 N   0  0  0  0  0  0  0  0  0  0  0  0
    4.0210    5.1290  -22.9360 N   0  0  0  0  0  0  0  0  0  0  0  0
    0.2900    2.5920  -24.6680 N   0  0  0  0  0  0  0  0  0  0  0  0
    4.4610    2.9310  -23.5630 N   0  0  0  0  0  0  0  0  0  0  0  0
    6.4850    1.1860  -22.4320 N   0  0  0  0  0  0  0  0  0  0  0  0
   -3.8320    3.8720  -27.7890 O   0  0  0  0  0  0  0  0  0  0  0  0
    7.2750    8.7820  -19.9390 O   0  0  0  0  0  0  0  0  0  0  0  0
    4.0230    7.3970  -20.7770 N   0  0  0  0  0  0  0  0  0  0  0  0
    6.7270    7.8510  -21.7780 N   0  0  0  0  0  0  0  0  0  0  0  0
    4.8450    8.5610  -20.2860 C   0  0  0  0  0  0  0  0  0  0  0  0
    3.6880    7.4310  -22.2440 C   0  0  0  0  0  0  0  0  0  0  0  0
    9.8210    8.7280  -20.0810 C   0  0  0  0  0  0  0  0  0  0  0  0
    6.3060    8.4030  -20.6650 C   0  0  0  0  0  0  0  0  0  0  0  0
    8.0910    7.8750  -21.7590 C   0  0  0  0  0  0  0  0  0  0  0  0
    8.4320    8.4520  -20.6140 C   0  0  0  0  0  0  0  0  0  0  0  0
  1  2  2  0
  1  3  1  0
  2  6  1  0
  3  5  2  0
  3 27  1  0
  4  5  1  0
  4  6  2  0
  4 18  1  0
  5 24  1  0
  6 10  1  0
  7 10  2  0
  7 23  1  0
  7 33  1  0
 21  8  1  1
  8 22  1  0
  9 21  1  0
  9 31  1  0
 11 12  1  0
 11 14  1  0
 11 15  2  0
 12 17  2  0
 12 28  1  0
 13 28  2  0
 13 29  1  0
 13 38  1  0
 14 29  2  0
 14 31  1  0
 15 30  1  0
 16 17  1  0
 16 18  1  0
 16 30  2  0
 17 26  1  0
 18 23  2  0
 20 19  1  6
 19 31  1  0
 20 22  1  0
 20 32  1  0
 21 32  1  0
 24 25  3  0
 34 40  1  0
 34 42  1  0
 35 37  1  0
 35 38  1  0
 36 40  2  0
 36 41  1  0
 37 40  1  0
 39 42  1  0
 41 42  2  0
M  CHG  1  35   1
M  END
>  <s_m_entry_id>  (145) 
640

>  <s_m_entry_name>  (145) 
000000482.1

>  <s_m_Source_Path>  (145) 
/Users/zaksoul/Documents/3r_UNI/2nd_SEMESTER/BSC/FRAG_RECON/RESULTS/2

>  <s_m_Source_File>  (145) 
000000482.mol2

>  <i_m_Source_File_Index>  (145) 
1

$$$$
No_0_506,No_0_507,No_0_508,No_0_509
     RDKit          3D

 43 49  0  0  1  0  0  0  0  0999 V2000
   -4.9440    3.5880  -21.6330 C   0  0  0  0  0  0  0  0  0  0  0  0
   -5.2430    3.7950  -22.9590 C   0  0  0  0  0  0  0  0  0  0  0  0
   -3.7020    3.3080  -21.3300 C   0  0  0  0  0  0  0  0  0  0  0  0
   -2.8690    3.4390  -23.5180 C   0  0  0  0  0  0  0  0  0  0  0  0
   -2.6730    3.1770  -22.1050 C   0  0  0  0  0  0  0  0  0  0  0  0
   -4.2250    3.7320  -23.9990 C   0  0  0  0  0  0  0  0  0  0  0  0
   -3.5310    3.7610  -26.2170 C   0  0  0  0  0  0  0  0  0  0  0  0
    6.3250    2.7900  -21.2340 C   0  0  0  0  0  0  0  0  0  0  0  0
    6.1180    2.9600  -23.7770 C   0  0  0  0  0  0  0  0  0  0  0  0
   -4.5110    3.8780  -25.3250 C   0  0  0  0  0  0  0  0  0  0  0  0
    2.3460    3.5800  -23.6830 C   0  0  0  0  0  0  0  0  0  0  0  0
    1.5550    4.7010  -23.3510 C   0  0  0  0  0  0  0  0  0  0  0  0
    3.3940    5.8550  -22.7100 C   0  0  0  0  0  0  0  0  0  0  0  0
    3.7580    3.7410  -23.4080 C   0  0  0  0  0  0  0  0  0  0  0  0
    1.7600    2.4800  -24.3390 C   0  0  0  0  0  0  0  0  0  0  0  0
   -0.3480    3.3330  -24.1610 C   0  0  0  0  0  0  0  0  0  0  0  0
    0.2190    4.5370  -23.5660 C   0  0  0  0  0  0  0  0  0  0  0  0
   -1.8100    3.3700  -24.4750 C   0  0  0  0  0  0  0  0  0  0  0  0
    4.3230    1.2290  -23.1560 C   0  0  0  0  0  0  0  0  0  0  0  0
    5.2810    0.8440  -22.0400 C   0  0  2  0  0  0  0  0  0  0  0  0
    6.8880    2.3600  -22.6070 C   0  0  2  0  0  0  0  0  0  0  0  0
    5.3150    1.8340  -20.8630 C   0  0  0  0  0  0  0  0  0  0  0  0
   -2.1720    3.5500  -25.8910 C   0  0  0  0  0  0  0  0  0  0  0  0
   -1.3210    2.7320  -21.5490 C   0  0  0  0  0  0  0  0  0  0  0  0
   -0.2840    2.3600  -21.0750 C   0  0  0  0  0  0  0  0  0  0  0  0
   -0.5920    5.5940  -23.1880 F   0  0  0  0  0  0  0  0  0  0  0  0
   -3.4570    3.0480  -19.9560 F   0  0  0  0  0  0  0  0  0  0  0  0
    2.0690    5.8450  -22.8220 N   0  0  0  0  0  0  0  0  0  0  0  0
    4.2650    4.8780  -22.9650 N   0  0  0  0  0  0  0  0  0  0  0  0
    0.4440    2.4180  -24.6080 N   0  0  0  0  0  0  0  0  0  0  0  0
    4.6500    2.6770  -23.6200 N   0  0  0  0  0  0  0  0  0  0  0  0
    6.6750    0.8890  -22.5610 N   0  0  0  0  0  0  0  0  0  0  0  0
   -3.7430    3.7930  -27.6010 O   0  0  0  0  0  0  0  0  0  0  0  0
    4.8140    6.9880  -20.9970 N   0  0  0  0  0  0  0  0  0  0  0  0
    8.0660    7.8370  -20.7880 N   0  0  0  0  0  0  0  0  0  0  0  0
    7.0980    9.0680  -22.3090 N   0  0  0  0  0  0  0  0  0  0  0  0
    9.0200    8.2240  -21.6720 N   0  0  0  0  0  0  0  0  0  0  0  0
    5.5450    8.2160  -20.5180 C   0  0  0  0  0  0  0  0  0  0  0  0
    3.9920    7.1790  -22.2450 C   0  0  0  0  0  0  0  0  0  0  0  0
    6.8910    8.3760  -21.2040 C   0  0  0  0  0  0  0  0  0  0  0  0
    8.3360    6.9960  -19.6150 C   0  0  0  0  0  0  0  0  0  0  0  0
    8.7640    7.8540  -18.4140 C   0  0  0  0  0  0  0  0  0  0  0  0
    8.4150    8.9520  -22.5650 C   0  0  0  0  0  0  0  0  0  0  0  0
  1  2  2  0
  1  3  1  0
  2  6  1  0
  3  5  2  0
  3 27  1  0
  4  5  1  0
  4  6  2  0
  4 18  1  0
  5 24  1  0
  6 10  1  0
  7 10  2  0
  7 23  1  0
  7 33  1  0
 21  8  1  1
  8 22  1  0
  9 21  1  0
  9 31  1  0
 11 12  1  0
 11 14  1  0
 11 15  2  0
 12 17  2  0
 12 28  1  0
 13 28  2  0
 13 29  1  0
 13 39  1  0
 14 29  2  0
 14 31  1  0
 15 30  1  0
 16 17  1  0
 16 18  1  0
 16 30  2  0
 17 26  1  0
 18 23  2  0
 20 19  1  6
 19 31  1  0
 20 22  1  0
 20 32  1  0
 21 32  1  0
 24 25  3  0
 34 38  1  0
 34 39  1  0
 35 37  1  0
 35 40  1  0
 35 41  1  0
 36 40  2  0
 36 43  1  0
 37 43  2  0
 38 40  1  0
 41 42  1  0
M  END
>  <s_m_entry_id>  (146) 
643

>  <s_m_entry_name>  (146) 
000000485.1

>  <s_m_Source_Path>  (146) 
/Users/zaksoul/Documents/3r_UNI/2nd_SEMESTER/BSC/FRAG_RECON/RESULTS/2

>  <s_m_Source_File>  (146) 
000000485.mol2

>  <i_m_Source_File_Index>  (146) 
1

$$$$
No_0_510,No_0_511
     RDKit          3D

 42 48  0  0  1  0  0  0  0  0999 V2000
   -5.3520    3.6230  -21.8960 C   0  0  0  0  0  0  0  0  0  0  0  0
   -5.6250    3.7890  -23.2330 C   0  0  0  0  0  0  0  0  0  0  0  0
   -4.1150    3.3550  -21.5600 C   0  0  0  0  0  0  0  0  0  0  0  0
   -3.2400    3.4210  -23.7350 C   0  0  0  0  0  0  0  0  0  0  0  0
   -3.0720    3.2030  -22.3110 C   0  0  0  0  0  0  0  0  0  0  0  0
   -4.5860    3.6970  -24.2500 C   0  0  0  0  0  0  0  0  0  0  0  0
   -3.8490    3.6600  -26.4540 C   0  0  0  0  0  0  0  0  0  0  0  0
    5.9080    2.8590  -21.2510 C   0  0  0  0  0  0  0  0  0  0  0  0
    5.7510    2.9520  -23.8020 C   0  0  0  0  0  0  0  0  0  0  0  0
   -4.8460    3.8010  -25.5860 C   0  0  0  0  0  0  0  0  0  0  0  0
    1.9770    3.5670  -23.8010 C   0  0  0  0  0  0  0  0  0  0  0  0
    1.1780    4.6960  -23.5180 C   0  0  0  0  0  0  0  0  0  0  0  0
    3.0030    5.8730  -22.8770 C   0  0  0  0  0  0  0  0  0  0  0  0
    3.3830    3.7390  -23.5030 C   0  0  0  0  0  0  0  0  0  0  0  0
    1.4050    2.4470  -24.4350 C   0  0  0  0  0  0  0  0  0  0  0  0
   -0.7060    3.3000  -24.3240 C   0  0  0  0  0  0  0  0  0  0  0  0
   -0.1530    4.5230  -23.7550 C   0  0  0  0  0  0  0  0  0  0  0  0
   -2.1620    3.3250  -24.6670 C   0  0  0  0  0  0  0  0  0  0  0  0
    3.9460    1.2370  -23.1640 C   0  0  0  0  0  0  0  0  0  0  0  0
    4.8830    0.8880  -22.0180 C   0  0  2  0  0  0  0  0  0  0  0  0
    6.4990    2.3890  -22.5980 C   0  0  2  0  0  0  0  0  0  0  0  0
    4.8920    1.9130  -20.8720 C   0  0  0  0  0  0  0  0  0  0  0  0
   -2.4960    3.4610  -26.0960 C   0  0  0  0  0  0  0  0  0  0  0  0
   -1.7300    2.7780  -21.7140 C   0  0  0  0  0  0  0  0  0  0  0  0
   -0.7020    2.4220  -21.2100 C   0  0  0  0  0  0  0  0  0  0  0  0
   -0.9730    5.5900  -23.4250 F   0  0  0  0  0  0  0  0  0  0  0  0
   -3.8980    3.1370  -20.1750 F   0  0  0  0  0  0  0  0  0  0  0  0
    1.6800    5.8570  -23.0140 N   0  0  0  0  0  0  0  0  0  0  0  0
    3.8800    4.8900  -23.0850 N   0  0  0  0  0  0  0  0  0  0  0  0
    0.0950    2.3740  -24.7280 N   0  0  0  0  0  0  0  0  0  0  0  0
    4.2810    2.6710  -23.6650 N   0  0  0  0  0  0  0  0  0  0  0  0
    6.2870    0.9200  -22.5130 N   0  0  0  0  0  0  0  0  0  0  0  0
   -4.0330    3.6500  -27.8430 O   0  0  0  0  0  0  0  0  0  0  0  0
    3.9380    7.2080  -20.9750 N   0  0  0  0  0  0  0  0  0  0  0  0
    7.1940    8.6270  -20.2830 N   0  0  0  0  0  0  0  0  0  0  0  0
    6.3990    8.5560  -22.2700 N   0  0  0  0  0  0  0  0  0  0  0  0
    7.7620    8.6450  -22.3470 N   0  0  0  0  0  0  0  0  0  0  0  0
    3.5900    7.2110  -22.4410 C   0  0  0  0  0  0  0  0  0  0  0  0
    6.0520    8.5440  -21.0200 C   0  0  0  0  0  0  0  0  0  0  0  0
    4.6380    8.4460  -20.4810 C   0  0  0  0  0  0  0  0  0  0  0  0
    8.2450    8.6900  -21.1450 C   0  0  0  0  0  0  0  0  0  0  0  0
    9.7070    8.7920  -20.7690 C   0  0  0  0  0  0  0  0  0  0  0  0
  1  2  2  0
  1  3  1  0
  2  6  1  0
  3  5  2  0
  3 27  1  0
  4  5  1  0
  4  6  2  0
  4 18  1  0
  5 24  1  0
  6 10  1  0
  7 10  2  0
  7 23  1  0
  7 33  1  0
 21  8  1  1
  8 22  1  0
  9 21  1  0
  9 31  1  0
 11 12  1  0
 11 14  1  0
 11 15  2  0
 12 17  2  0
 12 28  1  0
 13 28  2  0
 13 29  1  0
 13 38  1  0
 14 29  2  0
 14 31  1  0
 15 30  1  0
 16 17  1  0
 16 18  1  0
 16 30  2  0
 17 26  1  0
 18 23  2  0
 20 19  1  6
 19 31  1  0
 20 22  1  0
 20 32  1  0
 21 32  1  0
 24 25  3  0
 34 38  1  0
 34 40  1  0
 35 39  1  0
 35 41  2  0
 36 37  1  0
 36 39  2  0
 37 41  1  0
 39 40  1  0
 41 42  1  0
M  END
>  <s_m_entry_id>  (147) 
647

>  <s_m_entry_name>  (147) 
000000489.1

>  <s_m_Source_Path>  (147) 
/Users/zaksoul/Documents/3r_UNI/2nd_SEMESTER/BSC/FRAG_RECON/RESULTS/2

>  <s_m_Source_File>  (147) 
000000489.mol2

>  <i_m_Source_File_Index>  (147) 
1

$$$$
No_0_514
     RDKit          3D

 42 47  0  0  1  0  0  0  0  0999 V2000
   -5.3970    3.2560  -21.8350 C   0  0  0  0  0  0  0  0  0  0  0  0
   -5.6550    3.4600  -23.1700 C   0  0  0  0  0  0  0  0  0  0  0  0
   -4.1580    3.0150  -21.4880 C   0  0  0  0  0  0  0  0  0  0  0  0
   -3.2510    3.1850  -23.6450 C   0  0  0  0  0  0  0  0  0  0  0  0
   -3.0980    2.9220  -22.2270 C   0  0  0  0  0  0  0  0  0  0  0  0
   -4.5980    3.4370  -24.1730 C   0  0  0  0  0  0  0  0  0  0  0  0
   -3.8270    3.5010  -26.3640 C   0  0  0  0  0  0  0  0  0  0  0  0
    5.8710    2.8240  -21.0330 C   0  0  0  0  0  0  0  0  0  0  0  0
    5.7500    3.0020  -23.5810 C   0  0  0  0  0  0  0  0  0  0  0  0
   -4.8410    3.5800  -25.5080 C   0  0  0  0  0  0  0  0  0  0  0  0
    1.9580    3.4980  -23.6200 C   0  0  0  0  0  0  0  0  0  0  0  0
    1.1190    4.5900  -23.3120 C   0  0  0  0  0  0  0  0  0  0  0  0
    2.8950    5.8010  -22.6000 C   0  0  0  0  0  0  0  0  0  0  0  0
    3.3530    3.7030  -23.2930 C   0  0  0  0  0  0  0  0  0  0  0  0
    1.4330    2.3830  -24.3020 C   0  0  0  0  0  0  0  0  0  0  0  0
   -0.7070    3.1650  -24.1970 C   0  0  0  0  0  0  0  0  0  0  0  0
   -0.2020    4.3840  -23.5760 C   0  0  0  0  0  0  0  0  0  0  0  0
   -2.1570    3.1560  -24.5620 C   0  0  0  0  0  0  0  0  0  0  0  0
    3.9910    1.2100  -23.0330 C   0  0  0  0  0  0  0  0  0  0  0  0
    4.9210    0.8510  -21.8840 C   0  0  2  0  0  0  0  0  0  0  0  0
    6.4960    2.4210  -22.3860 C   0  0  2  0  0  0  0  0  0  0  0  0
    4.8800    1.8340  -20.7030 C   0  0  0  0  0  0  0  0  0  0  0  0
   -2.4730    3.3320  -25.9900 C   0  0  0  0  0  0  0  0  0  0  0  0
   -1.7530    2.5190  -21.6240 C   0  0  0  0  0  0  0  0  0  0  0  0
   -0.7210    2.1780  -21.1150 C   0  0  0  0  0  0  0  0  0  0  0  0
   -1.0610    5.4120  -23.2230 F   0  0  0  0  0  0  0  0  0  0  0  0
   -3.9540    2.7550  -20.1080 F   0  0  0  0  0  0  0  0  0  0  0  0
    1.5760    5.7480  -22.7590 N   0  0  0  0  0  0  0  0  0  0  0  0
    3.8070    4.8540  -22.8270 N   0  0  0  0  0  0  0  0  0  0  0  0
    0.1300    2.2800  -24.6190 N   0  0  0  0  0  0  0  0  0  0  0  0
    4.2870    2.6710  -23.4780 N   0  0  0  0  0  0  0  0  0  0  0  0
    6.3300    0.9440  -22.3550 N   0  0  0  0  0  0  0  0  0  0  0  0
   -3.9890    3.5340  -27.7550 O   0  0  0  0  0  0  0  0  0  0  0  0
    6.7070    8.5430  -23.0180 N   0  0  0  0  0  0  0  0  0  0  0  0
    4.7690    9.6210  -22.0270 N   0  0  0  0  0  0  0  0  0  0  0  0
    4.8090    7.3320  -22.5540 N   0  0  0  0  0  0  0  0  0  0  0  0
    5.4350    8.5390  -22.5280 C   0  0  0  0  0  0  0  0  0  0  0  0
    5.0430   11.0100  -22.3880 C   0  0  0  0  0  0  0  0  0  0  0  0
    7.7150    9.5580  -22.7240 C   0  0  0  0  0  0  0  0  0  0  0  0
    3.4330    7.1410  -22.1080 C   0  0  0  0  0  0  0  0  0  0  0  0
    7.9460    9.6660  -21.2060 C   0  0  0  0  0  0  0  0  0  0  0  0
    4.9580   11.2080  -23.9120 C   0  0  0  0  0  0  0  0  0  0  0  0
  1  2  2  0
  1  3  1  0
  2  6  1  0
  3  5  2  0
  3 27  1  0
  4  5  1  0
  4  6  2  0
  4 18  1  0
  5 24  1  0
  6 10  1  0
  7 10  2  0
  7 23  1  0
  7 33  1  0
 21  8  1  1
  8 22  1  0
  9 21  1  0
  9 31  1  0
 11 12  2  0
 11 14  1  0
 11 15  1  0
 12 17  1  0
 12 28  1  0
 13 28  2  0
 13 29  1  0
 13 40  1  0
 14 29  2  0
 14 31  1  0
 15 30  2  0
 16 17  2  0
 16 18  1  0
 16 30  1  0
 17 26  1  0
 18 23  2  0
 20 19  1  6
 19 31  1  0
 20 22  1  0
 20 32  1  0
 21 32  1  0
 24 25  3  0
 34 37  2  0
 34 39  1  0
 35 37  1  0
 35 38  1  0
 36 37  1  0
 36 40  1  0
 38 42  1  0
 39 41  1  0
M  CHG  1  34   1
M  END
>  <s_m_entry_id>  (148) 
651

>  <s_m_entry_name>  (148) 
000000493.1

>  <s_m_Source_Path>  (148) 
/Users/zaksoul/Documents/3r_UNI/2nd_SEMESTER/BSC/FRAG_RECON/RESULTS/2

>  <s_m_Source_File>  (148) 
000000493.mol2

>  <i_m_Source_File_Index>  (148) 
1

$$$$
No_0_515,No_0_516,No_0_517,No_0_518
     RDKit          3D

 40 46  0  0  1  0  0  0  0  0999 V2000
   -4.9170    3.6370  -22.0290 C   0  0  0  0  0  0  0  0  0  0  0  0
   -5.1830    3.8170  -23.3660 C   0  0  0  0  0  0  0  0  0  0  0  0
   -3.6840    3.3600  -21.6880 C   0  0  0  0  0  0  0  0  0  0  0  0
   -2.7960    3.4430  -23.8580 C   0  0  0  0  0  0  0  0  0  0  0  0
   -2.6370    3.2100  -22.4350 C   0  0  0  0  0  0  0  0  0  0  0  0
   -4.1390    3.7300  -24.3780 C   0  0  0  0  0  0  0  0  0  0  0  0
   -3.3900    3.7100  -26.5780 C   0  0  0  0  0  0  0  0  0  0  0  0
    6.3350    2.8160  -21.3300 C   0  0  0  0  0  0  0  0  0  0  0  0
    6.1920    2.9340  -23.8810 C   0  0  0  0  0  0  0  0  0  0  0  0
   -4.3910    3.8480  -25.7140 C   0  0  0  0  0  0  0  0  0  0  0  0
    2.4210    3.5660  -23.8940 C   0  0  0  0  0  0  0  0  0  0  0  0
    1.6260    4.6960  -23.6050 C   0  0  0  0  0  0  0  0  0  0  0  0
    3.4520    5.8580  -22.9430 C   0  0  0  0  0  0  0  0  0  0  0  0
    3.8260    3.7290  -23.5870 C   0  0  0  0  0  0  0  0  0  0  0  0
    1.8480    2.4540  -24.5420 C   0  0  0  0  0  0  0  0  0  0  0  0
   -0.2600    3.3160  -24.4350 C   0  0  0  0  0  0  0  0  0  0  0  0
    0.2950    4.5310  -23.8510 C   0  0  0  0  0  0  0  0  0  0  0  0
   -1.7140    3.3510  -24.7850 C   0  0  0  0  0  0  0  0  0  0  0  0
    4.3770    1.2210  -23.2690 C   0  0  0  0  0  0  0  0  0  0  0  0
    5.3050    0.8570  -22.1210 C   0  0  2  0  0  0  0  0  0  0  0  0
    6.9310    2.3560  -22.6790 C   0  0  2  0  0  0  0  0  0  0  0  0
    5.3130    1.8710  -20.9650 C   0  0  0  0  0  0  0  0  0  0  0  0
   -2.0400    3.5020  -26.2140 C   0  0  0  0  0  0  0  0  0  0  0  0
   -1.3010    2.7740  -21.8350 C   0  0  0  0  0  0  0  0  0  0  0  0
   -0.2770    2.4080  -21.3280 C   0  0  0  0  0  0  0  0  0  0  0  0
   -0.5220    5.5980  -23.5150 F   0  0  0  0  0  0  0  0  0  0  0  0
   -3.4750    3.1280  -20.3040 F   0  0  0  0  0  0  0  0  0  0  0  0
    2.1300    5.8500  -23.0880 N   0  0  0  0  0  0  0  0  0  0  0  0
    4.3260    4.8730  -23.1550 N   0  0  0  0  0  0  0  0  0  0  0  0
    0.5390    2.3910  -24.8430 N   0  0  0  0  0  0  0  0  0  0  0  0
    4.7200    2.6590  -23.7550 N   0  0  0  0  0  0  0  0  0  0  0  0
    6.7120    0.8880  -22.6080 N   0  0  0  0  0  0  0  0  0  0  0  0
   -3.5660    3.7140  -27.9680 O   0  0  0  0  0  0  0  0  0  0  0  0
    5.2850    7.1380  -21.9820 O   0  0  0  0  0  0  0  0  0  0  0  0
    3.3980    8.2090  -22.6250 O   0  0  0  0  0  0  0  0  0  0  0  0
    6.8360    8.7630  -19.8400 N   0  0  0  0  0  0  0  0  0  0  0  0
    5.4360    8.9980  -20.3100 C   0  0  0  0  0  0  0  0  0  0  0  0
    7.3550    8.1670  -21.1090 C   0  0  0  0  0  0  0  0  0  0  0  0
    5.9210    8.3870  -21.6470 C   0  0  0  0  0  0  0  0  0  0  0  0
    4.0370    7.1770  -22.4960 C   0  0  0  0  0  0  0  0  0  0  0  0
  1  2  2  0
  1  3  1  0
  2  6  1  0
  3  5  2  0
  3 27  1  0
  4  5  1  0
  4  6  2  0
  4 18  1  0
  5 24  1  0
  6 10  1  0
  7 10  2  0
  7 23  1  0
  7 33  1  0
 21  8  1  1
  8 22  1  0
  9 21  1  0
  9 31  1  0
 11 12  1  0
 11 14  1  0
 11 15  2  0
 12 17  2  0
 12 28  1  0
 13 28  2  0
 13 29  1  0
 13 40  1  0
 14 29  2  0
 14 31  1  0
 15 30  1  0
 16 17  1  0
 16 18  1  0
 16 30  2  0
 17 26  1  0
 18 23  2  0
 20 19  1  6
 19 31  1  0
 20 22  1  0
 20 32  1  0
 21 32  1  0
 24 25  3  0
 34 39  1  0
 34 40  1  0
 35 40  2  0
 36 37  1  0
 36 38  1  0
 37 39  1  0
 38 39  1  0
M  CHG  1  36   1
M  END
>  <s_m_entry_id>  (149) 
652

>  <s_m_entry_name>  (149) 
000000494.1

>  <s_m_Source_Path>  (149) 
/Users/zaksoul/Documents/3r_UNI/2nd_SEMESTER/BSC/FRAG_RECON/RESULTS/2

>  <s_m_Source_File>  (149) 
000000494.mol2

>  <i_m_Source_File_Index>  (149) 
1

$$$$
No_0_519,No_0_520
     RDKit          3D

 42 48  0  0  1  0  0  0  0  0999 V2000
   -4.9640    3.5290  -21.9560 C   0  0  0  0  0  0  0  0  0  0  0  0
   -5.2340    3.7350  -23.2890 C   0  0  0  0  0  0  0  0  0  0  0  0
   -3.7280    3.2550  -21.6240 C   0  0  0  0  0  0  0  0  0  0  0  0
   -2.8450    3.3910  -23.7920 C   0  0  0  0  0  0  0  0  0  0  0  0
   -2.6810    3.1300  -22.3750 C   0  0  0  0  0  0  0  0  0  0  0  0
   -4.1910    3.6780  -24.3040 C   0  0  0  0  0  0  0  0  0  0  0  0
   -3.4450    3.7120  -26.5050 C   0  0  0  0  0  0  0  0  0  0  0  0
    6.2960    2.7880  -21.2900 C   0  0  0  0  0  0  0  0  0  0  0  0
    6.1480    2.9590  -23.8370 C   0  0  0  0  0  0  0  0  0  0  0  0
   -4.4460    3.8230  -25.6370 C   0  0  0  0  0  0  0  0  0  0  0  0
    2.3720    3.5590  -23.8330 C   0  0  0  0  0  0  0  0  0  0  0  0
    1.5670    4.6760  -23.5190 C   0  0  0  0  0  0  0  0  0  0  0  0
    3.3850    5.8400  -22.8340 C   0  0  0  0  0  0  0  0  0  0  0  0
    3.7760    3.7270  -23.5240 C   0  0  0  0  0  0  0  0  0  0  0  0
    1.8070    2.4570  -24.5030 C   0  0  0  0  0  0  0  0  0  0  0  0
   -0.3080    3.2980  -24.3750 C   0  0  0  0  0  0  0  0  0  0  0  0
    0.2380    4.5050  -23.7650 C   0  0  0  0  0  0  0  0  0  0  0  0
   -1.7630    3.3280  -24.7230 C   0  0  0  0  0  0  0  0  0  0  0  0
    4.3480    1.2180  -23.2600 C   0  0  0  0  0  0  0  0  0  0  0  0
    5.2810    0.8380  -22.1210 C   0  0  2  0  0  0  0  0  0  0  0  0
    6.8930    2.3620  -22.6490 C   0  0  2  0  0  0  0  0  0  0  0  0
    5.2820    1.8270  -20.9440 C   0  0  0  0  0  0  0  0  0  0  0  0
   -2.0920    3.5070  -26.1470 C   0  0  0  0  0  0  0  0  0  0  0  0
   -1.3400    2.6920  -21.7860 C   0  0  0  0  0  0  0  0  0  0  0  0
   -0.3120    2.3250  -21.2880 C   0  0  0  0  0  0  0  0  0  0  0  0
   -0.5880    5.5580  -23.4070 F   0  0  0  0  0  0  0  0  0  0  0  0
   -3.5150    2.9950  -20.2450 F   0  0  0  0  0  0  0  0  0  0  0  0
    2.0630    5.8230  -22.9770 N   0  0  0  0  0  0  0  0  0  0  0  0
    4.2670    4.8670  -23.0680 N   0  0  0  0  0  0  0  0  0  0  0  0
    0.4980    2.3890  -24.8030 N   0  0  0  0  0  0  0  0  0  0  0  0
    4.6780    2.6690  -23.7160 N   0  0  0  0  0  0  0  0  0  0  0  0
    6.6870    0.8900  -22.6090 N   0  0  0  0  0  0  0  0  0  0  0  0
   -3.6230    3.7430  -27.8940 O   0  0  0  0  0  0  0  0  0  0  0  0
    5.2930    7.2090  -22.1370 O   0  0  0  0  0  0  0  0  0  0  0  0
    3.2000    8.0930  -22.2020 O   0  0  0  0  0  0  0  0  0  0  0  0
    4.6880   10.3840  -22.7030 N   0  0  0  0  0  0  0  0  0  0  0  0
    4.2570    9.8260  -20.4310 N   0  0  0  0  0  0  0  0  0  0  0  0
    5.4230    8.9590  -20.3280 C   0  0  0  0  0  0  0  0  0  0  0  0
    5.8890    9.5640  -22.7680 C   0  0  0  0  0  0  0  0  0  0  0  0
    3.9870   10.4810  -21.5670 C   0  0  0  0  0  0  0  0  0  0  0  0
    5.9100    8.4450  -21.7020 C   0  0  2  0  0  0  0  0  0  0  0  0
    3.9590    7.1530  -22.3590 C   0  0  0  0  0  0  0  0  0  0  0  0
  1  2  2  0
  1  3  1  0
  2  6  1  0
  3  5  2  0
  3 27  1  0
  4  5  1  0
  4  6  2  0
  4 18  1  0
  5 24  1  0
  6 10  1  0
  7 10  2  0
  7 23  1  0
  7 33  1  0
 21  8  1  1
  8 22  1  0
  9 21  1  0
  9 31  1  0
 11 12  1  0
 11 14  1  0
 11 15  2  0
 12 17  2  0
 12 28  1  0
 13 28  2  0
 13 29  1  0
 13 42  1  0
 14 29  2  0
 14 31  1  0
 15 30  1  0
 16 17  1  0
 16 18  1  0
 16 30  2  0
 17 26  1  0
 18 23  2  0
 20 19  1  6
 19 31  1  0
 20 22  1  0
 20 32  1  0
 21 32  1  0
 24 25  3  0
 41 34  1  6
 34 42  1  0
 35 42  2  0
 36 39  1  0
 36 40  1  0
 37 38  1  0
 37 40  2  0
 38 41  1  0
 39 41  1  0
M  CHG  1  37   1
M  END
>  <s_m_entry_id>  (150) 
656

>  <s_m_entry_name>  (150) 
000000498.1

>  <s_m_Source_Path>  (150) 
/Users/zaksoul/Documents/3r_UNI/2nd_SEMESTER/BSC/FRAG_RECON/RESULTS/2

>  <s_m_Source_File>  (150) 
000000498.mol2

>  <i_m_Source_File_Index>  (150) 
1

$$$$
No_0_521,No_0_522
     RDKit          3D

 40 45  0  0  1  0  0  0  0  0999 V2000
   -4.9910    3.4750  -21.5220 C   0  0  0  0  0  0  0  0  0  0  0  0
   -5.3000    3.7120  -22.8400 C   0  0  0  0  0  0  0  0  0  0  0  0
   -3.7420    3.2130  -21.2310 C   0  0  0  0  0  0  0  0  0  0  0  0
   -2.9210    3.4210  -23.4180 C   0  0  0  0  0  0  0  0  0  0  0  0
   -2.7140    3.1250  -22.0130 C   0  0  0  0  0  0  0  0  0  0  0  0
   -4.2850    3.6990  -23.8850 C   0  0  0  0  0  0  0  0  0  0  0  0
   -3.6020    3.8030  -26.1040 C   0  0  0  0  0  0  0  0  0  0  0  0
    6.2940    2.9010  -21.1870 C   0  0  0  0  0  0  0  0  0  0  0  0
    6.0720    3.1360  -23.7240 C   0  0  0  0  0  0  0  0  0  0  0  0
   -4.5800    3.8750  -25.2060 C   0  0  0  0  0  0  0  0  0  0  0  0
    2.2890    3.6750  -23.5980 C   0  0  0  0  0  0  0  0  0  0  0  0
    1.4760    4.7700  -23.2320 C   0  0  0  0  0  0  0  0  0  0  0  0
    3.2940    5.9440  -22.5670 C   0  0  0  0  0  0  0  0  0  0  0  0
    3.6980    3.8580  -23.3240 C   0  0  0  0  0  0  0  0  0  0  0  0
    1.7230    2.5810  -24.2820 C   0  0  0  0  0  0  0  0  0  0  0  0
   -0.4010    3.3850  -24.0730 C   0  0  0  0  0  0  0  0  0  0  0  0
    0.1430    4.5840  -23.4470 C   0  0  0  0  0  0  0  0  0  0  0  0
   -1.8650    3.4000  -24.3800 C   0  0  0  0  0  0  0  0  0  0  0  0
    4.3160    1.3520  -23.1440 C   0  0  0  0  0  0  0  0  0  0  0  0
    5.2870    0.9570  -22.0420 C   0  0  2  0  0  0  0  0  0  0  0  0
    6.8600    2.5210  -22.5730 C   0  0  2  0  0  0  0  0  0  0  0  0
    5.3060    1.9150  -20.8390 C   0  0  0  0  0  0  0  0  0  0  0  0
   -2.2370    3.6110  -25.7890 C   0  0  0  0  0  0  0  0  0  0  0  0
   -1.3510    2.6930  -21.4740 C   0  0  0  0  0  0  0  0  0  0  0  0
   -0.3030    2.3300  -21.0150 C   0  0  0  0  0  0  0  0  0  0  0  0
   -0.6890    5.6130  -23.0370 F   0  0  0  0  0  0  0  0  0  0  0  0
   -3.4860    2.9200  -19.8660 F   0  0  0  0  0  0  0  0  0  0  0  0
    1.9690    5.9100  -22.6740 N   0  0  0  0  0  0  0  0  0  0  0  0
    4.1840    4.9930  -22.8520 N   0  0  0  0  0  0  0  0  0  0  0  0
    0.4070    2.5000  -24.5480 N   0  0  0  0  0  0  0  0  0  0  0  0
    4.6110    2.8190  -23.5690 N   0  0  0  0  0  0  0  0  0  0  0  0
    6.6770    1.0450  -22.5670 N   0  0  0  0  0  0  0  0  0  0  0  0
   -3.8200    3.8680  -27.4860 O   0  0  0  0  0  0  0  0  0  0  0  0
    4.9800    7.2250  -21.3170 O   0  0  0  0  0  0  0  0  0  0  0  0
    3.2810    8.2870  -22.3670 O   0  0  0  0  0  0  0  0  0  0  0  0
    5.2190   10.4970  -23.3660 N   0  0  0  0  0  0  0  0  0  0  0  0
    6.0610    9.2530  -23.3810 C   0  0  0  0  0  0  0  0  0  0  0  0
    6.6370    8.9490  -21.9830 C   0  0  0  0  0  0  0  0  0  0  0  0
    5.5870    8.4820  -20.9530 C   0  0  0  0  0  0  0  0  0  0  0  0
    3.8610    7.2540  -22.0730 C   0  0  0  0  0  0  0  0  0  0  0  0
  1  2  2  0
  1  3  1  0
  2  6  1  0
  3  5  2  0
  3 27  1  0
  4  5  1  0
  4  6  2  0
  4 18  1  0
  5 24  1  0
  6 10  1  0
  7 10  2  0
  7 23  1  0
  7 33  1  0
 21  8  1  1
  8 22  1  0
  9 21  1  0
  9 31  1  0
 11 12  2  0
 11 14  1  0
 11 15  1  0
 12 17  1  0
 12 28  1  0
 13 28  2  0
 13 29  1  0
 13 40  1  0
 14 29  2  0
 14 31  1  0
 15 30  2  0
 16 17  2  0
 16 18  1  0
 16 30  1  0
 17 26  1  0
 18 23  2  0
 20 19  1  6
 19 31  1  0
 20 22  1  0
 20 32  1  0
 21 32  1  0
 24 25  3  0
 34 39  1  0
 34 40  1  0
 35 40  2  0
 36 37  1  0
 37 38  1  0
 38 39  1  0
M  CHG  1  36   1
M  END
>  <s_m_entry_id>  (151) 
658

>  <s_m_entry_name>  (151) 
000000500.1

>  <s_m_Source_Path>  (151) 
/Users/zaksoul/Documents/3r_UNI/2nd_SEMESTER/BSC/FRAG_RECON/RESULTS/2

>  <s_m_Source_File>  (151) 
000000500.mol2

>  <i_m_Source_File_Index>  (151) 
1

$$$$
No_0_523,No_0_524,No_0_525,No_0_526,No_0_527,No_0_528,No_0_529
     RDKit          3D

 40 45  0  0  1  0  0  0  0  0999 V2000
   -5.1200    3.5860  -21.8680 C   0  0  0  0  0  0  0  0  0  0  0  0
   -5.3910    3.7810  -23.2020 C   0  0  0  0  0  0  0  0  0  0  0  0
   -3.8820    3.3270  -21.5340 C   0  0  0  0  0  0  0  0  0  0  0  0
   -2.9990    3.4590  -23.7020 C   0  0  0  0  0  0  0  0  0  0  0  0
   -2.8330    3.2080  -22.2840 C   0  0  0  0  0  0  0  0  0  0  0  0
   -4.3470    3.7290  -24.2170 C   0  0  0  0  0  0  0  0  0  0  0  0
   -3.6010    3.7570  -26.4180 C   0  0  0  0  0  0  0  0  0  0  0  0
    6.1470    2.9640  -21.1950 C   0  0  0  0  0  0  0  0  0  0  0  0
    5.9980    3.1180  -23.7430 C   0  0  0  0  0  0  0  0  0  0  0  0
   -4.6030    3.8620  -25.5510 C   0  0  0  0  0  0  0  0  0  0  0  0
    2.2160    3.6800  -23.7430 C   0  0  0  0  0  0  0  0  0  0  0  0
    1.4000    4.7900  -23.4360 C   0  0  0  0  0  0  0  0  0  0  0  0
    3.2050    5.9760  -22.7580 C   0  0  0  0  0  0  0  0  0  0  0  0
    3.6180    3.8640  -23.4350 C   0  0  0  0  0  0  0  0  0  0  0  0
    1.6620    2.5680  -24.4070 C   0  0  0  0  0  0  0  0  0  0  0  0
   -0.4610    3.3880  -24.2840 C   0  0  0  0  0  0  0  0  0  0  0  0
    0.0720    4.6040  -23.6820 C   0  0  0  0  0  0  0  0  0  0  0  0
   -1.9160    3.4010  -24.6330 C   0  0  0  0  0  0  0  0  0  0  0  0
    4.2150    1.3630  -23.1560 C   0  0  0  0  0  0  0  0  0  0  0  0
    5.1520    0.9990  -22.0140 C   0  0  2  0  0  0  0  0  0  0  0  0
    6.7490    2.5360  -22.5510 C   0  0  2  0  0  0  0  0  0  0  0  0
    5.1430    1.9950  -20.8430 C   0  0  0  0  0  0  0  0  0  0  0  0
   -2.2460    3.5680  -26.0580 C   0  0  0  0  0  0  0  0  0  0  0  0
   -1.4880    2.7870  -21.6920 C   0  0  0  0  0  0  0  0  0  0  0  0
   -0.4560    2.4330  -21.1920 C   0  0  0  0  0  0  0  0  0  0  0  0
   -0.7640    5.6510  -23.3300 F   0  0  0  0  0  0  0  0  0  0  0  0
   -3.6660    3.0780  -20.1530 F   0  0  0  0  0  0  0  0  0  0  0  0
    1.8830    5.9450  -22.9010 N   0  0  0  0  0  0  0  0  0  0  0  0
    4.0970    5.0110  -22.9860 N   0  0  0  0  0  0  0  0  0  0  0  0
    0.3550    2.4840  -24.7070 N   0  0  0  0  0  0  0  0  0  0  0  0
    4.5310    2.8140  -23.6200 N   0  0  0  0  0  0  0  0  0  0  0  0
    6.5570    1.0630  -22.5020 N   0  0  0  0  0  0  0  0  0  0  0  0
   -3.7790    3.7780  -27.8070 O   0  0  0  0  0  0  0  0  0  0  0  0
    4.8630    7.2810  -21.5040 O   0  0  0  0  0  0  0  0  0  0  0  0
    3.2080    8.3280  -22.6330 O   0  0  0  0  0  0  0  0  0  0  0  0
    6.5120    9.0130  -22.1180 N   0  0  0  0  0  0  0  0  0  0  0  0
    5.4650    8.5430  -21.1390 C   0  0  0  0  0  0  0  0  0  0  0  0
    7.4100   10.0660  -21.5300 C   0  0  0  0  0  0  0  0  0  0  0  0
    5.9400    9.4470  -23.4380 C   0  0  0  0  0  0  0  0  0  0  0  0
    3.7660    7.2980  -22.2920 C   0  0  0  0  0  0  0  0  0  0  0  0
  1  2  2  0
  1  3  1  0
  2  6  1  0
  3  5  2  0
  3 27  1  0
  4  5  1  0
  4  6  2  0
  4 18  1  0
  5 24  1  0
  6 10  1  0
  7 10  2  0
  7 23  1  0
  7 33  1  0
 21  8  1  1
  8 22  1  0
  9 21  1  0
  9 31  1  0
 11 12  2  0
 11 14  1  0
 11 15  1  0
 12 17  1  0
 12 28  1  0
 13 28  2  0
 13 29  1  0
 13 40  1  0
 14 29  2  0
 14 31  1  0
 15 30  2  0
 16 17  2  0
 16 18  1  0
 16 30  1  0
 17 26  1  0
 18 23  2  0
 20 19  1  6
 19 31  1  0
 20 22  1  0
 20 32  1  0
 21 32  1  0
 24 25  3  0
 34 37  1  0
 34 40  1  0
 35 40  2  0
 36 37  1  0
 36 38  1  0
 36 39  1  0
M  END
>  <s_m_entry_id>  (152) 
660

>  <s_m_entry_name>  (152) 
000000502.1

>  <s_m_Source_Path>  (152) 
/Users/zaksoul/Documents/3r_UNI/2nd_SEMESTER/BSC/FRAG_RECON/RESULTS/2

>  <s_m_Source_File>  (152) 
000000502.mol2

>  <i_m_Source_File_Index>  (152) 
1

$$$$
No_0_530,No_0_531
     RDKit          3D

 44 50  0  0  1  0  0  0  0  0999 V2000
   -5.0020    3.5170  -21.9270 C   0  0  0  0  0  0  0  0  0  0  0  0
   -5.2880    3.7020  -23.2590 C   0  0  0  0  0  0  0  0  0  0  0  0
   -3.7610    3.2520  -21.6050 C   0  0  0  0  0  0  0  0  0  0  0  0
   -2.9050    3.3580  -23.7860 C   0  0  0  0  0  0  0  0  0  0  0  0
   -2.7230    3.1190  -22.3670 C   0  0  0  0  0  0  0  0  0  0  0  0
   -4.2580    3.6320  -24.2860 C   0  0  0  0  0  0  0  0  0  0  0  0
   -3.5390    3.6350  -26.4960 C   0  0  0  0  0  0  0  0  0  0  0  0
    6.2670    2.8200  -21.3880 C   0  0  0  0  0  0  0  0  0  0  0  0
    6.0880    2.9510  -23.9360 C   0  0  0  0  0  0  0  0  0  0  0  0
   -4.5300    3.7560  -25.6180 C   0  0  0  0  0  0  0  0  0  0  0  0
    2.3100    3.5410  -23.8930 C   0  0  0  0  0  0  0  0  0  0  0  0
    1.5060    4.6600  -23.5870 C   0  0  0  0  0  0  0  0  0  0  0  0
    3.3280    5.8390  -22.9430 C   0  0  0  0  0  0  0  0  0  0  0  0
    3.7170    3.7180  -23.6040 C   0  0  0  0  0  0  0  0  0  0  0  0
    1.7410    2.4260  -24.5400 C   0  0  0  0  0  0  0  0  0  0  0  0
   -0.3760    3.2640  -24.3980 C   0  0  0  0  0  0  0  0  0  0  0  0
    0.1740    4.4810  -23.8140 C   0  0  0  0  0  0  0  0  0  0  0  0
   -1.8340    3.2840  -24.7290 C   0  0  0  0  0  0  0  0  0  0  0  0
    4.3000    1.2150  -23.3090 C   0  0  0  0  0  0  0  0  0  0  0  0
    5.2490    0.8550  -22.1760 C   0  0  2  0  0  0  0  0  0  0  0  0
    6.8490    2.3750  -22.7470 C   0  0  2  0  0  0  0  0  0  0  0  0
    5.2610    1.8620  -21.0140 C   0  0  0  0  0  0  0  0  0  0  0  0
   -2.1810    3.4390  -26.1520 C   0  0  0  0  0  0  0  0  0  0  0  0
   -1.3740    2.6940  -21.7880 C   0  0  0  0  0  0  0  0  0  0  0  0
   -0.3390    2.3370  -21.2980 C   0  0  0  0  0  0  0  0  0  0  0  0
   -0.6500    5.5370  -23.4620 F   0  0  0  0  0  0  0  0  0  0  0  0
   -3.5310    3.0150  -20.2250 F   0  0  0  0  0  0  0  0  0  0  0  0
    2.0050    5.8160  -23.0690 N   0  0  0  0  0  0  0  0  0  0  0  0
    4.2100    4.8660  -23.1730 N   0  0  0  0  0  0  0  0  0  0  0  0
    0.4280    2.3500  -24.8230 N   0  0  0  0  0  0  0  0  0  0  0  0
    4.6210    2.6590  -23.7910 N   0  0  0  0  0  0  0  0  0  0  0  0
    6.6480    0.9040  -22.6820 N   0  0  0  0  0  0  0  0  0  0  0  0
   -3.7350    3.6440  -27.8830 O   0  0  0  0  0  0  0  0  0  0  0  0
    5.0110    7.1160  -21.7220 O   0  0  0  0  0  0  0  0  0  0  0  0
    3.3690    8.2040  -22.8330 O   0  0  0  0  0  0  0  0  0  0  0  0
    8.1770   10.1100  -24.2150 N   0  0  0  0  0  0  0  0  0  0  0  0
    6.5310   11.7320  -24.7140 N   0  0  0  0  0  0  0  0  0  0  0  0
    6.5160    8.9810  -22.3420 C   0  0  0  0  0  0  0  0  0  0  0  0
    6.9430   10.6390  -24.0010 C   0  0  0  0  0  0  0  0  0  0  0  0
    6.1010   10.0670  -23.0520 C   0  0  0  0  0  0  0  0  0  0  0  0
    8.6010    9.0200  -23.5030 C   0  0  0  0  0  0  0  0  0  0  0  0
    7.7930    8.4540  -22.5780 C   0  0  0  0  0  0  0  0  0  0  0  0
    5.6020    8.3610  -21.2950 C   0  0  0  0  0  0  0  0  0  0  0  0
    3.9040    7.1610  -22.4950 C   0  0  0  0  0  0  0  0  0  0  0  0
  1  2  2  0
  1  3  1  0
  2  6  1  0
  3  5  2  0
  3 27  1  0
  4  5  1  0
  4  6  2  0
  4 18  1  0
  5 24  1  0
  6 10  1  0
  7 10  2  0
  7 23  1  0
  7 33  1  0
 21  8  1  1
  8 22  1  0
  9 21  1  0
  9 31  1  0
 11 12  1  0
 11 14  1  0
 11 15  2  0
 12 17  2  0
 12 28  1  0
 13 28  2  0
 13 29  1  0
 13 44  1  0
 14 29  2  0
 14 31  1  0
 15 30  1  0
 16 17  1  0
 16 18  1  0
 16 30  2  0
 17 26  1  0
 18 23  2  0
 20 19  1  6
 19 31  1  0
 20 22  1  0
 20 32  1  0
 21 32  1  0
 24 25  3  0
 34 43  1  0
 34 44  1  0
 35 44  2  0
 36 39  1  0
 36 41  1  0
 37 39  1  0
 38 40  1  0
 38 42  1  0
 38 43  1  0
 39 40  2  0
 41 42  2  0
M  END
>  <s_m_entry_id>  (153) 
667

>  <s_m_entry_name>  (153) 
000000509.1

>  <s_m_Source_Path>  (153) 
/Users/zaksoul/Documents/3r_UNI/2nd_SEMESTER/BSC/FRAG_RECON/RESULTS/2

>  <s_m_Source_File>  (153) 
000000509.mol2

>  <i_m_Source_File_Index>  (153) 
1

$$$$
No_0_532,No_0_533
     RDKit          3D

 44 50  0  0  1  0  0  0  0  0999 V2000
   -5.1810    3.6090  -21.8530 C   0  0  0  0  0  0  0  0  0  0  0  0
   -5.4520    3.8050  -23.1860 C   0  0  0  0  0  0  0  0  0  0  0  0
   -3.9420    3.3510  -21.5190 C   0  0  0  0  0  0  0  0  0  0  0  0
   -3.0590    3.4860  -23.6870 C   0  0  0  0  0  0  0  0  0  0  0  0
   -2.8930    3.2340  -22.2690 C   0  0  0  0  0  0  0  0  0  0  0  0
   -4.4090    3.7540  -24.2010 C   0  0  0  0  0  0  0  0  0  0  0  0
   -3.6630    3.7850  -26.4030 C   0  0  0  0  0  0  0  0  0  0  0  0
    6.0870    3.0010  -21.1820 C   0  0  0  0  0  0  0  0  0  0  0  0
    5.9380    3.1560  -23.7310 C   0  0  0  0  0  0  0  0  0  0  0  0
   -4.6650    3.8890  -25.5350 C   0  0  0  0  0  0  0  0  0  0  0  0
    2.1540    3.7130  -23.7290 C   0  0  0  0  0  0  0  0  0  0  0  0
    1.3370    4.8230  -23.4210 C   0  0  0  0  0  0  0  0  0  0  0  0
    3.1410    6.0110  -22.7430 C   0  0  0  0  0  0  0  0  0  0  0  0
    3.5570    3.8990  -23.4210 C   0  0  0  0  0  0  0  0  0  0  0  0
    1.6030    2.6010  -24.3930 C   0  0  0  0  0  0  0  0  0  0  0  0
   -0.5220    3.4190  -24.2700 C   0  0  0  0  0  0  0  0  0  0  0  0
    0.0100    4.6350  -23.6670 C   0  0  0  0  0  0  0  0  0  0  0  0
   -1.9770    3.4300  -24.6180 C   0  0  0  0  0  0  0  0  0  0  0  0
    4.1570    1.3990  -23.1440 C   0  0  0  0  0  0  0  0  0  0  0  0
    5.0950    1.0350  -22.0030 C   0  0  2  0  0  0  0  0  0  0  0  0
    6.6890    2.5740  -22.5390 C   0  0  2  0  0  0  0  0  0  0  0  0
    5.0840    2.0310  -20.8310 C   0  0  0  0  0  0  0  0  0  0  0  0
   -2.3080    3.5970  -26.0440 C   0  0  0  0  0  0  0  0  0  0  0  0
   -1.5470    2.8150  -21.6780 C   0  0  0  0  0  0  0  0  0  0  0  0
   -0.5150    2.4620  -21.1780 C   0  0  0  0  0  0  0  0  0  0  0  0
   -0.8280    5.6800  -23.3140 F   0  0  0  0  0  0  0  0  0  0  0  0
   -3.7260    3.1020  -20.1390 F   0  0  0  0  0  0  0  0  0  0  0  0
    1.8200    5.9780  -22.8860 N   0  0  0  0  0  0  0  0  0  0  0  0
    4.0350    5.0470  -22.9720 N   0  0  0  0  0  0  0  0  0  0  0  0
    0.2950    2.5160  -24.6930 N   0  0  0  0  0  0  0  0  0  0  0  0
    4.4710    2.8500  -23.6070 N   0  0  0  0  0  0  0  0  0  0  0  0
    6.5000    1.1010  -22.4910 N   0  0  0  0  0  0  0  0  0  0  0  0
   -3.8410    3.8060  -27.7920 O   0  0  0  0  0  0  0  0  0  0  0  0
    4.7620    7.3020  -21.4370 O   0  0  0  0  0  0  0  0  0  0  0  0
    3.1760    8.3660  -22.6540 O   0  0  0  0  0  0  0  0  0  0  0  0
    6.4510    9.8150  -22.9530 N   0  0  0  0  0  0  0  0  0  0  0  0
    7.7860    8.6000  -21.7510 N   0  0  0  0  0  0  0  0  0  0  0  0
    6.5040    8.9840  -21.8960 C   0  0  0  0  0  0  0  0  0  0  0  0
    5.2650   10.4360  -23.5210 C   0  0  0  0  0  0  0  0  0  0  0  0
    7.7180    9.9560  -23.4600 C   0  0  0  0  0  0  0  0  0  0  0  0
    8.3420    7.6880  -20.7420 C   0  0  0  0  0  0  0  0  0  0  0  0
    8.5220    9.2210  -22.7280 C   0  0  0  0  0  0  0  0  0  0  0  0
    5.3400    8.5540  -21.0100 C   0  0  0  0  0  0  0  0  0  0  0  0
    3.7010    7.3330  -22.2760 C   0  0  0  0  0  0  0  0  0  0  0  0
  1  2  2  0
  1  3  1  0
  2  6  1  0
  3  5  2  0
  3 27  1  0
  4  5  1  0
  4  6  2  0
  4 18  1  0
  5 24  1  0
  6 10  1  0
  7 10  2  0
  7 23  1  0
  7 33  1  0
 21  8  1  1
  8 22  1  0
  9 21  1  0
  9 31  1  0
 11 12  1  0
 11 14  1  0
 11 15  2  0
 12 17  2  0
 12 28  1  0
 13 28  2  0
 13 29  1  0
 13 44  1  0
 14 29  2  0
 14 31  1  0
 15 30  1  0
 16 17  1  0
 16 18  1  0
 16 30  2  0
 17 26  1  0
 18 23  2  0
 20 19  1  6
 19 31  1  0
 20 22  1  0
 20 32  1  0
 21 32  1  0
 24 25  3  0
 34 43  1  0
 34 44  1  0
 35 44  2  0
 36 38  1  0
 36 39  1  0
 36 40  1  0
 37 38  1  0
 37 41  1  0
 37 42  1  0
 38 43  1  0
 40 42  2  0
M  END
>  <s_m_entry_id>  (154) 
669

>  <s_m_entry_name>  (154) 
000000511.1

>  <s_m_Source_Path>  (154) 
/Users/zaksoul/Documents/3r_UNI/2nd_SEMESTER/BSC/FRAG_RECON/RESULTS/2

>  <s_m_Source_File>  (154) 
000000511.mol2

>  <i_m_Source_File_Index>  (154) 
1

$$$$
No_0_534,No_0_535,No_0_536,No_0_537,No_0_538
     RDKit          3D

 43 49  0  0  1  0  0  0  0  0999 V2000
   -5.2540    3.4490  -21.8340 C   0  0  0  0  0  0  0  0  0  0  0  0
   -5.5590    3.6170  -23.1640 C   0  0  0  0  0  0  0  0  0  0  0  0
   -4.0110    3.1740  -21.5270 C   0  0  0  0  0  0  0  0  0  0  0  0
   -3.1880    3.2350  -23.7230 C   0  0  0  0  0  0  0  0  0  0  0  0
   -2.9870    3.0150  -22.3030 C   0  0  0  0  0  0  0  0  0  0  0  0
   -4.5450    3.5180  -24.2060 C   0  0  0  0  0  0  0  0  0  0  0  0
   -3.8620    3.4770  -26.4270 C   0  0  0  0  0  0  0  0  0  0  0  0
    6.0140    2.6210  -21.4610 C   0  0  0  0  0  0  0  0  0  0  0  0
    5.7960    2.7150  -24.0070 C   0  0  0  0  0  0  0  0  0  0  0  0
   -4.8370    3.6240  -25.5350 C   0  0  0  0  0  0  0  0  0  0  0  0
    2.0260    3.3510  -23.9150 C   0  0  0  0  0  0  0  0  0  0  0  0
    1.2410    4.4850  -23.6130 C   0  0  0  0  0  0  0  0  0  0  0  0
    3.0870    5.6510  -23.0170 C   0  0  0  0  0  0  0  0  0  0  0  0
    3.4400    3.5150  -23.6510 C   0  0  0  0  0  0  0  0  0  0  0  0
    1.4330    2.2340  -24.5350 C   0  0  0  0  0  0  0  0  0  0  0  0
   -0.6700    3.1000  -24.3730 C   0  0  0  0  0  0  0  0  0  0  0  0
   -0.0970    4.3190  -23.8170 C   0  0  0  0  0  0  0  0  0  0  0  0
   -2.1340    3.1330  -24.6810 C   0  0  0  0  0  0  0  0  0  0  0  0
    3.9970    1.0100  -23.3260 C   0  0  0  0  0  0  0  0  0  0  0  0
    4.9590    0.6560  -22.2020 C   0  0  2  0  0  0  0  0  0  0  0  0
    6.5690    2.1470  -22.8220 C   0  0  2  0  0  0  0  0  0  0  0  0
    5.0020    1.6810  -21.0560 C   0  0  0  0  0  0  0  0  0  0  0  0
   -2.5010    3.2710  -26.1010 C   0  0  0  0  0  0  0  0  0  0  0  0
   -1.6340    2.5830  -21.7390 C   0  0  0  0  0  0  0  0  0  0  0  0
   -0.5960    2.2210  -21.2590 C   0  0  0  0  0  0  0  0  0  0  0  0
   -0.9030    5.3910  -23.4680 F   0  0  0  0  0  0  0  0  0  0  0  0
   -3.7620    2.9540  -20.1480 F   0  0  0  0  0  0  0  0  0  0  0  0
    1.7610    5.6430  -23.1220 N   0  0  0  0  0  0  0  0  0  0  0  0
    3.9540    4.6630  -23.2450 N   0  0  0  0  0  0  0  0  0  0  0  0
    0.1160    2.1690  -24.7960 N   0  0  0  0  0  0  0  0  0  0  0  0
    4.3270    2.4430  -23.8350 N   0  0  0  0  0  0  0  0  0  0  0  0
    6.3510    0.6800  -22.7310 N   0  0  0  0  0  0  0  0  0  0  0  0
   -4.0790    3.4680  -27.8100 O   0  0  0  0  0  0  0  0  0  0  0  0
    6.0150    8.3160  -21.4010 N   0  0  0  0  0  0  0  0  0  0  0  0
    4.0540    6.9540  -21.1810 N   0  0  0  0  0  0  0  0  0  0  0  0
    5.5990    7.0730  -19.4590 N   0  0  0  0  0  0  0  0  0  0  0  0
    8.1100    9.5420  -20.8890 C   0  0  0  0  0  0  0  0  0  0  0  0
    6.0570   10.7540  -21.7000 C   0  0  0  0  0  0  0  0  0  0  0  0
    7.5960   10.7080  -21.7550 C   0  0  0  0  0  0  0  0  0  0  0  0
    5.4710    9.4160  -22.1960 C   0  0  0  0  0  0  0  0  0  0  0  0
    7.4750    8.2250  -21.3750 C   0  0  0  0  0  0  0  0  0  0  0  0
    5.2230    7.4570  -20.7020 C   0  0  0  0  0  0  0  0  0  0  0  0
    3.6920    6.9860  -22.5950 C   0  0  0  0  0  0  0  0  0  0  0  0
  1  2  2  0
  1  3  1  0
  2  6  1  0
  3  5  2  0
  3 27  1  0
  4  5  1  0
  4  6  2  0
  4 18  1  0
  5 24  1  0
  6 10  1  0
  7 10  2  0
  7 23  1  0
  7 33  1  0
 21  8  1  1
  8 22  1  0
  9 21  1  0
  9 31  1  0
 11 12  1  0
 11 14  1  0
 11 15  2  0
 12 17  2  0
 12 28  1  0
 13 28  2  0
 13 29  1  0
 13 43  1  0
 14 29  2  0
 14 31  1  0
 15 30  1  0
 16 17  1  0
 16 18  1  0
 16 30  2  0
 17 26  1  0
 18 23  2  0
 20 19  1  6
 19 31  1  0
 20 22  1  0
 20 32  1  0
 21 32  1  0
 24 25  3  0
 34 40  1  0
 34 41  1  0
 34 42  2  3
 35 42  1  0
 35 43  1  0
 36 42  1  0
 37 39  1  0
 37 41  1  0
 38 39  1  0
 38 40  1  0
M  CHG  1  34   1
M  END
>  <s_m_entry_id>  (155) 
671

>  <s_m_entry_name>  (155) 
000000513.1

>  <s_m_Source_Path>  (155) 
/Users/zaksoul/Documents/3r_UNI/2nd_SEMESTER/BSC/FRAG_RECON/RESULTS/2

>  <s_m_Source_File>  (155) 
000000513.mol2

>  <i_m_Source_File_Index>  (155) 
1

$$$$
No_0_539,No_0_540
     RDKit          3D

 43 49  0  0  1  0  0  0  0  0999 V2000
   -5.2860    3.8820  -22.0260 C   0  0  0  0  0  0  0  0  0  0  0  0
   -5.5350    4.0430  -23.3680 C   0  0  0  0  0  0  0  0  0  0  0  0
   -4.0590    3.5960  -21.6680 C   0  0  0  0  0  0  0  0  0  0  0  0
   -3.1480    3.6330  -23.8290 C   0  0  0  0  0  0  0  0  0  0  0  0
   -3.0060    3.4220  -22.4010 C   0  0  0  0  0  0  0  0  0  0  0  0
   -4.4820    3.9260  -24.3680 C   0  0  0  0  0  0  0  0  0  0  0  0
   -3.7100    3.8620  -26.5600 C   0  0  0  0  0  0  0  0  0  0  0  0
    5.9490    2.9430  -21.1950 C   0  0  0  0  0  0  0  0  0  0  0  0
    5.8340    3.0200  -23.7480 C   0  0  0  0  0  0  0  0  0  0  0  0
   -4.7190    4.0260  -25.7090 C   0  0  0  0  0  0  0  0  0  0  0  0
    2.0700    3.6950  -23.8120 C   0  0  0  0  0  0  0  0  0  0  0  0
    1.2860    4.8390  -23.5500 C   0  0  0  0  0  0  0  0  0  0  0  0
    3.1180    5.9910  -22.8880 C   0  0  0  0  0  0  0  0  0  0  0  0
    3.4740    3.8470  -23.4920 C   0  0  0  0  0  0  0  0  0  0  0  0
    1.4910    2.5800  -24.4470 C   0  0  0  0  0  0  0  0  0  0  0  0
   -0.6080    3.4670  -24.3770 C   0  0  0  0  0  0  0  0  0  0  0  0
   -0.0440    4.6850  -23.8070 C   0  0  0  0  0  0  0  0  0  0  0  0
   -2.0570    3.5130  -24.7430 C   0  0  0  0  0  0  0  0  0  0  0  0
    3.9920    1.3390  -23.1280 C   0  0  0  0  0  0  0  0  0  0  0  0
    4.9040    0.9830  -21.9640 C   0  0  2  0  0  0  0  0  0  0  0  0
    6.5530    2.4540  -22.5290 C   0  0  2  0  0  0  0  0  0  0  0  0
    4.9120    2.0160  -20.8250 C   0  0  0  0  0  0  0  0  0  0  0  0
   -2.3660    3.6440  -26.1780 C   0  0  0  0  0  0  0  0  0  0  0  0
   -1.6820    2.9800  -21.7800 C   0  0  0  0  0  0  0  0  0  0  0  0
   -0.6670    2.6110  -21.2560 C   0  0  0  0  0  0  0  0  0  0  0  0
   -0.8520    5.7670  -23.4980 F   0  0  0  0  0  0  0  0  0  0  0  0
   -3.8680    3.3850  -20.2780 F   0  0  0  0  0  0  0  0  0  0  0  0
    1.7980    5.9950  -23.0460 N   0  0  0  0  0  0  0  0  0  0  0  0
    3.9830    4.9930  -23.0740 N   0  0  0  0  0  0  0  0  0  0  0  0
    0.1850    2.5260  -24.7610 N   0  0  0  0  0  0  0  0  0  0  0  0
    4.3570    2.7640  -23.6330 N   0  0  0  0  0  0  0  0  0  0  0  0
    6.3160    0.9900  -22.4360 N   0  0  0  0  0  0  0  0  0  0  0  0
   -3.8720    3.8450  -27.9510 O   0  0  0  0  0  0  0  0  0  0  0  0
    7.2310   11.3540  -21.7100 O   0  0  0  0  0  0  0  0  0  0  0  0
    6.0850    8.8020  -21.4890 N   0  0  0  0  0  0  0  0  0  0  0  0
    4.3430    7.1820  -21.1380 N   0  0  0  0  0  0  0  0  0  0  0  0
    6.1370    7.3010  -19.6870 N   0  0  0  0  0  0  0  0  0  0  0  0
    5.8060   11.2230  -21.5370 C   0  0  0  0  0  0  0  0  0  0  0  0
    7.9600   10.2990  -21.0540 C   0  0  0  0  0  0  0  0  0  0  0  0
    7.5320    8.9390  -21.6350 C   0  0  0  0  0  0  0  0  0  0  0  0
    5.3010    9.8770  -22.0930 C   0  0  0  0  0  0  0  0  0  0  0  0
    5.5190    7.7750  -20.7950 C   0  0  0  0  0  0  0  0  0  0  0  0
    3.7200    7.3230  -22.4510 C   0  0  0  0  0  0  0  0  0  0  0  0
  1  2  2  0
  1  3  1  0
  2  6  1  0
  3  5  2  0
  3 27  1  0
  4  5  1  0
  4  6  2  0
  4 18  1  0
  5 24  1  0
  6 10  1  0
  7 10  2  0
  7 23  1  0
  7 33  1  0
 21  8  1  1
  8 22  1  0
  9 21  1  0
  9 31  1  0
 11 12  1  0
 11 14  1  0
 11 15  2  0
 12 17  2  0
 12 28  1  0
 13 28  2  0
 13 29  1  0
 13 43  1  0
 14 29  2  0
 14 31  1  0
 15 30  1  0
 16 17  1  0
 16 18  1  0
 16 30  2  0
 17 26  1  0
 18 23  2  0
 20 19  1  6
 19 31  1  0
 20 22  1  0
 20 32  1  0
 21 32  1  0
 24 25  3  0
 34 38  1  0
 34 39  1  0
 35 40  1  0
 35 41  1  0
 35 42  2  3
 36 42  1  0
 36 43  1  0
 37 42  1  0
 38 41  1  0
 39 40  1  0
M  CHG  1  35   1
M  END
>  <s_m_entry_id>  (156) 
676

>  <s_m_entry_name>  (156) 
000000518.1

>  <s_m_Source_Path>  (156) 
/Users/zaksoul/Documents/3r_UNI/2nd_SEMESTER/BSC/FRAG_RECON/RESULTS/2

>  <s_m_Source_File>  (156) 
000000518.mol2

>  <i_m_Source_File_Index>  (156) 
1

$$$$
No_0_541
     RDKit          3D

 42 47  0  0  1  0  0  0  0  0999 V2000
   -5.0440    3.7510  -22.1030 C   0  0  0  0  0  0  0  0  0  0  0  0
   -5.2890    3.9160  -23.4460 C   0  0  0  0  0  0  0  0  0  0  0  0
   -3.8180    3.4700  -21.7420 C   0  0  0  0  0  0  0  0  0  0  0  0
   -2.8980    3.5200  -23.8990 C   0  0  0  0  0  0  0  0  0  0  0  0
   -2.7610    3.3040  -22.4710 C   0  0  0  0  0  0  0  0  0  0  0  0
   -4.2320    3.8090  -24.4420 C   0  0  0  0  0  0  0  0  0  0  0  0
   -3.4510    3.7580  -26.6310 C   0  0  0  0  0  0  0  0  0  0  0  0
    6.1920    2.8660  -21.2320 C   0  0  0  0  0  0  0  0  0  0  0  0
    6.0860    2.9530  -23.7860 C   0  0  0  0  0  0  0  0  0  0  0  0
   -4.4640    3.9130  -25.7830 C   0  0  0  0  0  0  0  0  0  0  0  0
    2.3200    3.6090  -23.8610 C   0  0  0  0  0  0  0  0  0  0  0  0
    1.5280    4.7480  -23.5980 C   0  0  0  0  0  0  0  0  0  0  0  0
    3.3520    5.9070  -22.9230 C   0  0  0  0  0  0  0  0  0  0  0  0
    3.7210    3.7670  -23.5360 C   0  0  0  0  0  0  0  0  0  0  0  0
    1.7490    2.4940  -24.5040 C   0  0  0  0  0  0  0  0  0  0  0  0
   -0.3550    3.3700  -24.4370 C   0  0  0  0  0  0  0  0  0  0  0  0
    0.2000    4.5880  -23.8600 C   0  0  0  0  0  0  0  0  0  0  0  0
   -1.8030    3.4100  -24.8090 C   0  0  0  0  0  0  0  0  0  0  0  0
    4.2510    1.2600  -23.1800 C   0  0  0  0  0  0  0  0  0  0  0  0
    5.1600    0.9040  -22.0140 C   0  0  2  0  0  0  0  0  0  0  0  0
    6.8040    2.3850  -22.5660 C   0  0  2  0  0  0  0  0  0  0  0  0
    5.1580    1.9320  -20.8700 C   0  0  0  0  0  0  0  0  0  0  0  0
   -2.1070    3.5460  -26.2440 C   0  0  0  0  0  0  0  0  0  0  0  0
   -1.4360    2.8660  -21.8470 C   0  0  0  0  0  0  0  0  0  0  0  0
   -0.4220    2.5010  -21.3210 C   0  0  0  0  0  0  0  0  0  0  0  0
   -0.6150    5.6650  -23.5500 F   0  0  0  0  0  0  0  0  0  0  0  0
   -3.6300    3.2530  -20.3520 F   0  0  0  0  0  0  0  0  0  0  0  0
    2.0330    5.9050  -23.0870 N   0  0  0  0  0  0  0  0  0  0  0  0
    4.2230    4.9140  -23.1110 N   0  0  0  0  0  0  0  0  0  0  0  0
    0.4440    2.4350  -24.8220 N   0  0  0  0  0  0  0  0  0  0  0  0
    4.6110    2.6890  -23.6780 N   0  0  0  0  0  0  0  0  0  0  0  0
    6.5740    0.9190  -22.4810 N   0  0  0  0  0  0  0  0  0  0  0  0
   -3.6080    3.7460  -28.0220 O   0  0  0  0  0  0  0  0  0  0  0  0
    5.1450    7.0190  -21.6770 N   0  0  0  0  0  0  0  0  0  0  0  0
    5.6660    9.3110  -21.6120 N   0  0  0  0  0  0  0  0  0  0  0  0
    7.0350    7.6190  -20.5220 N   0  0  0  0  0  0  0  0  0  0  0  0
    5.9650    8.0240  -21.2650 C   0  0  0  0  0  0  0  0  0  0  0  0
    6.5800   10.4450  -21.5080 C   0  0  0  0  0  0  0  0  0  0  0  0
    3.9450    7.2400  -22.4790 C   0  0  0  0  0  0  0  0  0  0  0  0
    7.8730    8.4880  -19.7050 C   0  0  0  0  0  0  0  0  0  0  0  0
    6.5260   11.1130  -23.9560 C   0  0  0  0  0  0  0  0  0  0  0  0
    6.2190   11.5540  -22.5140 C   0  0  0  0  0  0  0  0  0  0  0  0
  1  2  2  0
  1  3  1  0
  2  6  1  0
  3  5  2  0
  3 27  1  0
  4  5  1  0
  4  6  2  0
  4 18  1  0
  5 24  1  0
  6 10  1  0
  7 10  2  0
  7 23  1  0
  7 33  1  0
 21  8  1  1
  8 22  1  0
  9 21  1  0
  9 31  1  0
 11 12  2  0
 11 14  1  0
 11 15  1  0
 12 17  1  0
 12 28  1  0
 13 28  2  0
 13 29  1  0
 13 39  1  0
 14 29  2  0
 14 31  1  0
 15 30  2  0
 16 17  2  0
 16 18  1  0
 16 30  1  0
 17 26  1  0
 18 23  2  0
 20 19  1  6
 19 31  1  0
 20 22  1  0
 20 32  1  0
 21 32  1  0
 24 25  3  0
 34 37  2  0
 34 39  1  0
 35 37  1  0
 35 38  1  0
 36 37  1  0
 36 40  1  0
 38 42  1  0
 41 42  1  0
M  CHG  1  34   1
M  END
>  <s_m_entry_id>  (157) 
678

>  <s_m_entry_name>  (157) 
000000520.1

>  <s_m_Source_Path>  (157) 
/Users/zaksoul/Documents/3r_UNI/2nd_SEMESTER/BSC/FRAG_RECON/RESULTS/2

>  <s_m_Source_File>  (157) 
000000520.mol2

>  <i_m_Source_File_Index>  (157) 
1

$$$$
No_0_542
     RDKit          3D

 43 49  0  0  1  0  0  0  0  0999 V2000
   -5.4010    3.5090  -22.2320 C   0  0  0  0  0  0  0  0  0  0  0  0
   -5.6510    3.6990  -23.5700 C   0  0  0  0  0  0  0  0  0  0  0  0
   -4.1680    3.2490  -21.8760 C   0  0  0  0  0  0  0  0  0  0  0  0
   -3.2510    3.3710  -24.0310 C   0  0  0  0  0  0  0  0  0  0  0  0
   -3.1080    3.1250  -22.6090 C   0  0  0  0  0  0  0  0  0  0  0  0
   -4.5910    3.6400  -24.5680 C   0  0  0  0  0  0  0  0  0  0  0  0
   -3.8100    3.6580  -26.7570 C   0  0  0  0  0  0  0  0  0  0  0  0
    5.8530    2.8730  -21.3780 C   0  0  0  0  0  0  0  0  0  0  0  0
    5.7450    3.0160  -23.9290 C   0  0  0  0  0  0  0  0  0  0  0  0
   -4.8260    3.7690  -25.9060 C   0  0  0  0  0  0  0  0  0  0  0  0
    1.9640    3.5840  -23.9900 C   0  0  0  0  0  0  0  0  0  0  0  0
    1.1450    4.6970  -23.7010 C   0  0  0  0  0  0  0  0  0  0  0  0
    2.9410    5.8830  -23.0000 C   0  0  0  0  0  0  0  0  0  0  0  0
    3.3610    3.7670  -23.6610 C   0  0  0  0  0  0  0  0  0  0  0  0
    1.4190    2.4700  -24.6580 C   0  0  0  0  0  0  0  0  0  0  0  0
   -0.7050    3.2940  -24.5730 C   0  0  0  0  0  0  0  0  0  0  0  0
   -0.1790    4.5120  -23.9670 C   0  0  0  0  0  0  0  0  0  0  0  0
   -2.1540    3.3080  -24.9440 C   0  0  0  0  0  0  0  0  0  0  0  0
    3.9500    1.2660  -23.3620 C   0  0  0  0  0  0  0  0  0  0  0  0
    4.8680    0.9050  -22.2050 C   0  0  2  0  0  0  0  0  0  0  0  0
    6.4760    2.4380  -22.7220 C   0  0  2  0  0  0  0  0  0  0  0  0
    4.8420    1.9070  -21.0380 C   0  0  0  0  0  0  0  0  0  0  0  0
   -2.4610    3.4690  -26.3760 C   0  0  0  0  0  0  0  0  0  0  0  0
   -1.7730    2.7050  -21.9950 C   0  0  0  0  0  0  0  0  0  0  0  0
   -0.7500    2.3520  -21.4770 C   0  0  0  0  0  0  0  0  0  0  0  0
   -1.0190    5.5610  -23.6320 F   0  0  0  0  0  0  0  0  0  0  0  0
   -3.9750    3.0050  -20.4920 F   0  0  0  0  0  0  0  0  0  0  0  0
    1.6220    5.8530  -23.1630 N   0  0  0  0  0  0  0  0  0  0  0  0
    3.8350    4.9160  -23.2090 N   0  0  0  0  0  0  0  0  0  0  0  0
    0.1160    2.3870  -24.9790 N   0  0  0  0  0  0  0  0  0  0  0  0
    4.2760    2.7150  -23.8270 N   0  0  0  0  0  0  0  0  0  0  0  0
    6.2810    0.9650  -22.6700 N   0  0  0  0  0  0  0  0  0  0  0  0
   -3.9660    3.6740  -28.1490 O   0  0  0  0  0  0  0  0  0  0  0  0
    3.7970    7.1480  -21.0960 N   0  0  0  0  0  0  0  0  0  0  0  0
    5.0360    7.6270  -19.1840 N   0  0  0  0  0  0  0  0  0  0  0  0
    6.8340    9.0660  -20.6700 N   0  0  0  0  0  0  0  0  0  0  0  0
    5.5710    8.9360  -21.1230 C   0  0  0  0  0  0  0  0  0  0  0  0
    3.5020    7.2190  -22.5250 C   0  0  0  0  0  0  0  0  0  0  0  0
    4.7540    7.8690  -20.4740 C   0  0  0  0  0  0  0  0  0  0  0  0
    5.7880   10.7800  -22.6890 C   0  0  0  0  0  0  0  0  0  0  0  0
    5.0140    9.7990  -22.1320 C   0  0  0  0  0  0  0  0  0  0  0  0
    7.5640   10.0430  -21.2390 C   0  0  0  0  0  0  0  0  0  0  0  0
    7.0720   10.9190  -22.2590 C   0  0  0  0  0  0  0  0  0  0  0  0
  1  2  2  0
  1  3  1  0
  2  6  1  0
  3  5  2  0
  3 27  1  0
  4  5  1  0
  4  6  2  0
  4 18  1  0
  5 24  1  0
  6 10  1  0
  7 10  2  0
  7 23  1  0
  7 33  1  0
 21  8  1  1
  8 22  1  0
  9 21  1  0
  9 31  1  0
 11 12  1  0
 11 14  1  0
 11 15  2  0
 12 17  2  0
 12 28  1  0
 13 28  2  0
 13 29  1  0
 13 38  1  0
 14 29  2  0
 14 31  1  0
 15 30  1  0
 16 17  1  0
 16 18  1  0
 16 30  2  0
 17 26  1  0
 18 23  2  0
 20 19  1  6
 19 31  1  0
 20 22  1  0
 20 32  1  0
 21 32  1  0
 24 25  3  0
 34 38  1  0
 34 39  2  0
 35 39  1  0
 36 37  2  0
 36 42  1  0
 37 39  1  0
 37 41  1  0
 40 41  2  0
 40 43  1  0
 42 43  2  0
M  CHG  1  34   1
M  END
>  <s_m_entry_id>  (158) 
679

>  <s_m_entry_name>  (158) 
000000521.1

>  <s_m_Source_Path>  (158) 
/Users/zaksoul/Documents/3r_UNI/2nd_SEMESTER/BSC/FRAG_RECON/RESULTS/2

>  <s_m_Source_File>  (158) 
000000521.mol2

>  <i_m_Source_File_Index>  (158) 
1

$$$$
No_0_544,No_0_545
     RDKit          3D

 43 49  0  0  1  0  0  0  0  0999 V2000
   -5.3110    3.2800  -22.4130 C   0  0  0  0  0  0  0  0  0  0  0  0
   -5.5290    3.4530  -23.7590 C   0  0  0  0  0  0  0  0  0  0  0  0
   -4.0840    3.0450  -22.0230 C   0  0  0  0  0  0  0  0  0  0  0  0
   -3.1130    3.1630  -24.1540 C   0  0  0  0  0  0  0  0  0  0  0  0
   -3.0030    2.9330  -22.7260 C   0  0  0  0  0  0  0  0  0  0  0  0
   -4.4430    3.4040  -24.7280 C   0  0  0  0  0  0  0  0  0  0  0  0
   -3.6050    3.4150  -26.8960 C   0  0  0  0  0  0  0  0  0  0  0  0
    5.9250    2.8480  -21.2600 C   0  0  0  0  0  0  0  0  0  0  0  0
    5.8820    2.9650  -23.8140 C   0  0  0  0  0  0  0  0  0  0  0  0
   -4.6450    3.5160  -26.0730 C   0  0  0  0  0  0  0  0  0  0  0  0
    2.0940    3.4670  -23.9800 C   0  0  0  0  0  0  0  0  0  0  0  0
    1.2490    4.5680  -23.7220 C   0  0  0  0  0  0  0  0  0  0  0  0
    3.0060    5.7910  -22.9860 C   0  0  0  0  0  0  0  0  0  0  0  0
    3.4790    3.6770  -23.6150 C   0  0  0  0  0  0  0  0  0  0  0  0
    1.5870    2.3370  -24.6500 C   0  0  0  0  0  0  0  0  0  0  0  0
   -0.5530    3.1250  -24.6280 C   0  0  0  0  0  0  0  0  0  0  0  0
   -0.0640    4.3570  -24.0210 C   0  0  0  0  0  0  0  0  0  0  0  0
   -1.9910    3.1100  -25.0370 C   0  0  0  0  0  0  0  0  0  0  0  0
    4.1030    1.1900  -23.2770 C   0  0  0  0  0  0  0  0  0  0  0  0
    4.9970    0.8560  -22.0930 C   0  0  2  0  0  0  0  0  0  0  0  0
    6.5910    2.4110  -22.5830 C   0  0  2  0  0  0  0  0  0  0  0  0
    4.9230    1.8670  -20.9370 C   0  0  0  0  0  0  0  0  0  0  0  0
   -2.2640    3.2530  -26.4780 C   0  0  0  0  0  0  0  0  0  0  0  0
   -1.6780    2.5420  -22.0730 C   0  0  0  0  0  0  0  0  0  0  0  0
   -0.6630    2.2110  -21.5260 C   0  0  0  0  0  0  0  0  0  0  0  0
   -0.9300    5.3950  -23.7190 F   0  0  0  0  0  0  0  0  0  0  0  0
   -3.9230    2.8170  -20.6310 F   0  0  0  0  0  0  0  0  0  0  0  0
    1.6920    5.7370  -23.1840 N   0  0  0  0  0  0  0  0  0  0  0  0
    3.9220    4.8380  -23.1630 N   0  0  0  0  0  0  0  0  0  0  0  0
    0.2940    2.2290  -25.0040 N   0  0  0  0  0  0  0  0  0  0  0  0
    4.4160    2.6390  -23.7480 N   0  0  0  0  0  0  0  0  0  0  0  0
    6.4200    0.9360  -22.5220 N   0  0  0  0  0  0  0  0  0  0  0  0
   -3.7250    3.4160  -28.2920 O   0  0  0  0  0  0  0  0  0  0  0  0
    3.7910    7.0910  -21.0720 N   0  0  0  0  0  0  0  0  0  0  0  0
    5.0040    7.6240  -19.1510 N   0  0  0  0  0  0  0  0  0  0  0  0
    6.8610    8.9120  -20.8480 N   0  0  0  0  0  0  0  0  0  0  0  0
    5.6150   10.7750  -22.6620 N   0  0  0  0  0  0  0  0  0  0  0  0
    3.5320    7.1420  -22.5090 C   0  0  0  0  0  0  0  0  0  0  0  0
    4.7370    7.8250  -20.4510 C   0  0  0  0  0  0  0  0  0  0  0  0
    4.9340    9.8130  -22.0300 C   0  0  0  0  0  0  0  0  0  0  0  0
    5.5510    8.8700  -21.1350 C   0  0  0  0  0  0  0  0  0  0  0  0
    6.9220   10.7980  -22.3880 C   0  0  0  0  0  0  0  0  0  0  0  0
    7.5410    9.8750  -21.4810 C   0  0  0  0  0  0  0  0  0  0  0  0
  1  2  2  0
  1  3  1  0
  2  6  1  0
  3  5  2  0
  3 27  1  0
  4  5  1  0
  4  6  2  0
  4 18  1  0
  5 24  1  0
  6 10  1  0
  7 10  2  0
  7 23  1  0
  7 33  1  0
 21  8  1  1
  8 22  1  0
  9 21  1  0
  9 31  1  0
 11 12  1  0
 11 14  1  0
 11 15  2  0
 12 17  2  0
 12 28  1  0
 13 28  2  0
 13 29  1  0
 13 38  1  0
 14 29  2  0
 14 31  1  0
 15 30  1  0
 16 17  1  0
 16 18  1  0
 16 30  2  0
 17 26  1  0
 18 23  2  0
 20 19  1  6
 19 31  1  0
 20 22  1  0
 20 32  1  0
 21 32  1  0
 24 25  3  0
 34 38  1  0
 34 39  2  0
 35 39  1  0
 36 41  2  0
 36 43  1  0
 37 40  2  0
 37 42  1  0
 39 41  1  0
 40 41  1  0
 42 43  2  0
M  CHG  1  34   1
M  END
>  <s_m_entry_id>  (159) 
681

>  <s_m_entry_name>  (159) 
000000523.1

>  <s_m_Source_Path>  (159) 
/Users/zaksoul/Documents/3r_UNI/2nd_SEMESTER/BSC/FRAG_RECON/RESULTS/2

>  <s_m_Source_File>  (159) 
000000523.mol2

>  <i_m_Source_File_Index>  (159) 
1

$$$$
No_0_546,No_0_547
     RDKit          3D

 40 46  0  0  1  0  0  0  0  0999 V2000
   -4.9780    3.6310  -21.9720 C   0  0  0  0  0  0  0  0  0  0  0  0
   -5.2420    3.8280  -23.3070 C   0  0  0  0  0  0  0  0  0  0  0  0
   -3.7430    3.3660  -21.6310 C   0  0  0  0  0  0  0  0  0  0  0  0
   -2.8480    3.4940  -23.7950 C   0  0  0  0  0  0  0  0  0  0  0  0
   -2.6910    3.2410  -22.3760 C   0  0  0  0  0  0  0  0  0  0  0  0
   -4.1930    3.7710  -24.3160 C   0  0  0  0  0  0  0  0  0  0  0  0
   -3.4360    3.7950  -26.5140 C   0  0  0  0  0  0  0  0  0  0  0  0
    6.2820    2.9500  -21.2430 C   0  0  0  0  0  0  0  0  0  0  0  0
    6.1470    3.1050  -23.7910 C   0  0  0  0  0  0  0  0  0  0  0  0
   -4.4420    3.9060  -25.6510 C   0  0  0  0  0  0  0  0  0  0  0  0
    2.3670    3.6870  -23.8100 C   0  0  0  0  0  0  0  0  0  0  0  0
    1.5560    4.8020  -23.5060 C   0  0  0  0  0  0  0  0  0  0  0  0
    3.3640    5.9780  -22.8190 C   0  0  0  0  0  0  0  0  0  0  0  0
    3.7690    3.8640  -23.4940 C   0  0  0  0  0  0  0  0  0  0  0  0
    1.8110    2.5780  -24.4760 C   0  0  0  0  0  0  0  0  0  0  0  0
   -0.3090    3.4100  -24.3640 C   0  0  0  0  0  0  0  0  0  0  0  0
    0.2280    4.6230  -23.7590 C   0  0  0  0  0  0  0  0  0  0  0  0
   -1.7610    3.4310  -24.7200 C   0  0  0  0  0  0  0  0  0  0  0  0
    4.3520    1.3600  -23.2130 C   0  0  0  0  0  0  0  0  0  0  0  0
    5.2810    0.9900  -22.0670 C   0  0  2  0  0  0  0  0  0  0  0  0
    6.8880    2.5190  -22.5960 C   0  0  2  0  0  0  0  0  0  0  0  0
    5.2710    1.9860  -20.8960 C   0  0  0  0  0  0  0  0  0  0  0  0
   -2.0840    3.5990  -26.1470 C   0  0  0  0  0  0  0  0  0  0  0  0
   -1.3510    2.8130  -21.7780 C   0  0  0  0  0  0  0  0  0  0  0  0
   -0.3240    2.4540  -21.2720 C   0  0  0  0  0  0  0  0  0  0  0  0
   -0.6040    5.6740  -23.4110 F   0  0  0  0  0  0  0  0  0  0  0  0
   -3.5360    3.1150  -20.2500 F   0  0  0  0  0  0  0  0  0  0  0  0
    2.0430    5.9540  -22.9690 N   0  0  0  0  0  0  0  0  0  0  0  0
    4.2520    5.0090  -23.0430 N   0  0  0  0  0  0  0  0  0  0  0  0
    0.5050    2.5020  -24.7830 N   0  0  0  0  0  0  0  0  0  0  0  0
    4.6780    2.8090  -23.6750 N   0  0  0  0  0  0  0  0  0  0  0  0
    6.6890    1.0470  -22.5480 N   0  0  0  0  0  0  0  0  0  0  0  0
   -3.6070    3.8180  -27.9030 O   0  0  0  0  0  0  0  0  0  0  0  0
    3.3910    8.3020  -22.7660 O   0  0  0  0  0  0  0  0  0  0  0  0
    7.0150    8.0630  -21.5050 N   0  0  0  0  0  0  0  0  0  0  0  0
    5.7240    8.6900  -21.0800 C   0  0  0  0  0  0  0  0  0  0  0  0
    6.4280    6.7460  -21.9050 C   0  0  0  0  0  0  0  0  0  0  0  0
    7.7660    8.7810  -22.5900 C   0  0  0  0  0  0  0  0  0  0  0  0
    5.0880    7.3070  -21.3690 C   0  0  0  0  0  0  0  0  0  0  0  0
    3.9290    7.2970  -22.3490 C   0  0  0  0  0  0  0  0  0  0  0  0
  1  2  2  0
  1  3  1  0
  2  6  1  0
  3  5  2  0
  3 27  1  0
  4  5  1  0
  4  6  2  0
  4 18  1  0
  5 24  1  0
  6 10  1  0
  7 10  2  0
  7 23  1  0
  7 33  1  0
 21  8  1  1
  8 22  1  0
  9 21  1  0
  9 31  1  0
 11 12  1  0
 11 14  1  0
 11 15  2  0
 12 17  2  0
 12 28  1  0
 13 28  2  0
 13 29  1  0
 13 40  1  0
 14 29  2  0
 14 31  1  0
 15 30  1  0
 16 17  1  0
 16 18  1  0
 16 30  2  0
 17 26  1  0
 18 23  2  0
 20 19  1  6
 19 31  1  0
 20 22  1  0
 20 32  1  0
 21 32  1  0
 24 25  3  0
 34 40  2  0
 35 36  1  0
 35 37  1  0
 35 38  1  0
 36 39  1  0
 37 39  1  0
 39 40  1  0
M  END
>  <s_m_entry_id>  (160) 
683

>  <s_m_entry_name>  (160) 
000000525.1

>  <s_m_Source_Path>  (160) 
/Users/zaksoul/Documents/3r_UNI/2nd_SEMESTER/BSC/FRAG_RECON/RESULTS/2

>  <s_m_Source_File>  (160) 
000000525.mol2

>  <i_m_Source_File_Index>  (160) 
1

$$$$
No_0_548,No_0_549,No_0_550,No_0_551
     RDKit          3D

 41 47  0  0  1  0  0  0  0  0999 V2000
   -4.9820    3.6950  -21.9820 C   0  0  0  0  0  0  0  0  0  0  0  0
   -5.2480    3.8720  -23.3190 C   0  0  0  0  0  0  0  0  0  0  0  0
   -3.7510    3.4100  -21.6420 C   0  0  0  0  0  0  0  0  0  0  0  0
   -2.8650    3.4780  -23.8120 C   0  0  0  0  0  0  0  0  0  0  0  0
   -2.7060    3.2500  -22.3890 C   0  0  0  0  0  0  0  0  0  0  0  0
   -4.2060    3.7730  -24.3320 C   0  0  0  0  0  0  0  0  0  0  0  0
   -3.4590    3.7400  -26.5330 C   0  0  0  0  0  0  0  0  0  0  0  0
    6.2650    2.7960  -21.2910 C   0  0  0  0  0  0  0  0  0  0  0  0
    6.1200    2.9050  -23.8420 C   0  0  0  0  0  0  0  0  0  0  0  0
   -4.4580    3.8880  -25.6690 C   0  0  0  0  0  0  0  0  0  0  0  0
    2.3540    3.5640  -23.8540 C   0  0  0  0  0  0  0  0  0  0  0  0
    1.5670    4.7010  -23.5680 C   0  0  0  0  0  0  0  0  0  0  0  0
    3.4020    5.8530  -22.9120 C   0  0  0  0  0  0  0  0  0  0  0  0
    3.7600    3.7180  -23.5480 C   0  0  0  0  0  0  0  0  0  0  0  0
    1.7720    2.4540  -24.4970 C   0  0  0  0  0  0  0  0  0  0  0  0
   -0.3300    3.3320  -24.3910 C   0  0  0  0  0  0  0  0  0  0  0  0
    0.2350    4.5450  -23.8120 C   0  0  0  0  0  0  0  0  0  0  0  0
   -1.7830    3.3760  -24.7400 C   0  0  0  0  0  0  0  0  0  0  0  0
    4.2930    1.2080  -23.2220 C   0  0  0  0  0  0  0  0  0  0  0  0
    5.2200    0.8420  -22.0730 C   0  0  2  0  0  0  0  0  0  0  0  0
    6.8560    2.3270  -22.6380 C   0  0  2  0  0  0  0  0  0  0  0  0
    5.2360    1.8600  -20.9210 C   0  0  0  0  0  0  0  0  0  0  0  0
   -2.1100    3.5240  -26.1690 C   0  0  0  0  0  0  0  0  0  0  0  0
   -1.3720    2.8060  -21.7890 C   0  0  0  0  0  0  0  0  0  0  0  0
   -0.3500    2.4350  -21.2810 C   0  0  0  0  0  0  0  0  0  0  0  0
   -0.5740    5.6190  -23.4800 F   0  0  0  0  0  0  0  0  0  0  0  0
   -3.5420    3.1820  -20.2570 F   0  0  0  0  0  0  0  0  0  0  0  0
    2.0800    5.8530  -23.0550 N   0  0  0  0  0  0  0  0  0  0  0  0
    4.2690    4.8610  -23.1210 N   0  0  0  0  0  0  0  0  0  0  0  0
    0.4620    2.3990  -24.7960 N   0  0  0  0  0  0  0  0  0  0  0  0
    4.6460    2.6410  -23.7130 N   0  0  0  0  0  0  0  0  0  0  0  0
    6.6260    0.8600  -22.5620 N   0  0  0  0  0  0  0  0  0  0  0  0
   -3.6360    3.7400  -27.9220 O   0  0  0  0  0  0  0  0  0  0  0  0
    5.7390    9.5920  -22.9340 O   0  0  0  0  0  0  0  0  0  0  0  0
    3.2490    8.1060  -22.2820 O   0  0  0  0  0  0  0  0  0  0  0  0
    7.1820    8.9740  -20.2760 N   0  0  0  0  0  0  0  0  0  0  0  0
    7.5800    8.5420  -21.6520 C   0  0  0  0  0  0  0  0  0  0  0  0
    5.7060    9.0180  -20.5190 C   0  0  0  0  0  0  0  0  0  0  0  0
    5.5030    7.2030  -22.3290 C   0  0  0  0  0  0  0  0  0  0  0  0
    6.0650    8.5890  -21.9610 C   0  0  0  0  0  0  0  0  0  0  0  0
    3.9970    7.1690  -22.4700 C   0  0  0  0  0  0  0  0  0  0  0  0
  1  2  2  0
  1  3  1  0
  2  6  1  0
  3  5  2  0
  3 27  1  0
  4  5  1  0
  4  6  2  0
  4 18  1  0
  5 24  1  0
  6 10  1  0
  7 10  2  0
  7 23  1  0
  7 33  1  0
 21  8  1  1
  8 22  1  0
  9 21  1  0
  9 31  1  0
 11 12  1  0
 11 14  1  0
 11 15  2  0
 12 17  2  0
 12 28  1  0
 13 28  2  0
 13 29  1  0
 13 41  1  0
 14 29  2  0
 14 31  1  0
 15 30  1  0
 16 17  1  0
 16 18  1  0
 16 30  2  0
 17 26  1  0
 18 23  2  0
 20 19  1  6
 19 31  1  0
 20 22  1  0
 20 32  1  0
 21 32  1  0
 24 25  3  0
 34 40  1  0
 35 41  2  0
 36 37  1  0
 36 38  1  0
 37 40  1  0
 38 40  1  0
 39 40  1  0
 39 41  1  0
M  CHG  1  36   1
M  END
>  <s_m_entry_id>  (161) 
685

>  <s_m_entry_name>  (161) 
000000527.1

>  <s_m_Source_Path>  (161) 
/Users/zaksoul/Documents/3r_UNI/2nd_SEMESTER/BSC/FRAG_RECON/RESULTS/2

>  <s_m_Source_File>  (161) 
000000527.mol2

>  <i_m_Source_File_Index>  (161) 
1

$$$$
No_0_555,No_0_556
     RDKit          3D

 41 47  0  0  1  0  0  0  0  0999 V2000
   -5.2180    3.7010  -22.1900 C   0  0  0  0  0  0  0  0  0  0  0  0
   -5.4430    3.8690  -23.5360 C   0  0  0  0  0  0  0  0  0  0  0  0
   -3.9970    3.4210  -21.8100 C   0  0  0  0  0  0  0  0  0  0  0  0
   -3.0450    3.4800  -23.9530 C   0  0  0  0  0  0  0  0  0  0  0  0
   -2.9290    3.2600  -22.5240 C   0  0  0  0  0  0  0  0  0  0  0  0
   -4.3700    3.7670  -24.5160 C   0  0  0  0  0  0  0  0  0  0  0  0
   -3.5550    3.7240  -26.6920 C   0  0  0  0  0  0  0  0  0  0  0  0
    6.0040    2.8370  -21.1470 C   0  0  0  0  0  0  0  0  0  0  0  0
    5.9390    2.9310  -23.7010 C   0  0  0  0  0  0  0  0  0  0  0  0
   -4.5810    3.8740  -25.8600 C   0  0  0  0  0  0  0  0  0  0  0  0
    2.1720    3.5800  -23.8340 C   0  0  0  0  0  0  0  0  0  0  0  0
    1.3740    4.7160  -23.5800 C   0  0  0  0  0  0  0  0  0  0  0  0
    3.1850    5.8770  -22.8740 C   0  0  0  0  0  0  0  0  0  0  0  0
    3.5680    3.7400  -23.4860 C   0  0  0  0  0  0  0  0  0  0  0  0
    1.6140    2.4640  -24.4880 C   0  0  0  0  0  0  0  0  0  0  0  0
   -0.4930    3.3370  -24.4520 C   0  0  0  0  0  0  0  0  0  0  0  0
    0.0510    4.5540  -23.8630 C   0  0  0  0  0  0  0  0  0  0  0  0
   -1.9350    3.3740  -24.8470 C   0  0  0  0  0  0  0  0  0  0  0  0
    4.0970    1.2330  -23.1280 C   0  0  0  0  0  0  0  0  0  0  0  0
    4.9890    0.8760  -21.9500 C   0  0  2  0  0  0  0  0  0  0  0  0
    6.6380    2.3620  -22.4720 C   0  0  2  0  0  0  0  0  0  0  0  0
    4.9670    1.9010  -20.8030 C   0  0  0  0  0  0  0  0  0  0  0  0
   -2.2170    3.5130  -26.2860 C   0  0  0  0  0  0  0  0  0  0  0  0
   -1.6130    2.8230  -21.8800 C   0  0  0  0  0  0  0  0  0  0  0  0
   -0.6060    2.4580  -21.3390 C   0  0  0  0  0  0  0  0  0  0  0  0
   -0.7710    5.6280  -23.5630 F   0  0  0  0  0  0  0  0  0  0  0  0
   -3.8310    3.2020  -20.4180 F   0  0  0  0  0  0  0  0  0  0  0  0
    1.8680    5.8720  -23.0580 N   0  0  0  0  0  0  0  0  0  0  0  0
    4.0600    4.8860  -23.0500 N   0  0  0  0  0  0  0  0  0  0  0  0
    0.3140    2.4040  -24.8270 N   0  0  0  0  0  0  0  0  0  0  0  0
    4.4620    2.6640  -23.6170 N   0  0  0  0  0  0  0  0  0  0  0  0
    6.4100    0.8950  -22.3940 N   0  0  0  0  0  0  0  0  0  0  0  0
   -3.6900    3.7150  -28.0860 O   0  0  0  0  0  0  0  0  0  0  0  0
    3.2330    8.2120  -22.8210 O   0  0  0  0  0  0  0  0  0  0  0  0
    6.9470    8.6540  -21.1950 N   0  0  0  0  0  0  0  0  0  0  0  0
    5.0110    9.6530  -21.1880 N   0  0  0  0  0  0  0  0  0  0  0  0
    5.6370    8.4910  -21.3040 C   0  0  0  0  0  0  0  0  0  0  0  0
    5.9350   10.7620  -21.0080 C   0  0  0  0  0  0  0  0  0  0  0  0
    7.3180   10.0440  -20.9850 C   0  0  0  0  0  0  0  0  0  0  0  0
    4.9890    7.1480  -21.5390 C   0  0  0  0  0  0  0  0  0  0  0  0
    3.7620    7.1970  -22.4210 C   0  0  0  0  0  0  0  0  0  0  0  0
  1  2  2  0
  1  3  1  0
  2  6  1  0
  3  5  2  0
  3 27  1  0
  4  5  1  0
  4  6  2  0
  4 18  1  0
  5 24  1  0
  6 10  1  0
  7 10  2  0
  7 23  1  0
  7 33  1  0
 21  8  1  1
  8 22  1  0
  9 21  1  0
  9 31  1  0
 11 12  1  0
 11 14  1  0
 11 15  2  0
 12 17  2  0
 12 28  1  0
 13 28  2  0
 13 29  1  0
 13 41  1  0
 14 29  2  0
 14 31  1  0
 15 30  1  0
 16 17  1  0
 16 18  1  0
 16 30  2  0
 17 26  1  0
 18 23  2  0
 20 19  1  6
 19 31  1  0
 20 22  1  0
 20 32  1  0
 21 32  1  0
 24 25  3  0
 34 41  2  0
 35 37  1  0
 35 39  1  0
 36 37  2  0
 36 38  1  0
 37 40  1  0
 38 39  1  0
 40 41  1  0
M  CHG  1  36   1
M  END
>  <s_m_entry_id>  (162) 
692

>  <s_m_entry_name>  (162) 
000000534.1

>  <s_m_Source_Path>  (162) 
/Users/zaksoul/Documents/3r_UNI/2nd_SEMESTER/BSC/FRAG_RECON/RESULTS/2

>  <s_m_Source_File>  (162) 
000000534.mol2

>  <i_m_Source_File_Index>  (162) 
1

$$$$
No_0_557
     RDKit          3D

 40 45  0  0  1  0  0  0  0  0999 V2000
   -4.9210    3.6600  -21.8350 C   0  0  0  0  0  0  0  0  0  0  0  0
   -5.1920    3.8550  -23.1680 C   0  0  0  0  0  0  0  0  0  0  0  0
   -3.6830    3.4020  -21.5000 C   0  0  0  0  0  0  0  0  0  0  0  0
   -2.8000    3.5360  -23.6690 C   0  0  0  0  0  0  0  0  0  0  0  0
   -2.6340    3.2840  -22.2500 C   0  0  0  0  0  0  0  0  0  0  0  0
   -4.1480    3.8040  -24.1830 C   0  0  0  0  0  0  0  0  0  0  0  0
   -3.4020    3.8340  -26.3840 C   0  0  0  0  0  0  0  0  0  0  0  0
    6.3460    3.0490  -21.1610 C   0  0  0  0  0  0  0  0  0  0  0  0
    6.1980    3.2040  -23.7090 C   0  0  0  0  0  0  0  0  0  0  0  0
   -4.4050    3.9380  -25.5170 C   0  0  0  0  0  0  0  0  0  0  0  0
    2.4140    3.7620  -23.7090 C   0  0  0  0  0  0  0  0  0  0  0  0
    1.5980    4.8710  -23.4020 C   0  0  0  0  0  0  0  0  0  0  0  0
    3.4020    6.0590  -22.7230 C   0  0  0  0  0  0  0  0  0  0  0  0
    3.8160    3.9470  -23.4010 C   0  0  0  0  0  0  0  0  0  0  0  0
    1.8620    2.6490  -24.3730 C   0  0  0  0  0  0  0  0  0  0  0  0
   -0.2620    3.4680  -24.2500 C   0  0  0  0  0  0  0  0  0  0  0  0
    0.2700    4.6840  -23.6480 C   0  0  0  0  0  0  0  0  0  0  0  0
   -1.7170    3.4800  -24.5990 C   0  0  0  0  0  0  0  0  0  0  0  0
    4.4160    1.4470  -23.1220 C   0  0  0  0  0  0  0  0  0  0  0  0
    5.3540    1.0830  -21.9810 C   0  0  2  0  0  0  0  0  0  0  0  0
    6.9490    2.6220  -22.5170 C   0  0  2  0  0  0  0  0  0  0  0  0
    5.3430    2.0790  -20.8090 C   0  0  0  0  0  0  0  0  0  0  0  0
   -2.0470    3.6460  -26.0250 C   0  0  0  0  0  0  0  0  0  0  0  0
   -1.2880    2.8650  -21.6590 C   0  0  0  0  0  0  0  0  0  0  0  0
   -0.2570    2.5120  -21.1580 C   0  0  0  0  0  0  0  0  0  0  0  0
   -0.5670    5.7300  -23.2950 F   0  0  0  0  0  0  0  0  0  0  0  0
   -3.4670    3.1530  -20.1200 F   0  0  0  0  0  0  0  0  0  0  0  0
    2.0800    6.0270  -22.8670 N   0  0  0  0  0  0  0  0  0  0  0  0
    4.2950    5.0950  -22.9520 N   0  0  0  0  0  0  0  0  0  0  0  0
    0.5550    2.5650  -24.6730 N   0  0  0  0  0  0  0  0  0  0  0  0
    4.7310    2.8980  -23.5860 N   0  0  0  0  0  0  0  0  0  0  0  0
    6.7590    1.1490  -22.4690 N   0  0  0  0  0  0  0  0  0  0  0  0
   -3.5800    3.8550  -27.7730 O   0  0  0  0  0  0  0  0  0  0  0  0
    3.3960    8.3940  -22.6130 O   0  0  0  0  0  0  0  0  0  0  0  0
    6.3910    9.1770  -23.5180 N   0  0  0  0  0  0  0  0  0  0  0  0
    6.8850    9.1210  -22.0960 C   0  0  0  0  0  0  0  0  0  0  0  0
    5.2050    7.3260  -21.3980 C   0  0  0  0  0  0  0  0  0  0  0  0
    5.6160   10.4140  -23.8800 C   0  0  0  0  0  0  0  0  0  0  0  0
    5.7950    8.7170  -21.0790 C   0  0  0  0  0  0  0  0  0  0  0  0
    3.9610    7.3810  -22.2560 C   0  0  0  0  0  0  0  0  0  0  0  0
  1  2  2  0
  1  3  1  0
  2  6  1  0
  3  5  2  0
  3 27  1  0
  4  5  1  0
  4  6  2  0
  4 18  1  0
  5 24  1  0
  6 10  1  0
  7 10  2  0
  7 23  1  0
  7 33  1  0
 21  8  1  1
  8 22  1  0
  9 21  1  0
  9 31  1  0
 11 12  2  0
 11 14  1  0
 11 15  1  0
 12 17  1  0
 12 28  1  0
 13 28  2  0
 13 29  1  0
 13 40  1  0
 14 29  2  0
 14 31  1  0
 15 30  2  0
 16 17  2  0
 16 18  1  0
 16 30  1  0
 17 26  1  0
 18 23  2  0
 20 19  1  6
 19 31  1  0
 20 22  1  0
 20 32  1  0
 21 32  1  0
 24 25  3  0
 34 40  2  0
 35 36  1  0
 35 38  1  0
 36 39  1  0
 37 39  1  0
 37 40  1  0
M  CHG  1  35   1
M  END
>  <s_m_entry_id>  (163) 
694

>  <s_m_entry_name>  (163) 
000000536.1

>  <s_m_Source_Path>  (163) 
/Users/zaksoul/Documents/3r_UNI/2nd_SEMESTER/BSC/FRAG_RECON/RESULTS/2

>  <s_m_Source_File>  (163) 
000000536.mol2

>  <i_m_Source_File_Index>  (163) 
1

$$$$
No_0_558,No_0_559
     RDKit          3D

 41 46  0  0  1  0  0  0  0  0999 V2000
   -4.9360    3.6110  -21.8980 C   0  0  0  0  0  0  0  0  0  0  0  0
   -5.2160    3.7980  -23.2310 C   0  0  0  0  0  0  0  0  0  0  0  0
   -3.6950    3.3530  -21.5710 C   0  0  0  0  0  0  0  0  0  0  0  0
   -2.8270    3.4730  -23.7470 C   0  0  0  0  0  0  0  0  0  0  0  0
   -2.6520    3.2300  -22.3280 C   0  0  0  0  0  0  0  0  0  0  0  0
   -4.1800    3.7400  -24.2530 C   0  0  0  0  0  0  0  0  0  0  0  0
   -3.4500    3.7550  -26.4600 C   0  0  0  0  0  0  0  0  0  0  0  0
    6.3360    2.9920  -21.3030 C   0  0  0  0  0  0  0  0  0  0  0  0
    6.1690    3.1310  -23.8510 C   0  0  0  0  0  0  0  0  0  0  0  0
   -4.4460    3.8660  -25.5860 C   0  0  0  0  0  0  0  0  0  0  0  0
    2.3860    3.6930  -23.8270 C   0  0  0  0  0  0  0  0  0  0  0  0
    1.5730    4.8050  -23.5200 C   0  0  0  0  0  0  0  0  0  0  0  0
    3.3830    5.9950  -22.8620 C   0  0  0  0  0  0  0  0  0  0  0  0
    3.7910    3.8790  -23.5300 C   0  0  0  0  0  0  0  0  0  0  0  0
    1.8280    2.5770  -24.4800 C   0  0  0  0  0  0  0  0  0  0  0  0
   -0.2950    3.3990  -24.3460 C   0  0  0  0  0  0  0  0  0  0  0  0
    0.2440    4.6180  -23.7550 C   0  0  0  0  0  0  0  0  0  0  0  0
   -1.7510    3.4100  -24.6840 C   0  0  0  0  0  0  0  0  0  0  0  0
    4.3900    1.3800  -23.2400 C   0  0  0  0  0  0  0  0  0  0  0  0
    5.3350    1.0220  -22.1040 C   0  0  2  0  0  0  0  0  0  0  0  0
    6.9280    2.5560  -22.6610 C   0  0  2  0  0  0  0  0  0  0  0  0
    5.3340    2.0250  -20.9380 C   0  0  0  0  0  0  0  0  0  0  0  0
   -2.0920    3.5680  -26.1090 C   0  0  0  0  0  0  0  0  0  0  0  0
   -1.3020    2.8130  -21.7440 C   0  0  0  0  0  0  0  0  0  0  0  0
   -0.2670    2.4620  -21.2490 C   0  0  0  0  0  0  0  0  0  0  0  0
   -0.5900    5.6670  -23.4030 F   0  0  0  0  0  0  0  0  0  0  0  0
   -3.4700    3.1120  -20.1910 F   0  0  0  0  0  0  0  0  0  0  0  0
    2.0600    5.9630  -22.9960 N   0  0  0  0  0  0  0  0  0  0  0  0
    4.2730    5.0290  -23.0910 N   0  0  0  0  0  0  0  0  0  0  0  0
    0.5180    2.4920  -24.7700 N   0  0  0  0  0  0  0  0  0  0  0  0
    4.7030    2.8280  -23.7150 N   0  0  0  0  0  0  0  0  0  0  0  0
    6.7370    1.0830  -22.6020 N   0  0  0  0  0  0  0  0  0  0  0  0
   -3.6380    3.7680  -27.8470 O   0  0  0  0  0  0  0  0  0  0  0  0
    3.3730    8.3250  -22.7710 O   0  0  0  0  0  0  0  0  0  0  0  0
    5.6100   10.5390  -22.8770 N   0  0  0  0  0  0  0  0  0  0  0  0
    6.4220    9.4070  -22.3010 C   0  0  0  0  0  0  0  0  0  0  0  0
    6.0150   10.8660  -24.2870 C   0  0  0  0  0  0  0  0  0  0  0  0
    5.6090   11.7720  -22.0140 C   0  0  0  0  0  0  0  0  0  0  0  0
    5.1880    7.2840  -21.5410 C   0  0  0  0  0  0  0  0  0  0  0  0
    5.7260    8.6710  -21.1300 C   0  0  0  0  0  0  0  0  0  0  0  0
    3.9470    7.3200  -22.4070 C   0  0  0  0  0  0  0  0  0  0  0  0
  1  2  2  0
  1  3  1  0
  2  6  1  0
  3  5  2  0
  3 27  1  0
  4  5  1  0
  4  6  2  0
  4 18  1  0
  5 24  1  0
  6 10  1  0
  7 10  2  0
  7 23  1  0
  7 33  1  0
 21  8  1  1
  8 22  1  0
  9 21  1  0
  9 31  1  0
 11 12  2  0
 11 14  1  0
 11 15  1  0
 12 17  1  0
 12 28  1  0
 13 28  2  0
 13 29  1  0
 13 41  1  0
 14 29  2  0
 14 31  1  0
 15 30  2  0
 16 17  2  0
 16 18  1  0
 16 30  1  0
 17 26  1  0
 18 23  2  0
 20 19  1  6
 19 31  1  0
 20 22  1  0
 20 32  1  0
 21 32  1  0
 24 25  3  0
 34 41  2  0
 35 36  1  0
 35 37  1  0
 35 38  1  0
 36 40  1  0
 39 40  1  0
 39 41  1  0
M  CHG  1  35   1
M  END
>  <s_m_entry_id>  (164) 
695

>  <s_m_entry_name>  (164) 
000000537.1

>  <s_m_Source_Path>  (164) 
/Users/zaksoul/Documents/3r_UNI/2nd_SEMESTER/BSC/FRAG_RECON/RESULTS/2

>  <s_m_Source_File>  (164) 
000000537.mol2

>  <i_m_Source_File_Index>  (164) 
1

$$$$
No_0_560
     RDKit          3D

 41 46  0  0  1  0  0  0  0  0999 V2000
   -4.9090    3.6370  -21.9760 C   0  0  0  0  0  0  0  0  0  0  0  0
   -5.1760    3.8340  -23.3100 C   0  0  0  0  0  0  0  0  0  0  0  0
   -3.6710    3.3750  -21.6390 C   0  0  0  0  0  0  0  0  0  0  0  0
   -2.7830    3.5070  -23.8060 C   0  0  0  0  0  0  0  0  0  0  0  0
   -2.6210    3.2540  -22.3870 C   0  0  0  0  0  0  0  0  0  0  0  0
   -4.1300    3.7800  -24.3230 C   0  0  0  0  0  0  0  0  0  0  0  0
   -3.3790    3.8090  -26.5220 C   0  0  0  0  0  0  0  0  0  0  0  0
    6.3550    2.9880  -21.2800 C   0  0  0  0  0  0  0  0  0  0  0  0
    6.2130    3.1450  -23.8280 C   0  0  0  0  0  0  0  0  0  0  0  0
   -4.3830    3.9160  -25.6570 C   0  0  0  0  0  0  0  0  0  0  0  0
    2.4310    3.7160  -23.8350 C   0  0  0  0  0  0  0  0  0  0  0  0
    1.6180    4.8280  -23.5290 C   0  0  0  0  0  0  0  0  0  0  0  0
    3.4240    6.0090  -22.8460 C   0  0  0  0  0  0  0  0  0  0  0  0
    3.8330    3.8960  -23.5240 C   0  0  0  0  0  0  0  0  0  0  0  0
    1.8770    2.6050  -24.5010 C   0  0  0  0  0  0  0  0  0  0  0  0
   -0.2450    3.4310  -24.3820 C   0  0  0  0  0  0  0  0  0  0  0  0
    0.2900    4.6450  -23.7780 C   0  0  0  0  0  0  0  0  0  0  0  0
   -1.6990    3.4480  -24.7340 C   0  0  0  0  0  0  0  0  0  0  0  0
    4.4240    1.3930  -23.2460 C   0  0  0  0  0  0  0  0  0  0  0  0
    5.3580    1.0260  -22.1030 C   0  0  2  0  0  0  0  0  0  0  0  0
    6.9590    2.5600  -22.6350 C   0  0  2  0  0  0  0  0  0  0  0  0
    5.3480    2.0210  -20.9310 C   0  0  0  0  0  0  0  0  0  0  0  0
   -2.0260    3.6170  -26.1600 C   0  0  0  0  0  0  0  0  0  0  0  0
   -1.2790    2.8300  -21.7930 C   0  0  0  0  0  0  0  0  0  0  0  0
   -0.2490    2.4730  -21.2910 C   0  0  0  0  0  0  0  0  0  0  0  0
   -0.5450    5.6930  -23.4260 F   0  0  0  0  0  0  0  0  0  0  0  0
   -3.4600    3.1240  -20.2590 F   0  0  0  0  0  0  0  0  0  0  0  0
    2.1030    5.9810  -22.9920 N   0  0  0  0  0  0  0  0  0  0  0  0
    4.3140    5.0420  -23.0730 N   0  0  0  0  0  0  0  0  0  0  0  0
    0.5690    2.5250  -24.8040 N   0  0  0  0  0  0  0  0  0  0  0  0
    4.7450    2.8440  -23.7080 N   0  0  0  0  0  0  0  0  0  0  0  0
    6.7640    1.0870  -22.5880 N   0  0  0  0  0  0  0  0  0  0  0  0
   -3.5550    3.8320  -27.9110 O   0  0  0  0  0  0  0  0  0  0  0  0
    3.4590    8.3450  -22.7790 O   0  0  0  0  0  0  0  0  0  0  0  0
    5.7610   10.5730  -22.5430 O   0  0  0  0  0  0  0  0  0  0  0  0
    8.3250    8.3880  -22.9960 N   0  0  0  0  0  0  0  0  0  0  0  0
    5.1930    7.2680  -21.4680 C   0  0  0  0  0  0  0  0  0  0  0  0
    5.7900    8.6550  -21.1620 C   0  0  0  0  0  0  0  0  0  0  0  0
    6.1460    9.4350  -22.4090 C   0  0  0  0  0  0  0  0  0  0  0  0
    6.9660    8.7810  -23.4980 C   0  0  0  0  0  0  0  0  0  0  0  0
    3.9870    7.3290  -22.3770 C   0  0  0  0  0  0  0  0  0  0  0  0
  1  2  2  0
  1  3  1  0
  2  6  1  0
  3  5  2  0
  3 27  1  0
  4  5  1  0
  4  6  2  0
  4 18  1  0
  5 24  1  0
  6 10  1  0
  7 10  2  0
  7 23  1  0
  7 33  1  0
 21  8  1  1
  8 22  1  0
  9 21  1  0
  9 31  1  0
 11 12  2  0
 11 14  1  0
 11 15  1  0
 12 17  1  0
 12 28  1  0
 13 28  2  0
 13 29  1  0
 13 41  1  0
 14 29  2  0
 14 31  1  0
 15 30  2  0
 16 17  2  0
 16 18  1  0
 16 30  1  0
 17 26  1  0
 18 23  2  0
 20 19  1  6
 19 31  1  0
 20 22  1  0
 20 32  1  0
 21 32  1  0
 24 25  3  0
 34 41  2  0
 35 39  2  0
 36 40  1  0
 37 38  1  0
 37 41  1  0
 38 39  1  0
 39 40  1  0
M  END
>  <s_m_entry_id>  (165) 
697

>  <s_m_entry_name>  (165) 
000000539.1

>  <s_m_Source_Path>  (165) 
/Users/zaksoul/Documents/3r_UNI/2nd_SEMESTER/BSC/FRAG_RECON/RESULTS/2

>  <s_m_Source_File>  (165) 
000000539.mol2

>  <i_m_Source_File_Index>  (165) 
1

$$$$
No_0_561,No_0_562,No_0_563,No_0_564,No_0_565
     RDKit          3D

 41 46  0  0  1  0  0  0  0  0999 V2000
   -4.8820    3.7060  -21.8400 C   0  0  0  0  0  0  0  0  0  0  0  0
   -5.1670    3.8890  -23.1720 C   0  0  0  0  0  0  0  0  0  0  0  0
   -3.6400    3.4460  -21.5160 C   0  0  0  0  0  0  0  0  0  0  0  0
   -2.7820    3.5530  -23.6960 C   0  0  0  0  0  0  0  0  0  0  0  0
   -2.6010    3.3160  -22.2770 C   0  0  0  0  0  0  0  0  0  0  0  0
   -4.1350    3.8230  -24.1980 C   0  0  0  0  0  0  0  0  0  0  0  0
   -3.4140    3.8270  -26.4070 C   0  0  0  0  0  0  0  0  0  0  0  0
    6.3900    3.0510  -21.2870 C   0  0  0  0  0  0  0  0  0  0  0  0
    6.2130    3.1800  -23.8350 C   0  0  0  0  0  0  0  0  0  0  0  0
   -4.4060    3.9450  -25.5300 C   0  0  0  0  0  0  0  0  0  0  0  0
    2.4330    3.7560  -23.7980 C   0  0  0  0  0  0  0  0  0  0  0  0
    1.6240    4.8720  -23.4920 C   0  0  0  0  0  0  0  0  0  0  0  0
    3.4410    6.0580  -22.8470 C   0  0  0  0  0  0  0  0  0  0  0  0
    3.8390    3.9380  -23.5070 C   0  0  0  0  0  0  0  0  0  0  0  0
    1.8680    2.6390  -24.4440 C   0  0  0  0  0  0  0  0  0  0  0  0
   -0.2510    3.4680  -24.3060 C   0  0  0  0  0  0  0  0  0  0  0  0
    0.2930    4.6880  -23.7220 C   0  0  0  0  0  0  0  0  0  0  0  0
   -1.7100    3.4830  -24.6380 C   0  0  0  0  0  0  0  0  0  0  0  0
    4.4310    1.4380  -23.2100 C   0  0  0  0  0  0  0  0  0  0  0  0
    5.3800    1.0810  -22.0760 C   0  0  2  0  0  0  0  0  0  0  0  0
    6.9750    2.6070  -22.6460 C   0  0  2  0  0  0  0  0  0  0  0  0
    5.3870    2.0890  -20.9150 C   0  0  0  0  0  0  0  0  0  0  0  0
   -2.0560    3.6370  -26.0610 C   0  0  0  0  0  0  0  0  0  0  0  0
   -1.2500    2.8960  -21.6970 C   0  0  0  0  0  0  0  0  0  0  0  0
   -0.2150    2.5440  -21.2050 C   0  0  0  0  0  0  0  0  0  0  0  0
   -0.5360    5.7410  -23.3700 F   0  0  0  0  0  0  0  0  0  0  0  0
   -3.4100    3.2100  -20.1360 F   0  0  0  0  0  0  0  0  0  0  0  0
    2.1180    6.0300  -22.9750 N   0  0  0  0  0  0  0  0  0  0  0  0
    4.3270    5.0880  -23.0750 N   0  0  0  0  0  0  0  0  0  0  0  0
    0.5570    2.5570  -24.7290 N   0  0  0  0  0  0  0  0  0  0  0  0
    4.7470    2.8830  -23.6920 N   0  0  0  0  0  0  0  0  0  0  0  0
    6.7790    1.1360  -22.5800 N   0  0  0  0  0  0  0  0  0  0  0  0
   -3.6080    3.8350  -27.7940 O   0  0  0  0  0  0  0  0  0  0  0  0
    3.2240    8.2830  -22.2010 O   0  0  0  0  0  0  0  0  0  0  0  0
    6.4760    9.6370  -22.8130 N   0  0  0  0  0  0  0  0  0  0  0  0
    4.4260   10.8360  -23.0920 N   0  0  0  0  0  0  0  0  0  0  0  0
    6.2300   11.2140  -24.5030 N   0  0  0  0  0  0  0  0  0  0  0  0
    6.0260    8.8180  -21.6900 C   0  0  0  0  0  0  0  0  0  0  0  0
    5.7000   10.5510  -23.4510 C   0  0  0  0  0  0  0  0  0  0  0  0
    5.5100    7.4570  -22.2040 C   0  0  0  0  0  0  0  0  0  0  0  0
    4.0120    7.3830  -22.4000 C   0  0  0  0  0  0  0  0  0  0  0  0
  1  2  2  0
  1  3  1  0
  2  6  1  0
  3  5  2  0
  3 27  1  0
  4  5  1  0
  4  6  2  0
  4 18  1  0
  5 24  1  0
  6 10  1  0
  7 10  2  0
  7 23  1  0
  7 33  1  0
 21  8  1  1
  8 22  1  0
  9 21  1  0
  9 31  1  0
 11 12  2  0
 11 14  1  0
 11 15  1  0
 12 17  1  0
 12 28  1  0
 13 28  2  0
 13 29  1  0
 13 41  1  0
 14 29  2  0
 14 31  1  0
 15 30  2  0
 16 17  2  0
 16 18  1  0
 16 30  1  0
 17 26  1  0
 18 23  2  0
 20 19  1  6
 19 31  1  0
 20 22  1  0
 20 32  1  0
 21 32  1  0
 24 25  3  0
 34 41  2  0
 35 38  1  0
 35 39  2  3
 36 39  1  0
 37 39  1  0
 38 40  1  0
 40 41  1  0
M  CHG  1  35   1
M  END
>  <s_m_entry_id>  (166) 
698

>  <s_m_entry_name>  (166) 
000000540.1

>  <s_m_Source_Path>  (166) 
/Users/zaksoul/Documents/3r_UNI/2nd_SEMESTER/BSC/FRAG_RECON/RESULTS/2

>  <s_m_Source_File>  (166) 
000000540.mol2

>  <i_m_Source_File_Index>  (166) 
1

$$$$
No_0_566
     RDKit          3D

 42 48  0  0  1  0  0  0  0  0999 V2000
   -5.0830    3.8450  -21.9480 C   0  0  0  0  0  0  0  0  0  0  0  0
   -5.3400    4.0100  -23.2880 C   0  0  0  0  0  0  0  0  0  0  0  0
   -3.8570    3.5500  -21.5980 C   0  0  0  0  0  0  0  0  0  0  0  0
   -2.9590    3.5820  -23.7640 C   0  0  0  0  0  0  0  0  0  0  0  0
   -2.8100    3.3690  -22.3380 C   0  0  0  0  0  0  0  0  0  0  0  0
   -4.2940    3.8870  -24.2950 C   0  0  0  0  0  0  0  0  0  0  0  0
   -3.5370    3.8190  -26.4910 C   0  0  0  0  0  0  0  0  0  0  0  0
    6.1490    2.8200  -21.1900 C   0  0  0  0  0  0  0  0  0  0  0  0
    6.0180    2.9000  -23.7420 C   0  0  0  0  0  0  0  0  0  0  0  0
   -4.5390    3.9890  -25.6330 C   0  0  0  0  0  0  0  0  0  0  0  0
    2.2600    3.6050  -23.7810 C   0  0  0  0  0  0  0  0  0  0  0  0
    1.4850    4.7540  -23.5130 C   0  0  0  0  0  0  0  0  0  0  0  0
    3.3310    5.8910  -22.8610 C   0  0  0  0  0  0  0  0  0  0  0  0
    3.6660    3.7450  -23.4710 C   0  0  0  0  0  0  0  0  0  0  0  0
    1.6680    2.4940  -24.4140 C   0  0  0  0  0  0  0  0  0  0  0  0
   -0.4240    3.3980  -24.3290 C   0  0  0  0  0  0  0  0  0  0  0  0
    0.1530    4.6110  -23.7610 C   0  0  0  0  0  0  0  0  0  0  0  0
   -1.8750    3.4550  -24.6860 C   0  0  0  0  0  0  0  0  0  0  0  0
    4.1670    1.2330  -23.1120 C   0  0  0  0  0  0  0  0  0  0  0  0
    5.0840    0.8690  -21.9550 C   0  0  2  0  0  0  0  0  0  0  0  0
    6.7410    2.3270  -22.5280 C   0  0  2  0  0  0  0  0  0  0  0  0
    5.1070    1.9000  -20.8140 C   0  0  0  0  0  0  0  0  0  0  0  0
   -2.1920    3.5900  -26.1180 C   0  0  0  0  0  0  0  0  0  0  0  0
   -1.4850    2.9160  -21.7260 C   0  0  0  0  0  0  0  0  0  0  0  0
   -0.4700    2.5390  -21.2090 C   0  0  0  0  0  0  0  0  0  0  0  0
   -0.6450    5.6990  -23.4460 F   0  0  0  0  0  0  0  0  0  0  0  0
   -3.6580    3.3360  -20.2090 F   0  0  0  0  0  0  0  0  0  0  0  0
    2.0100    5.9060  -23.0110 N   0  0  0  0  0  0  0  0  0  0  0  0
    4.1870    4.8870  -23.0540 N   0  0  0  0  0  0  0  0  0  0  0  0
    0.3590    2.4510  -24.7190 N   0  0  0  0  0  0  0  0  0  0  0  0
    4.5400    2.6560  -23.6180 N   0  0  0  0  0  0  0  0  0  0  0  0
    6.4930    0.8650  -22.4360 N   0  0  0  0  0  0  0  0  0  0  0  0
   -3.7080    3.8040  -27.8810 O   0  0  0  0  0  0  0  0  0  0  0  0
    6.4360    9.1060  -22.9250 O   0  0  0  0  0  0  0  0  0  0  0  0
    3.2730    8.2070  -22.5820 O   0  0  0  0  0  0  0  0  0  0  0  0
    6.4150   12.0590  -23.9220 N   0  0  0  0  0  0  0  0  0  0  0  0
    6.1430   10.8080  -24.6940 C   0  0  0  0  0  0  0  0  0  0  0  0
    6.0030   11.5360  -22.5830 C   0  0  0  0  0  0  0  0  0  0  0  0
    5.6510   10.2360  -23.3450 C   0  0  0  0  0  0  0  0  0  0  0  0
    5.3530    7.1630  -21.8910 C   0  0  0  0  0  0  0  0  0  0  0  0
    5.9900    8.5480  -21.6730 C   0  0  0  0  0  0  0  0  0  0  0  0
    3.9390    7.2050  -22.4320 C   0  0  0  0  0  0  0  0  0  0  0  0
  1  2  2  0
  1  3  1  0
  2  6  1  0
  3  5  2  0
  3 27  1  0
  4  5  1  0
  4  6  2  0
  4 18  1  0
  5 24  1  0
  6 10  1  0
  7 10  2  0
  7 23  1  0
  7 33  1  0
 21  8  1  1
  8 22  1  0
  9 21  1  0
  9 31  1  0
 11 12  1  0
 11 14  1  0
 11 15  2  0
 12 17  2  0
 12 28  1  0
 13 28  2  0
 13 29  1  0
 13 42  1  0
 14 29  2  0
 14 31  1  0
 15 30  1  0
 16 17  1  0
 16 18  1  0
 16 30  2  0
 17 26  1  0
 18 23  2  0
 20 19  1  6
 19 31  1  0
 20 22  1  0
 20 32  1  0
 21 32  1  0
 24 25  3  0
 34 39  1  0
 34 41  1  0
 35 42  2  0
 36 37  1  0
 36 38  1  0
 37 39  1  0
 38 39  1  0
 40 41  1  0
 40 42  1  0
M  CHG  1  36   1
M  END
>  <s_m_entry_id>  (167) 
703

>  <s_m_entry_name>  (167) 
000000545.1

>  <s_m_Source_Path>  (167) 
/Users/zaksoul/Documents/3r_UNI/2nd_SEMESTER/BSC/FRAG_RECON/RESULTS/2

>  <s_m_Source_File>  (167) 
000000545.mol2

>  <i_m_Source_File_Index>  (167) 
1

$$$$
No_0_567
     RDKit          3D

 41 46  0  0  1  0  0  0  0  0999 V2000
   -4.9600    3.7550  -22.0370 C   0  0  0  0  0  0  0  0  0  0  0  0
   -5.2120    3.9780  -23.3710 C   0  0  0  0  0  0  0  0  0  0  0  0
   -3.7260    3.4910  -21.6900 C   0  0  0  0  0  0  0  0  0  0  0  0
   -2.8120    3.6680  -23.8420 C   0  0  0  0  0  0  0  0  0  0  0  0
   -2.6670    3.3890  -22.4260 C   0  0  0  0  0  0  0  0  0  0  0  0
   -4.1530    3.9470  -24.3710 C   0  0  0  0  0  0  0  0  0  0  0  0
   -3.3740    4.0210  -26.5600 C   0  0  0  0  0  0  0  0  0  0  0  0
    6.2960    3.1330  -21.2110 C   0  0  0  0  0  0  0  0  0  0  0  0
    6.1850    3.3390  -23.7570 C   0  0  0  0  0  0  0  0  0  0  0  0
   -4.3900    4.1080  -25.7050 C   0  0  0  0  0  0  0  0  0  0  0  0
    2.4020    3.8960  -23.8010 C   0  0  0  0  0  0  0  0  0  0  0  0
    1.5810    4.9990  -23.4840 C   0  0  0  0  0  0  0  0  0  0  0  0
    3.3740    6.1730  -22.7550 C   0  0  0  0  0  0  0  0  0  0  0  0
    3.8000    4.0760  -23.4690 C   0  0  0  0  0  0  0  0  0  0  0  0
    1.8610    2.7970  -24.4960 C   0  0  0  0  0  0  0  0  0  0  0  0
   -0.2660    3.6130  -24.3880 C   0  0  0  0  0  0  0  0  0  0  0  0
    0.2570    4.8170  -23.7530 C   0  0  0  0  0  0  0  0  0  0  0  0
   -1.7150    3.6310  -24.7570 C   0  0  0  0  0  0  0  0  0  0  0  0
    4.3970    1.5700  -23.2320 C   0  0  0  0  0  0  0  0  0  0  0  0
    5.3170    1.1840  -22.0850 C   0  0  2  0  0  0  0  0  0  0  0  0
    6.9190    2.7330  -22.5660 C   0  0  2  0  0  0  0  0  0  0  0  0
    5.2890    2.1560  -20.8940 C   0  0  0  0  0  0  0  0  0  0  0  0
   -2.0250    3.8270  -26.1840 C   0  0  0  0  0  0  0  0  0  0  0  0
   -1.3300    2.9570  -21.8240 C   0  0  0  0  0  0  0  0  0  0  0  0
   -0.3050    2.5950  -21.3160 C   0  0  0  0  0  0  0  0  0  0  0  0
   -0.5860    5.8550  -23.3920 F   0  0  0  0  0  0  0  0  0  0  0  0
   -3.5310    3.2140  -20.3120 F   0  0  0  0  0  0  0  0  0  0  0  0
    2.0550    6.1430  -22.9190 N   0  0  0  0  0  0  0  0  0  0  0  0
    4.2710    5.2140  -22.9900 N   0  0  0  0  0  0  0  0  0  0  0  0
    0.5570    2.7180  -24.8170 N   0  0  0  0  0  0  0  0  0  0  0  0
    4.7170    3.0300  -23.6620 N   0  0  0  0  0  0  0  0  0  0  0  0
    6.7290    1.2590  -22.5510 N   0  0  0  0  0  0  0  0  0  0  0  0
   -3.5320    4.0710  -27.9500 O   0  0  0  0  0  0  0  0  0  0  0  0
    3.3620    8.5030  -22.6010 O   0  0  0  0  0  0  0  0  0  0  0  0
    5.9020    9.7570  -21.9550 N   0  0  0  0  0  0  0  0  0  0  0  0
    7.0410   10.4010  -24.1160 C   0  0  0  0  0  0  0  0  0  0  0  0
    5.6590    8.7620  -20.8500 C   0  0  0  0  0  0  0  0  0  0  0  0
    6.8210    9.3030  -23.0580 C   0  0  0  0  0  0  0  0  0  0  0  0
    3.9260    7.4860  -22.2530 C   0  0  0  0  0  0  0  0  0  0  0  0
    5.1340    7.3980  -21.3490 C   0  0  0  0  0  0  0  0  0  0  0  0
    5.8550   10.4870  -25.0940 C   0  0  0  0  0  0  0  0  0  0  0  0
  1  2  2  0
  1  3  1  0
  2  6  1  0
  3  5  2  0
  3 27  1  0
  4  5  1  0
  4  6  2  0
  4 18  1  0
  5 24  1  0
  6 10  1  0
  7 10  2  0
  7 23  1  0
  7 33  1  0
 21  8  1  1
  8 22  1  0
  9 21  1  0
  9 31  1  0
 11 12  2  0
 11 14  1  0
 11 15  1  0
 12 17  1  0
 12 28  1  0
 13 28  2  0
 13 29  1  0
 13 39  1  0
 14 29  2  0
 14 31  1  0
 15 30  2  0
 16 17  2  0
 16 18  1  0
 16 30  1  0
 17 26  1  0
 18 23  2  0
 20 19  1  6
 19 31  1  0
 20 22  1  0
 20 32  1  0
 21 32  1  0
 24 25  3  0
 34 39  2  0
 35 37  1  0
 35 38  1  0
 36 38  1  0
 36 41  1  0
 37 40  1  0
 39 40  1  0
M  CHG  1  35   1
M  END
>  <s_m_entry_id>  (168) 
704

>  <s_m_entry_name>  (168) 
000000546.1

>  <s_m_Source_Path>  (168) 
/Users/zaksoul/Documents/3r_UNI/2nd_SEMESTER/BSC/FRAG_RECON/RESULTS/2

>  <s_m_Source_File>  (168) 
000000546.mol2

>  <i_m_Source_File_Index>  (168) 
1

$$$$
No_0_568
     RDKit          3D

 43 49  0  0  1  0  0  0  0  0999 V2000
   -5.0330    3.5660  -22.0190 C   0  0  0  0  0  0  0  0  0  0  0  0
   -5.2900    3.7470  -23.3570 C   0  0  0  0  0  0  0  0  0  0  0  0
   -3.7950    3.3230  -21.6670 C   0  0  0  0  0  0  0  0  0  0  0  0
   -2.8880    3.4460  -23.8270 C   0  0  0  0  0  0  0  0  0  0  0  0
   -2.7370    3.2090  -22.4040 C   0  0  0  0  0  0  0  0  0  0  0  0
   -4.2340    3.6970  -24.3590 C   0  0  0  0  0  0  0  0  0  0  0  0
   -3.4620    3.7130  -26.5520 C   0  0  0  0  0  0  0  0  0  0  0  0
    6.2310    3.0720  -21.2090 C   0  0  0  0  0  0  0  0  0  0  0  0
    6.1110    3.2020  -23.7600 C   0  0  0  0  0  0  0  0  0  0  0  0
   -4.4760    3.8160  -25.6970 C   0  0  0  0  0  0  0  0  0  0  0  0
    2.3230    3.7230  -23.8080 C   0  0  0  0  0  0  0  0  0  0  0  0
    1.4920    4.8270  -23.5210 C   0  0  0  0  0  0  0  0  0  0  0  0
    3.2770    6.0390  -22.8330 C   0  0  0  0  0  0  0  0  0  0  0  0
    3.7200    3.9250  -23.4850 C   0  0  0  0  0  0  0  0  0  0  0  0
    1.7900    2.5990  -24.4690 C   0  0  0  0  0  0  0  0  0  0  0  0
   -0.3440    3.3980  -24.3780 C   0  0  0  0  0  0  0  0  0  0  0  0
    0.1700    4.6240  -23.7810 C   0  0  0  0  0  0  0  0  0  0  0  0
   -1.7940    3.3920  -24.7440 C   0  0  0  0  0  0  0  0  0  0  0  0
    4.3410    1.4330  -23.1770 C   0  0  0  0  0  0  0  0  0  0  0  0
    5.2680    1.0890  -22.0220 C   0  0  2  0  0  0  0  0  0  0  0  0
    6.8540    2.6380  -22.5530 C   0  0  2  0  0  0  0  0  0  0  0  0
    5.2340    2.0960  -20.8600 C   0  0  0  0  0  0  0  0  0  0  0  0
   -2.1100    3.5420  -26.1750 C   0  0  0  0  0  0  0  0  0  0  0  0
   -1.3940    2.8080  -21.7930 C   0  0  0  0  0  0  0  0  0  0  0  0
   -0.3650    2.4700  -21.2780 C   0  0  0  0  0  0  0  0  0  0  0  0
   -0.6820    5.6650  -23.4480 F   0  0  0  0  0  0  0  0  0  0  0  0
   -3.5940    3.0890  -20.2820 F   0  0  0  0  0  0  0  0  0  0  0  0
    1.9570    5.9920  -22.9910 N   0  0  0  0  0  0  0  0  0  0  0  0
    4.1810    5.0810  -23.0420 N   0  0  0  0  0  0  0  0  0  0  0  0
    0.4860    2.4990  -24.7830 N   0  0  0  0  0  0  0  0  0  0  0  0
    4.6460    2.8830  -23.6510 N   0  0  0  0  0  0  0  0  0  0  0  0
    6.6780    1.1640  -22.4940 N   0  0  0  0  0  0  0  0  0  0  0  0
   -3.6240    3.7200  -27.9430 O   0  0  0  0  0  0  0  0  0  0  0  0
    3.2420    8.3700  -22.7480 O   0  0  0  0  0  0  0  0  0  0  0  0
    6.2460    9.4570  -21.9760 N   0  0  0  0  0  0  0  0  0  0  0  0
    8.4080    8.4730  -21.5550 N   0  0  0  0  0  0  0  0  0  0  0  0
    6.7980   11.1840  -23.3990 C   0  0  0  0  0  0  0  0  0  0  0  0
    8.0070   10.2380  -23.2580 C   0  0  0  0  0  0  0  0  0  0  0  0
    5.0290    7.3520  -21.4620 C   0  0  0  0  0  0  0  0  0  0  0  0
    5.5880   10.4040  -22.8540 C   0  0  0  0  0  0  0  0  0  0  0  0
    7.5560    9.2960  -22.1730 C   0  0  0  0  0  0  0  0  0  0  0  0
    5.4700    8.7430  -20.9700 C   0  0  0  0  0  0  0  0  0  0  0  0
    3.8180    7.3710  -22.3710 C   0  0  0  0  0  0  0  0  0  0  0  0
  1  2  2  0
  1  3  1  0
  2  6  1  0
  3  5  2  0
  3 27  1  0
  4  5  1  0
  4  6  2  0
  4 18  1  0
  5 24  1  0
  6 10  1  0
  7 10  2  0
  7 23  1  0
  7 33  1  0
 21  8  1  1
  8 22  1  0
  9 21  1  0
  9 31  1  0
 11 12  1  0
 11 14  1  0
 11 15  2  0
 12 17  2  0
 12 28  1  0
 13 28  2  0
 13 29  1  0
 13 43  1  0
 14 29  2  0
 14 31  1  0
 15 30  1  0
 16 17  1  0
 16 18  1  0
 16 30  2  0
 17 26  1  0
 18 23  2  0
 20 19  1  6
 19 31  1  0
 20 22  1  0
 20 32  1  0
 21 32  1  0
 24 25  3  0
 34 43  2  0
 35 40  1  0
 35 41  2  0
 35 42  1  0
 36 41  1  0
 37 38  1  0
 37 40  1  0
 38 41  1  0
 39 42  1  0
 39 43  1  0
M  CHG  1  35   1
M  END
>  <s_m_entry_id>  (169) 
705

>  <s_m_entry_name>  (169) 
000000547.1

>  <s_m_Source_Path>  (169) 
/Users/zaksoul/Documents/3r_UNI/2nd_SEMESTER/BSC/FRAG_RECON/RESULTS/2

>  <s_m_Source_File>  (169) 
000000547.mol2

>  <i_m_Source_File_Index>  (169) 
1

$$$$
No_0_569
     RDKit          3D

 41 46  0  0  1  0  0  0  0  0999 V2000
   -4.9250    3.3900  -21.9570 C   0  0  0  0  0  0  0  0  0  0  0  0
   -5.1880    3.6420  -23.2830 C   0  0  0  0  0  0  0  0  0  0  0  0
   -3.6860    3.1300  -21.6240 C   0  0  0  0  0  0  0  0  0  0  0  0
   -2.7880    3.3700  -23.7770 C   0  0  0  0  0  0  0  0  0  0  0  0
   -2.6300    3.0570  -22.3690 C   0  0  0  0  0  0  0  0  0  0  0  0
   -4.1350    3.6470  -24.2900 C   0  0  0  0  0  0  0  0  0  0  0  0
   -3.3720    3.7820  -26.4810 C   0  0  0  0  0  0  0  0  0  0  0  0
    6.3430    2.8660  -21.2190 C   0  0  0  0  0  0  0  0  0  0  0  0
    6.2130    3.1320  -23.7590 C   0  0  0  0  0  0  0  0  0  0  0  0
   -4.3830    3.8380  -25.6190 C   0  0  0  0  0  0  0  0  0  0  0  0
    2.4240    3.6510  -23.7650 C   0  0  0  0  0  0  0  0  0  0  0  0
    1.5930    4.7370  -23.4150 C   0  0  0  0  0  0  0  0  0  0  0  0
    3.3790    5.9120  -22.6700 C   0  0  0  0  0  0  0  0  0  0  0  0
    3.8210    3.8370  -23.4370 C   0  0  0  0  0  0  0  0  0  0  0  0
    1.8890    2.5640  -24.4820 C   0  0  0  0  0  0  0  0  0  0  0  0
   -0.2450    3.3540  -24.3400 C   0  0  0  0  0  0  0  0  0  0  0  0
    0.2700    4.5470  -23.6800 C   0  0  0  0  0  0  0  0  0  0  0  0
   -1.6970    3.3660  -24.7000 C   0  0  0  0  0  0  0  0  0  0  0  0
    4.4460    1.3330  -23.2650 C   0  0  0  0  0  0  0  0  0  0  0  0
    5.3780    0.9280  -22.1330 C   0  0  2  0  0  0  0  0  0  0  0  0
    6.9610    2.5060  -22.5870 C   0  0  2  0  0  0  0  0  0  0  0  0
    5.3480    1.8710  -20.9190 C   0  0  0  0  0  0  0  0  0  0  0  0
   -2.0180    3.5930  -26.1200 C   0  0  0  0  0  0  0  0  0  0  0  0
   -1.2850    2.6250  -21.7860 C   0  0  0  0  0  0  0  0  0  0  0  0
   -0.2530    2.2610  -21.2940 C   0  0  0  0  0  0  0  0  0  0  0  0
   -0.5820    5.5680  -23.2880 F   0  0  0  0  0  0  0  0  0  0  0  0
   -3.4790    2.8220  -20.2540 F   0  0  0  0  0  0  0  0  0  0  0  0
    2.0590    5.8720  -22.8250 N   0  0  0  0  0  0  0  0  0  0  0  0
    4.2840    4.9680  -22.9330 N   0  0  0  0  0  0  0  0  0  0  0  0
    0.5840    2.4790  -24.7960 N   0  0  0  0  0  0  0  0  0  0  0  0
    4.7480    2.8060  -23.6610 N   0  0  0  0  0  0  0  0  0  0  0  0
    6.7860    1.0300  -22.6060 N   0  0  0  0  0  0  0  0  0  0  0  0
   -3.5400    3.8640  -27.8690 O   0  0  0  0  0  0  0  0  0  0  0  0
    3.3420    8.2350  -22.4600 O   0  0  0  0  0  0  0  0  0  0  0  0
    5.2620    9.6130  -21.6190 N   0  0  0  0  0  0  0  0  0  0  0  0
    6.7300    9.0360  -23.4170 N   0  0  0  0  0  0  0  0  0  0  0  0
    5.1470    7.1390  -21.2570 C   0  0  0  0  0  0  0  0  0  0  0  0
    5.6520    8.5090  -20.7470 C   0  0  0  0  0  0  0  0  0  0  0  0
    5.7790    9.7810  -22.8430 C   0  0  0  0  0  0  0  0  0  0  0  0
    5.2020   10.9320  -23.6360 C   0  0  0  0  0  0  0  0  0  0  0  0
    3.9210    7.2180  -22.1390 C   0  0  0  0  0  0  0  0  0  0  0  0
  1  2  2  0
  1  3  1  0
  2  6  1  0
  3  5  2  0
  3 27  1  0
  4  5  1  0
  4  6  2  0
  4 18  1  0
  5 24  1  0
  6 10  1  0
  7 10  2  0
  7 23  1  0
  7 33  1  0
 21  8  1  1
  8 22  1  0
  9 21  1  0
  9 31  1  0
 11 12  2  0
 11 14  1  0
 11 15  1  0
 12 17  1  0
 12 28  1  0
 13 28  2  0
 13 29  1  0
 13 41  1  0
 14 29  2  0
 14 31  1  0
 15 30  2  0
 16 17  2  0
 16 18  1  0
 16 30  1  0
 17 26  1  0
 18 23  2  0
 20 19  1  6
 19 31  1  0
 20 22  1  0
 20 32  1  0
 21 32  1  0
 24 25  3  0
 34 41  2  0
 35 38  1  0
 35 39  2  0
 36 39  1  0
 37 38  1  0
 37 41  1  0
 39 40  1  0
M  CHG  1  35   1
M  END
>  <s_m_entry_id>  (170) 
706

>  <s_m_entry_name>  (170) 
000000548.1

>  <s_m_Source_Path>  (170) 
/Users/zaksoul/Documents/3r_UNI/2nd_SEMESTER/BSC/FRAG_RECON/RESULTS/2

>  <s_m_Source_File>  (170) 
000000548.mol2

>  <i_m_Source_File_Index>  (170) 
1

$$$$
No_0_570,No_0_571,No_0_572,No_0_573
     RDKit          3D

 40 45  0  0  1  0  0  0  0  0999 V2000
   -4.8850    3.7130  -22.0540 C   0  0  0  0  0  0  0  0  0  0  0  0
   -5.1550    3.9100  -23.3880 C   0  0  0  0  0  0  0  0  0  0  0  0
   -3.6470    3.4540  -21.7190 C   0  0  0  0  0  0  0  0  0  0  0  0
   -2.7620    3.5910  -23.8870 C   0  0  0  0  0  0  0  0  0  0  0  0
   -2.5970    3.3380  -22.4680 C   0  0  0  0  0  0  0  0  0  0  0  0
   -4.1110    3.8600  -24.4020 C   0  0  0  0  0  0  0  0  0  0  0  0
   -3.3630    3.8920  -26.6020 C   0  0  0  0  0  0  0  0  0  0  0  0
    6.3820    3.1030  -21.3750 C   0  0  0  0  0  0  0  0  0  0  0  0
    6.2350    3.2600  -23.9230 C   0  0  0  0  0  0  0  0  0  0  0  0
   -4.3660    3.9950  -25.7360 C   0  0  0  0  0  0  0  0  0  0  0  0
    2.4520    3.8180  -23.9240 C   0  0  0  0  0  0  0  0  0  0  0  0
    1.6350    4.9270  -23.6160 C   0  0  0  0  0  0  0  0  0  0  0  0
    3.4380    6.1140  -22.9350 C   0  0  0  0  0  0  0  0  0  0  0  0
    3.8540    4.0030  -23.6150 C   0  0  0  0  0  0  0  0  0  0  0  0
    1.9000    2.7060  -24.5900 C   0  0  0  0  0  0  0  0  0  0  0  0
   -0.2250    3.5240  -24.4670 C   0  0  0  0  0  0  0  0  0  0  0  0
    0.3070    4.7400  -23.8630 C   0  0  0  0  0  0  0  0  0  0  0  0
   -1.6790    3.5360  -24.8170 C   0  0  0  0  0  0  0  0  0  0  0  0
    4.4540    1.5020  -23.3390 C   0  0  0  0  0  0  0  0  0  0  0  0
    5.3900    1.1380  -22.1970 C   0  0  2  0  0  0  0  0  0  0  0  0
    6.9850    2.6770  -22.7310 C   0  0  2  0  0  0  0  0  0  0  0  0
    5.3790    2.1320  -21.0250 C   0  0  0  0  0  0  0  0  0  0  0  0
   -2.0090    3.7040  -26.2420 C   0  0  0  0  0  0  0  0  0  0  0  0
   -1.2520    2.9180  -21.8770 C   0  0  0  0  0  0  0  0  0  0  0  0
   -0.2210    2.5640  -21.3760 C   0  0  0  0  0  0  0  0  0  0  0  0
   -0.5310    5.7850  -23.5100 F   0  0  0  0  0  0  0  0  0  0  0  0
   -3.4320    3.2040  -20.3390 F   0  0  0  0  0  0  0  0  0  0  0  0
    2.1160    6.0810  -23.0790 N   0  0  0  0  0  0  0  0  0  0  0  0
    4.3310    5.1500  -23.1640 N   0  0  0  0  0  0  0  0  0  0  0  0
    0.5930    2.6210  -24.8910 N   0  0  0  0  0  0  0  0  0  0  0  0
    4.7680    2.9540  -23.8010 N   0  0  0  0  0  0  0  0  0  0  0  0
    6.7960    1.2040  -22.6840 N   0  0  0  0  0  0  0  0  0  0  0  0
   -3.5410    3.9150  -27.9910 O   0  0  0  0  0  0  0  0  0  0  0  0
    3.2260    8.3490  -22.2590 O   0  0  0  0  0  0  0  0  0  0  0  0
    5.8460    8.9380  -22.0920 O   0  0  0  0  0  0  0  0  0  0  0  0
    7.3170    9.0450  -24.7320 N   0  0  0  0  0  0  0  0  0  0  0  0
    7.2590    9.1780  -22.2260 C   0  0  0  0  0  0  0  0  0  0  0  0
    5.4950    7.5660  -22.3430 C   0  0  0  0  0  0  0  0  0  0  0  0
    7.5840    9.9150  -23.5380 C   0  0  0  0  0  0  0  0  0  0  0  0
    3.9970    7.4360  -22.4660 C   0  0  0  0  0  0  0  0  0  0  0  0
  1  2  2  0
  1  3  1  0
  2  6  1  0
  3  5  2  0
  3 27  1  0
  4  5  1  0
  4  6  2  0
  4 18  1  0
  5 24  1  0
  6 10  1  0
  7 10  2  0
  7 23  1  0
  7 33  1  0
 21  8  1  1
  8 22  1  0
  9 21  1  0
  9 31  1  0
 11 12  2  0
 11 14  1  0
 11 15  1  0
 12 17  1  0
 12 28  1  0
 13 28  2  0
 13 29  1  0
 13 40  1  0
 14 29  2  0
 14 31  1  0
 15 30  2  0
 16 17  2  0
 16 18  1  0
 16 30  1  0
 17 26  1  0
 18 23  2  0
 20 19  1  6
 19 31  1  0
 20 22  1  0
 20 32  1  0
 21 32  1  0
 24 25  3  0
 34 40  2  0
 35 37  1  0
 35 38  1  0
 36 39  1  0
 37 39  1  0
 38 40  1  0
M  CHG  1  36   1
M  END
>  <s_m_entry_id>  (171) 
707

>  <s_m_entry_name>  (171) 
000000549.1

>  <s_m_Source_Path>  (171) 
/Users/zaksoul/Documents/3r_UNI/2nd_SEMESTER/BSC/FRAG_RECON/RESULTS/2

>  <s_m_Source_File>  (171) 
000000549.mol2

>  <i_m_Source_File_Index>  (171) 
1

$$$$
No_0_574
     RDKit          3D

 41 46  0  0  1  0  0  0  0  0999 V2000
   -5.1810    3.6090  -21.8530 C   0  0  0  0  0  0  0  0  0  0  0  0
   -5.4520    3.8050  -23.1860 C   0  0  0  0  0  0  0  0  0  0  0  0
   -3.9420    3.3510  -21.5190 C   0  0  0  0  0  0  0  0  0  0  0  0
   -3.0590    3.4860  -23.6870 C   0  0  0  0  0  0  0  0  0  0  0  0
   -2.8930    3.2340  -22.2690 C   0  0  0  0  0  0  0  0  0  0  0  0
   -4.4090    3.7540  -24.2010 C   0  0  0  0  0  0  0  0  0  0  0  0
   -3.6630    3.7850  -26.4030 C   0  0  0  0  0  0  0  0  0  0  0  0
    6.0870    3.0010  -21.1820 C   0  0  0  0  0  0  0  0  0  0  0  0
    5.9380    3.1560  -23.7310 C   0  0  0  0  0  0  0  0  0  0  0  0
   -4.6650    3.8890  -25.5350 C   0  0  0  0  0  0  0  0  0  0  0  0
    2.1540    3.7130  -23.7290 C   0  0  0  0  0  0  0  0  0  0  0  0
    1.3370    4.8230  -23.4210 C   0  0  0  0  0  0  0  0  0  0  0  0
    3.1410    6.0110  -22.7430 C   0  0  0  0  0  0  0  0  0  0  0  0
    3.5570    3.8990  -23.4210 C   0  0  0  0  0  0  0  0  0  0  0  0
    1.6030    2.6010  -24.3930 C   0  0  0  0  0  0  0  0  0  0  0  0
   -0.5220    3.4190  -24.2700 C   0  0  0  0  0  0  0  0  0  0  0  0
    0.0100    4.6350  -23.6670 C   0  0  0  0  0  0  0  0  0  0  0  0
   -1.9770    3.4300  -24.6180 C   0  0  0  0  0  0  0  0  0  0  0  0
    4.1570    1.3990  -23.1440 C   0  0  0  0  0  0  0  0  0  0  0  0
    5.0950    1.0350  -22.0030 C   0  0  2  0  0  0  0  0  0  0  0  0
    6.6890    2.5740  -22.5390 C   0  0  2  0  0  0  0  0  0  0  0  0
    5.0840    2.0310  -20.8310 C   0  0  0  0  0  0  0  0  0  0  0  0
   -2.3080    3.5970  -26.0440 C   0  0  0  0  0  0  0  0  0  0  0  0
   -1.5470    2.8150  -21.6780 C   0  0  0  0  0  0  0  0  0  0  0  0
   -0.5150    2.4620  -21.1780 C   0  0  0  0  0  0  0  0  0  0  0  0
   -0.8280    5.6800  -23.3140 F   0  0  0  0  0  0  0  0  0  0  0  0
   -3.7260    3.1020  -20.1390 F   0  0  0  0  0  0  0  0  0  0  0  0
    1.8200    5.9780  -22.8860 N   0  0  0  0  0  0  0  0  0  0  0  0
    4.0350    5.0470  -22.9720 N   0  0  0  0  0  0  0  0  0  0  0  0
    0.2950    2.5160  -24.6930 N   0  0  0  0  0  0  0  0  0  0  0  0
    4.4710    2.8500  -23.6070 N   0  0  0  0  0  0  0  0  0  0  0  0
    6.5000    1.1010  -22.4910 N   0  0  0  0  0  0  0  0  0  0  0  0
   -3.8410    3.8060  -27.7920 O   0  0  0  0  0  0  0  0  0  0  0  0
    3.1440    8.3520  -22.6260 O   0  0  0  0  0  0  0  0  0  0  0  0
    5.5380    8.6860  -21.3180 N   0  0  0  0  0  0  0  0  0  0  0  0
    6.8160   10.5900  -22.4000 C   0  0  0  0  0  0  0  0  0  0  0  0
    6.2120    9.1810  -22.5680 C   0  0  0  0  0  0  0  0  0  0  0  0
    5.7770   11.7310  -22.3810 C   0  0  0  0  0  0  0  0  0  0  0  0
    3.7010    7.3330  -22.2760 C   0  0  0  0  0  0  0  0  0  0  0  0
    4.9590    7.3060  -21.4440 C   0  0  0  0  0  0  0  0  0  0  0  0
    5.1170   11.9480  -23.7550 C   0  0  0  0  0  0  0  0  0  0  0  0
  1  2  2  0
  1  3  1  0
  2  6  1  0
  3  5  2  0
  3 27  1  0
  4  5  1  0
  4  6  2  0
  4 18  1  0
  5 24  1  0
  6 10  1  0
  7 10  2  0
  7 23  1  0
  7 33  1  0
 21  8  1  1
  8 22  1  0
  9 21  1  0
  9 31  1  0
 11 12  2  0
 11 14  1  0
 11 15  1  0
 12 17  1  0
 12 28  1  0
 13 28  2  0
 13 29  1  0
 13 39  1  0
 14 29  2  0
 14 31  1  0
 15 30  2  0
 16 17  2  0
 16 18  1  0
 16 30  1  0
 17 26  1  0
 18 23  2  0
 20 19  1  6
 19 31  1  0
 20 22  1  0
 20 32  1  0
 21 32  1  0
 24 25  3  0
 34 39  2  0
 35 37  1  0
 35 40  1  0
 36 37  1  0
 36 38  1  0
 38 41  1  0
 39 40  1  0
M  END
>  <s_m_entry_id>  (172) 
711

>  <s_m_entry_name>  (172) 
000000553.1

>  <s_m_Source_Path>  (172) 
/Users/zaksoul/Documents/3r_UNI/2nd_SEMESTER/BSC/FRAG_RECON/RESULTS/2

>  <s_m_Source_File>  (172) 
000000553.mol2

>  <i_m_Source_File_Index>  (172) 
1

$$$$
No_0_575,No_0_576,No_0_577,No_0_578
     RDKit          3D

 40 45  0  0  1  0  0  0  0  0999 V2000
   -5.0120    3.5230  -22.0580 C   0  0  0  0  0  0  0  0  0  0  0  0
   -5.2610    3.7300  -23.3940 C   0  0  0  0  0  0  0  0  0  0  0  0
   -3.7810    3.2490  -21.7070 C   0  0  0  0  0  0  0  0  0  0  0  0
   -2.8650    3.3870  -23.8620 C   0  0  0  0  0  0  0  0  0  0  0  0
   -2.7220    3.1250  -22.4430 C   0  0  0  0  0  0  0  0  0  0  0  0
   -4.2030    3.6730  -24.3940 C   0  0  0  0  0  0  0  0  0  0  0  0
   -3.4250    3.7080  -26.5840 C   0  0  0  0  0  0  0  0  0  0  0  0
    6.2380    2.7850  -21.2260 C   0  0  0  0  0  0  0  0  0  0  0  0
    6.1280    2.9570  -23.7750 C   0  0  0  0  0  0  0  0  0  0  0  0
   -4.4390    3.8180  -25.7310 C   0  0  0  0  0  0  0  0  0  0  0  0
    2.3510    3.5560  -23.8260 C   0  0  0  0  0  0  0  0  0  0  0  0
    1.5420    4.6730  -23.5230 C   0  0  0  0  0  0  0  0  0  0  0  0
    3.3490    5.8370  -22.8120 C   0  0  0  0  0  0  0  0  0  0  0  0
    3.7510    3.7250  -23.4960 C   0  0  0  0  0  0  0  0  0  0  0  0
    1.7970    2.4540  -24.5040 C   0  0  0  0  0  0  0  0  0  0  0  0
   -0.3200    3.2950  -24.4070 C   0  0  0  0  0  0  0  0  0  0  0  0
    0.2160    4.5010  -23.7900 C   0  0  0  0  0  0  0  0  0  0  0  0
   -1.7690    3.3240  -24.7770 C   0  0  0  0  0  0  0  0  0  0  0  0
    4.3190    1.2160  -23.2250 C   0  0  0  0  0  0  0  0  0  0  0  0
    5.2360    0.8350  -22.0720 C   0  0  2  0  0  0  0  0  0  0  0  0
    6.8550    2.3600  -22.5750 C   0  0  2  0  0  0  0  0  0  0  0  0
    5.2190    1.8240  -20.8950 C   0  0  0  0  0  0  0  0  0  0  0  0
   -2.0770    3.5040  -26.2060 C   0  0  0  0  0  0  0  0  0  0  0  0
   -1.3900    2.6870  -21.8350 C   0  0  0  0  0  0  0  0  0  0  0  0
   -0.3700    2.3200  -21.3220 C   0  0  0  0  0  0  0  0  0  0  0  0
   -0.6150    5.5540  -23.4430 F   0  0  0  0  0  0  0  0  0  0  0  0
   -3.5880    2.9890  -20.3260 F   0  0  0  0  0  0  0  0  0  0  0  0
    2.0290    5.8190  -22.9740 N   0  0  0  0  0  0  0  0  0  0  0  0
    4.2350    4.8640  -23.0330 N   0  0  0  0  0  0  0  0  0  0  0  0
    0.4930    2.3850  -24.8240 N   0  0  0  0  0  0  0  0  0  0  0  0
    4.6560    2.6660  -23.6750 N   0  0  0  0  0  0  0  0  0  0  0  0
    6.6480    0.8880  -22.5390 N   0  0  0  0  0  0  0  0  0  0  0  0
   -3.5830    3.7400  -27.9750 O   0  0  0  0  0  0  0  0  0  0  0  0
    7.3550   10.2970  -23.4500 F   0  0  0  0  0  0  0  0  0  0  0  0
    3.1470    8.0660  -22.1290 O   0  0  0  0  0  0  0  0  0  0  0  0
    5.7650    8.6290  -21.6320 N   0  0  0  0  0  0  0  0  0  0  0  0
    5.4080    7.2560  -22.1280 C   0  0  0  0  0  0  0  0  0  0  0  0
    7.2400    8.9050  -21.4910 C   0  0  0  0  0  0  0  0  0  0  0  0
    7.9410    9.1940  -22.8340 C   0  0  0  0  0  0  0  0  0  0  0  0
    3.9160    7.1500  -22.3280 C   0  0  0  0  0  0  0  0  0  0  0  0
  1  2  2  0
  1  3  1  0
  2  6  1  0
  3  5  2  0
  3 27  1  0
  4  5  1  0
  4  6  2  0
  4 18  1  0
  5 24  1  0
  6 10  1  0
  7 10  2  0
  7 23  1  0
  7 33  1  0
 21  8  1  1
  8 22  1  0
  9 21  1  0
  9 31  1  0
 11 12  2  0
 11 14  1  0
 11 15  1  0
 12 17  1  0
 12 28  1  0
 13 28  2  0
 13 29  1  0
 13 40  1  0
 14 29  2  0
 14 31  1  0
 15 30  2  0
 16 17  2  0
 16 18  1  0
 16 30  1  0
 17 26  1  0
 18 23  2  0
 20 19  1  6
 19 31  1  0
 20 22  1  0
 20 32  1  0
 21 32  1  0
 24 25  3  0
 34 39  1  0
 35 40  2  0
 36 37  1  0
 36 38  1  0
 37 40  1  0
 38 39  1  0
M  END
>  <s_m_entry_id>  (173) 
712

>  <s_m_entry_name>  (173) 
000000554.1

>  <s_m_Source_Path>  (173) 
/Users/zaksoul/Documents/3r_UNI/2nd_SEMESTER/BSC/FRAG_RECON/RESULTS/2

>  <s_m_Source_File>  (173) 
000000554.mol2

>  <i_m_Source_File_Index>  (173) 
1

$$$$
No_0_579,No_0_580,No_0_581
     RDKit          3D

 43 49  0  0  1  0  0  0  0  0999 V2000
   -5.2690    3.6930  -22.1590 C   0  0  0  0  0  0  0  0  0  0  0  0
   -5.5140    3.8580  -23.5020 C   0  0  0  0  0  0  0  0  0  0  0  0
   -4.0410    3.4240  -21.7960 C   0  0  0  0  0  0  0  0  0  0  0  0
   -3.1190    3.4870  -23.9520 C   0  0  0  0  0  0  0  0  0  0  0  0
   -2.9810    3.2700  -22.5250 C   0  0  0  0  0  0  0  0  0  0  0  0
   -4.4540    3.7640  -24.4970 C   0  0  0  0  0  0  0  0  0  0  0  0
   -3.6700    3.7240  -26.6840 C   0  0  0  0  0  0  0  0  0  0  0  0
    5.9740    2.9200  -21.2750 C   0  0  0  0  0  0  0  0  0  0  0  0
    5.8710    3.0100  -23.8280 C   0  0  0  0  0  0  0  0  0  0  0  0
   -4.6860    3.8670  -25.8380 C   0  0  0  0  0  0  0  0  0  0  0  0
    2.0980    3.6290  -23.9080 C   0  0  0  0  0  0  0  0  0  0  0  0
    1.2940    4.7590  -23.6430 C   0  0  0  0  0  0  0  0  0  0  0  0
    3.1060    5.9350  -22.9650 C   0  0  0  0  0  0  0  0  0  0  0  0
    3.4980    3.8000  -23.5800 C   0  0  0  0  0  0  0  0  0  0  0  0
    1.5390    2.5080  -24.5530 C   0  0  0  0  0  0  0  0  0  0  0  0
   -0.5740    3.3640  -24.4880 C   0  0  0  0  0  0  0  0  0  0  0  0
   -0.0310    4.5860  -23.9080 C   0  0  0  0  0  0  0  0  0  0  0  0
   -2.0220    3.3890  -24.8620 C   0  0  0  0  0  0  0  0  0  0  0  0
    4.0510    1.2980  -23.2270 C   0  0  0  0  0  0  0  0  0  0  0  0
    4.9630    0.9490  -22.0610 C   0  0  2  0  0  0  0  0  0  0  0  0
    6.5920    2.4480  -22.6090 C   0  0  2  0  0  0  0  0  0  0  0  0
    4.9490    1.9750  -20.9160 C   0  0  0  0  0  0  0  0  0  0  0  0
   -2.3250    3.5240  -26.2970 C   0  0  0  0  0  0  0  0  0  0  0  0
   -1.6530    2.8440  -21.9000 C   0  0  0  0  0  0  0  0  0  0  0  0
   -0.6360    2.4880  -21.3730 C   0  0  0  0  0  0  0  0  0  0  0  0
   -0.8580    5.6540  -23.5970 F   0  0  0  0  0  0  0  0  0  0  0  0
   -3.8530    3.2070  -20.4070 F   0  0  0  0  0  0  0  0  0  0  0  0
    1.7870    5.9200  -23.1300 N   0  0  0  0  0  0  0  0  0  0  0  0
    3.9870    4.9510  -23.1530 N   0  0  0  0  0  0  0  0  0  0  0  0
    0.2350    2.4370  -24.8730 N   0  0  0  0  0  0  0  0  0  0  0  0
    4.3980    2.7310  -23.7230 N   0  0  0  0  0  0  0  0  0  0  0  0
    6.3770    0.9790  -22.5260 N   0  0  0  0  0  0  0  0  0  0  0  0
   -3.8250    3.7120  -28.0760 O   0  0  0  0  0  0  0  0  0  0  0  0
    9.4350    9.1950  -21.7030 O   0  0  0  0  0  0  0  0  0  0  0  0
    3.1460    8.2780  -22.9080 O   0  0  0  0  0  0  0  0  0  0  0  0
    5.4690    8.5640  -21.3180 N   0  0  0  0  0  0  0  0  0  0  0  0
    7.4330    8.7930  -22.9210 C   0  0  0  0  0  0  0  0  0  0  0  0
    7.7870    7.9660  -20.5080 C   0  0  0  0  0  0  0  0  0  0  0  0
    6.0380    9.3070  -22.5060 C   0  0  0  0  0  0  0  0  0  0  0  0
    6.4110    8.5570  -20.1370 C   0  0  0  0  0  0  0  0  0  0  0  0
    3.6790    7.2590  -22.5220 C   0  0  0  0  0  0  0  0  0  0  0  0
    8.3340    8.6950  -21.7120 C   0  0  0  0  0  0  0  0  0  0  0  0
    4.9060    7.2010  -21.6400 C   0  0  0  0  0  0  0  0  0  0  0  0
  1  2  2  0
  1  3  1  0
  2  6  1  0
  3  5  2  0
  3 27  1  0
  4  5  1  0
  4  6  2  0
  4 18  1  0
  5 24  1  0
  6 10  1  0
  7 10  2  0
  7 23  1  0
  7 33  1  0
 21  8  1  1
  8 22  1  0
  9 21  1  0
  9 31  1  0
 11 12  1  0
 11 14  1  0
 11 15  2  0
 12 17  2  0
 12 28  1  0
 13 28  2  0
 13 29  1  0
 13 41  1  0
 14 29  2  0
 14 31  1  0
 15 30  1  0
 16 17  1  0
 16 18  1  0
 16 30  2  0
 17 26  1  0
 18 23  2  0
 20 19  1  6
 19 31  1  0
 20 22  1  0
 20 32  1  0
 21 32  1  0
 24 25  3  0
 34 42  2  0
 35 41  2  0
 36 39  1  0
 36 40  1  0
 36 43  1  0
 37 39  1  0
 37 42  1  0
 38 40  1  0
 38 42  1  0
 41 43  1  0
M  END
>  <s_m_entry_id>  (174) 
716

>  <s_m_entry_name>  (174) 
000000558.1

>  <s_m_Source_Path>  (174) 
/Users/zaksoul/Documents/3r_UNI/2nd_SEMESTER/BSC/FRAG_RECON/RESULTS/2

>  <s_m_Source_File>  (174) 
000000558.mol2

>  <i_m_Source_File_Index>  (174) 
1

$$$$
No_0_582,No_0_583,No_0_584
     RDKit          3D

 42 48  0  0  1  0  0  0  0  0999 V2000
   -5.2680    3.8490  -21.8110 C   0  0  0  0  0  0  0  0  0  0  0  0
   -5.5630    4.0030  -23.1450 C   0  0  0  0  0  0  0  0  0  0  0  0
   -4.0290    3.5710  -21.4940 C   0  0  0  0  0  0  0  0  0  0  0  0
   -3.1910    3.6010  -23.6840 C   0  0  0  0  0  0  0  0  0  0  0  0
   -3.0010    3.3980  -22.2610 C   0  0  0  0  0  0  0  0  0  0  0  0
   -4.5440    3.8870  -24.1790 C   0  0  0  0  0  0  0  0  0  0  0  0
   -3.8470    3.8160  -26.3950 C   0  0  0  0  0  0  0  0  0  0  0  0
    5.9920    2.9650  -21.3560 C   0  0  0  0  0  0  0  0  0  0  0  0
    5.7910    3.0290  -23.9050 C   0  0  0  0  0  0  0  0  0  0  0  0
   -4.8270    3.9790  -25.5110 C   0  0  0  0  0  0  0  0  0  0  0  0
    2.0240    3.6870  -23.8440 C   0  0  0  0  0  0  0  0  0  0  0  0
    1.2440    4.8290  -23.5610 C   0  0  0  0  0  0  0  0  0  0  0  0
    3.0920    5.9920  -22.9660 C   0  0  0  0  0  0  0  0  0  0  0  0
    3.4370    3.8470  -23.5730 C   0  0  0  0  0  0  0  0  0  0  0  0
    1.4290    2.5660  -24.4550 C   0  0  0  0  0  0  0  0  0  0  0  0
   -0.6700    3.4450  -24.3170 C   0  0  0  0  0  0  0  0  0  0  0  0
   -0.0930    4.6680  -23.7720 C   0  0  0  0  0  0  0  0  0  0  0  0
   -2.1310    3.4820  -24.6340 C   0  0  0  0  0  0  0  0  0  0  0  0
    3.9790    1.3430  -23.2150 C   0  0  0  0  0  0  0  0  0  0  0  0
    4.9320    0.9970  -22.0810 C   0  0  2  0  0  0  0  0  0  0  0  0
    6.5530    2.4720  -22.7080 C   0  0  2  0  0  0  0  0  0  0  0  0
    4.9730    2.0350  -20.9480 C   0  0  0  0  0  0  0  0  0  0  0  0
   -2.4900    3.6060  -26.0580 C   0  0  0  0  0  0  0  0  0  0  0  0
   -1.6530    2.9640  -21.6830 C   0  0  0  0  0  0  0  0  0  0  0  0
   -0.6200    2.6030  -21.1930 C   0  0  0  0  0  0  0  0  0  0  0  0
   -0.8960    5.7480  -23.4400 F   0  0  0  0  0  0  0  0  0  0  0  0
   -3.7890    3.3660  -20.1100 F   0  0  0  0  0  0  0  0  0  0  0  0
    1.7670    5.9900  -23.0800 N   0  0  0  0  0  0  0  0  0  0  0  0
    3.9550    4.9970  -23.1770 N   0  0  0  0  0  0  0  0  0  0  0  0
    0.1130    2.5060  -24.7240 N   0  0  0  0  0  0  0  0  0  0  0  0
    4.3200    2.7670  -23.7390 N   0  0  0  0  0  0  0  0  0  0  0  0
    6.3270    1.0070  -22.6010 N   0  0  0  0  0  0  0  0  0  0  0  0
   -4.0550    3.7910  -27.7800 O   0  0  0  0  0  0  0  0  0  0  0  0
    3.1530    8.3310  -22.9400 O   0  0  0  0  0  0  0  0  0  0  0  0
    8.6610    7.9310  -22.0520 O   0  0  0  0  0  0  0  0  0  0  0  0
    5.3500    8.7030  -21.3330 N   0  0  0  0  0  0  0  0  0  0  0  0
    6.4180    8.8140  -20.2890 C   0  0  0  0  0  0  0  0  0  0  0  0
    6.0820    9.4700  -22.3910 C   0  0  0  0  0  0  0  0  0  0  0  0
    4.9340    7.3040  -21.6940 C   0  0  0  0  0  0  0  0  0  0  0  0
    8.5670    9.3150  -21.6790 C   0  0  0  0  0  0  0  0  0  0  0  0
    7.1370    9.7450  -21.2930 C   0  0  0  0  0  0  0  0  0  0  0  0
    3.6960    7.3150  -22.5600 C   0  0  0  0  0  0  0  0  0  0  0  0
  1  2  2  0
  1  3  1  0
  2  6  1  0
  3  5  2  0
  3 27  1  0
  4  5  1  0
  4  6  2  0
  4 18  1  0
  5 24  1  0
  6 10  1  0
  7 10  2  0
  7 23  1  0
  7 33  1  0
 21  8  1  1
  8 22  1  0
  9 21  1  0
  9 31  1  0
 11 12  1  0
 11 14  1  0
 11 15  2  0
 12 17  2  0
 12 28  1  0
 13 28  2  0
 13 29  1  0
 13 42  1  0
 14 29  2  0
 14 31  1  0
 15 30  1  0
 16 17  1  0
 16 18  1  0
 16 30  2  0
 17 26  1  0
 18 23  2  0
 20 19  1  6
 19 31  1  0
 20 22  1  0
 20 32  1  0
 21 32  1  0
 24 25  3  0
 34 42  2  0
 35 40  1  0
 36 37  1  0
 36 38  1  0
 36 39  1  0
 37 41  1  0
 38 41  1  0
 39 42  1  0
 40 41  1  0
M  CHG  1  36   1
M  END
>  <s_m_entry_id>  (175) 
719

>  <s_m_entry_name>  (175) 
000000561.1

>  <s_m_Source_Path>  (175) 
/Users/zaksoul/Documents/3r_UNI/2nd_SEMESTER/BSC/FRAG_RECON/RESULTS/2

>  <s_m_Source_File>  (175) 
000000561.mol2

>  <i_m_Source_File_Index>  (175) 
1

$$$$
No_0_585,No_0_586,No_0_587
     RDKit          3D

 43 49  0  0  1  0  0  0  0  0999 V2000
   -4.9970    3.6700  -21.9540 C   0  0  0  0  0  0  0  0  0  0  0  0
   -5.2600    3.8450  -23.2920 C   0  0  0  0  0  0  0  0  0  0  0  0
   -3.7680    3.3800  -21.6100 C   0  0  0  0  0  0  0  0  0  0  0  0
   -2.8770    3.4400  -23.7790 C   0  0  0  0  0  0  0  0  0  0  0  0
   -2.7220    3.2140  -22.3550 C   0  0  0  0  0  0  0  0  0  0  0  0
   -4.2160    3.7390  -24.3020 C   0  0  0  0  0  0  0  0  0  0  0  0
   -3.4650    3.6980  -26.5020 C   0  0  0  0  0  0  0  0  0  0  0  0
    6.2440    2.7230  -21.2380 C   0  0  0  0  0  0  0  0  0  0  0  0
    6.1050    2.8270  -23.7890 C   0  0  0  0  0  0  0  0  0  0  0  0
   -4.4650    3.8520  -25.6390 C   0  0  0  0  0  0  0  0  0  0  0  0
    2.3420    3.5030  -23.8110 C   0  0  0  0  0  0  0  0  0  0  0  0
    1.5590    4.6430  -23.5290 C   0  0  0  0  0  0  0  0  0  0  0  0
    3.3980    5.7890  -22.8720 C   0  0  0  0  0  0  0  0  0  0  0  0
    3.7480    3.6510  -23.5020 C   0  0  0  0  0  0  0  0  0  0  0  0
    1.7560    2.3940  -24.4520 C   0  0  0  0  0  0  0  0  0  0  0  0
   -0.3420    3.2810  -24.3520 C   0  0  0  0  0  0  0  0  0  0  0  0
    0.2270    4.4920  -23.7750 C   0  0  0  0  0  0  0  0  0  0  0  0
   -1.7950    3.3300  -24.7050 C   0  0  0  0  0  0  0  0  0  0  0  0
    4.2690    1.1390  -23.1690 C   0  0  0  0  0  0  0  0  0  0  0  0
    5.1930    0.7720  -22.0180 C   0  0  2  0  0  0  0  0  0  0  0  0
    6.8360    2.2480  -22.5830 C   0  0  2  0  0  0  0  0  0  0  0  0
    5.2110    1.7920  -20.8680 C   0  0  0  0  0  0  0  0  0  0  0  0
   -2.1170    3.4760  -26.1350 C   0  0  0  0  0  0  0  0  0  0  0  0
   -1.3910    2.7660  -21.7510 C   0  0  0  0  0  0  0  0  0  0  0  0
   -0.3720    2.3920  -21.2410 C   0  0  0  0  0  0  0  0  0  0  0  0
   -0.5780    5.5710  -23.4470 F   0  0  0  0  0  0  0  0  0  0  0  0
   -3.5630    3.1540  -20.2240 F   0  0  0  0  0  0  0  0  0  0  0  0
    2.0760    5.7940  -23.0180 N   0  0  0  0  0  0  0  0  0  0  0  0
    4.2610    4.7930  -23.0770 N   0  0  0  0  0  0  0  0  0  0  0  0
    0.4470    2.3430  -24.7540 N   0  0  0  0  0  0  0  0  0  0  0  0
    4.6300    2.5700  -23.6630 N   0  0  0  0  0  0  0  0  0  0  0  0
    6.6000    0.7830  -22.5030 N   0  0  0  0  0  0  0  0  0  0  0  0
   -3.6400    3.6950  -27.8910 O   0  0  0  0  0  0  0  0  0  0  0  0
    3.2450    8.0370  -22.2500 O   0  0  0  0  0  0  0  0  0  0  0  0
    7.7660   10.4630  -24.5990 O   0  0  0  0  0  0  0  0  0  0  0  0
    9.3940    9.4800  -23.3380 O   0  0  0  0  0  0  0  0  0  0  0  0
    5.9120    8.5290  -21.7160 N   0  0  0  0  0  0  0  0  0  0  0  0
    5.8170    9.6670  -22.6840 C   0  0  0  0  0  0  0  0  0  0  0  0
    7.3760    8.6850  -21.4460 C   0  0  0  0  0  0  0  0  0  0  0  0
    5.4940    7.1800  -22.2300 C   0  0  0  0  0  0  0  0  0  0  0  0
    8.2210    9.9670  -23.5090 C   0  0  0  0  0  0  0  0  0  0  0  0
    7.2910    9.9610  -22.3170 C   0  0  0  0  0  0  0  0  0  0  0  0
    3.9980    7.1030  -22.4320 C   0  0  0  0  0  0  0  0  0  0  0  0
  1  2  2  0
  1  3  1  0
  2  6  1  0
  3  5  2  0
  3 27  1  0
  4  5  1  0
  4  6  2  0
  4 18  1  0
  5 24  1  0
  6 10  1  0
  7 10  2  0
  7 23  1  0
  7 33  1  0
 21  8  1  1
  8 22  1  0
  9 21  1  0
  9 31  1  0
 11 12  1  0
 11 14  1  0
 11 15  2  0
 12 17  2  0
 12 28  1  0
 13 28  2  0
 13 29  1  0
 13 43  1  0
 14 29  2  0
 14 31  1  0
 15 30  1  0
 16 17  1  0
 16 18  1  0
 16 30  2  0
 17 26  1  0
 18 23  2  0
 20 19  1  6
 19 31  1  0
 20 22  1  0
 20 32  1  0
 21 32  1  0
 24 25  3  0
 34 43  2  0
 35 41  1  0
 36 41  2  0
 37 38  1  0
 37 39  1  0
 37 40  1  0
 38 42  1  0
 39 42  1  0
 40 43  1  0
 41 42  1  0
M  CHG  2  35  -1  37   1
M  END
>  <s_m_entry_id>  (176) 
722

>  <s_m_entry_name>  (176) 
000000564.1

>  <s_m_Source_Path>  (176) 
/Users/zaksoul/Documents/3r_UNI/2nd_SEMESTER/BSC/FRAG_RECON/RESULTS/2

>  <s_m_Source_File>  (176) 
000000564.mol2

>  <i_m_Source_File_Index>  (176) 
1

$$$$
No_0_588,No_0_589
     RDKit          3D

 41 47  0  0  1  0  0  0  0  0999 V2000
   -5.1640    3.6630  -21.9230 C   0  0  0  0  0  0  0  0  0  0  0  0
   -5.4140    3.8690  -23.2590 C   0  0  0  0  0  0  0  0  0  0  0  0
   -3.9330    3.3890  -21.5720 C   0  0  0  0  0  0  0  0  0  0  0  0
   -3.0170    3.5260  -23.7270 C   0  0  0  0  0  0  0  0  0  0  0  0
   -2.8750    3.2640  -22.3080 C   0  0  0  0  0  0  0  0  0  0  0  0
   -4.3560    3.8130  -24.2590 C   0  0  0  0  0  0  0  0  0  0  0  0
   -3.5780    3.8480  -26.4490 C   0  0  0  0  0  0  0  0  0  0  0  0
    6.0850    2.9240  -21.0920 C   0  0  0  0  0  0  0  0  0  0  0  0
    5.9750    3.0960  -23.6410 C   0  0  0  0  0  0  0  0  0  0  0  0
   -4.5910    3.9580  -25.5950 C   0  0  0  0  0  0  0  0  0  0  0  0
    2.1990    3.6960  -23.6920 C   0  0  0  0  0  0  0  0  0  0  0  0
    1.3900    4.8120  -23.3890 C   0  0  0  0  0  0  0  0  0  0  0  0
    3.1970    5.9760  -22.6780 C   0  0  0  0  0  0  0  0  0  0  0  0
    3.5980    3.8640  -23.3620 C   0  0  0  0  0  0  0  0  0  0  0  0
    1.6440    2.5930  -24.3700 C   0  0  0  0  0  0  0  0  0  0  0  0
   -0.4730    3.4340  -24.2730 C   0  0  0  0  0  0  0  0  0  0  0  0
    0.0640    4.6410  -23.6550 C   0  0  0  0  0  0  0  0  0  0  0  0
   -1.9220    3.4640  -24.6420 C   0  0  0  0  0  0  0  0  0  0  0  0
    4.1670    1.3550  -23.0910 C   0  0  0  0  0  0  0  0  0  0  0  0
    5.0840    0.9740  -21.9390 C   0  0  2  0  0  0  0  0  0  0  0  0
    6.7030    2.4990  -22.4420 C   0  0  2  0  0  0  0  0  0  0  0  0
    5.0670    1.9630  -20.7610 C   0  0  0  0  0  0  0  0  0  0  0  0
   -2.2300    3.6430  -26.0710 C   0  0  0  0  0  0  0  0  0  0  0  0
   -1.5430    2.8260  -21.7000 C   0  0  0  0  0  0  0  0  0  0  0  0
   -0.5220    2.4590  -21.1870 C   0  0  0  0  0  0  0  0  0  0  0  0
   -0.7670    5.6930  -23.3080 F   0  0  0  0  0  0  0  0  0  0  0  0
   -3.7400    3.1290  -20.1910 F   0  0  0  0  0  0  0  0  0  0  0  0
    1.8770    5.9590  -22.8400 N   0  0  0  0  0  0  0  0  0  0  0  0
    4.0820    5.0030  -22.8990 N   0  0  0  0  0  0  0  0  0  0  0  0
    0.3400    2.5250  -24.6900 N   0  0  0  0  0  0  0  0  0  0  0  0
    4.5040    2.8050  -23.5410 N   0  0  0  0  0  0  0  0  0  0  0  0
    6.4960    1.0270  -22.4060 N   0  0  0  0  0  0  0  0  0  0  0  0
   -3.7360    3.8800  -27.8400 O   0  0  0  0  0  0  0  0  0  0  0  0
    3.2200    8.3130  -22.5490 O   0  0  0  0  0  0  0  0  0  0  0  0
    5.5580    8.5600  -20.9420 N   0  0  0  0  0  0  0  0  0  0  0  0
    3.7640    7.2890  -22.1940 C   0  0  0  0  0  0  0  0  0  0  0  0
    4.8650   10.7810  -20.7900 C   0  0  0  0  0  0  0  0  0  0  0  0
    5.6570   10.7130  -21.8330 C   0  0  0  0  0  0  0  0  0  0  0  0
    6.1420    9.3180  -22.1120 C   0  0  0  0  0  0  0  0  0  0  0  0
    4.6410    9.4480  -20.1310 C   0  0  0  0  0  0  0  0  0  0  0  0
    4.9880    7.2150  -21.3110 C   0  0  0  0  0  0  0  0  0  0  0  0
  1  2  2  0
  1  3  1  0
  2  6  1  0
  3  5  2  0
  3 27  1  0
  4  5  1  0
  4  6  2  0
  4 18  1  0
  5 24  1  0
  6 10  1  0
  7 10  2  0
  7 23  1  0
  7 33  1  0
 21  8  1  1
  8 22  1  0
  9 21  1  0
  9 31  1  0
 11 12  1  0
 11 14  1  0
 11 15  2  0
 12 17  2  0
 12 28  1  0
 13 28  2  0
 13 29  1  0
 13 36  1  0
 14 29  2  0
 14 31  1  0
 15 30  1  0
 16 17  1  0
 16 18  1  0
 16 30  2  0
 17 26  1  0
 18 23  2  0
 20 19  1  6
 19 31  1  0
 20 22  1  0
 20 32  1  0
 21 32  1  0
 24 25  3  0
 34 36  2  0
 35 39  1  0
 35 40  1  0
 35 41  1  0
 36 41  1  0
 37 38  2  0
 37 40  1  0
 38 39  1  0
M  END
>  <s_m_entry_id>  (177) 
725

>  <s_m_entry_name>  (177) 
000000567.1

>  <s_m_Source_Path>  (177) 
/Users/zaksoul/Documents/3r_UNI/2nd_SEMESTER/BSC/FRAG_RECON/RESULTS/2

>  <s_m_Source_File>  (177) 
000000567.mol2

>  <i_m_Source_File_Index>  (177) 
1

$$$$
No_0_590
     RDKit          3D

 42 48  0  0  1  0  0  0  0  0999 V2000
   -4.9880    3.5010  -21.9230 C   0  0  0  0  0  0  0  0  0  0  0  0
   -5.2650    3.6800  -23.2580 C   0  0  0  0  0  0  0  0  0  0  0  0
   -3.7500    3.2320  -21.5920 C   0  0  0  0  0  0  0  0  0  0  0  0
   -2.8790    3.3200  -23.7680 C   0  0  0  0  0  0  0  0  0  0  0  0
   -2.7080    3.0880  -22.3460 C   0  0  0  0  0  0  0  0  0  0  0  0
   -4.2280    3.5990  -24.2780 C   0  0  0  0  0  0  0  0  0  0  0  0
   -3.4950    3.5840  -26.4840 C   0  0  0  0  0  0  0  0  0  0  0  0
    6.2750    2.7480  -21.3100 C   0  0  0  0  0  0  0  0  0  0  0  0
    6.1120    2.8650  -23.8590 C   0  0  0  0  0  0  0  0  0  0  0  0
   -4.4910    3.7160  -25.6120 C   0  0  0  0  0  0  0  0  0  0  0  0
    2.3370    3.4750  -23.8440 C   0  0  0  0  0  0  0  0  0  0  0  0
    1.5370    4.6000  -23.5490 C   0  0  0  0  0  0  0  0  0  0  0  0
    3.3610    5.7730  -22.9000 C   0  0  0  0  0  0  0  0  0  0  0  0
    3.7430    3.6460  -23.5470 C   0  0  0  0  0  0  0  0  0  0  0  0
    1.7660    2.3600  -24.4870 C   0  0  0  0  0  0  0  0  0  0  0  0
   -0.3470    3.2090  -24.3640 C   0  0  0  0  0  0  0  0  0  0  0  0
    0.2060    4.4270  -23.7840 C   0  0  0  0  0  0  0  0  0  0  0  0
   -1.8030    3.2350  -24.7040 C   0  0  0  0  0  0  0  0  0  0  0  0
    4.3110    1.1420  -23.2340 C   0  0  0  0  0  0  0  0  0  0  0  0
    5.2510    0.7830  -22.0930 C   0  0  2  0  0  0  0  0  0  0  0  0
    6.8630    2.2920  -22.6620 C   0  0  2  0  0  0  0  0  0  0  0  0
    5.2610    1.7980  -20.9370 C   0  0  0  0  0  0  0  0  0  0  0  0
   -2.1410    3.3840  -26.1300 C   0  0  0  0  0  0  0  0  0  0  0  0
   -1.3650    2.6600  -21.7570 C   0  0  0  0  0  0  0  0  0  0  0  0
   -0.3340    2.3010  -21.2580 C   0  0  0  0  0  0  0  0  0  0  0  0
   -0.6160    5.4890  -23.4420 F   0  0  0  0  0  0  0  0  0  0  0  0
   -3.5300    3.0010  -20.2100 F   0  0  0  0  0  0  0  0  0  0  0  0
    2.0380    5.7560  -23.0350 N   0  0  0  0  0  0  0  0  0  0  0  0
    4.2400    4.7940  -23.1190 N   0  0  0  0  0  0  0  0  0  0  0  0
    0.4550    2.2880  -24.7780 N   0  0  0  0  0  0  0  0  0  0  0  0
    4.6420    2.5810  -23.7220 N   0  0  0  0  0  0  0  0  0  0  0  0
    6.6530    0.8220  -22.5900 N   0  0  0  0  0  0  0  0  0  0  0  0
   -3.6820    3.5870  -27.8720 O   0  0  0  0  0  0  0  0  0  0  0  0
    3.2740    8.1010  -22.5700 O   0  0  0  0  0  0  0  0  0  0  0  0
    5.8860    8.3720  -21.6180 N   0  0  0  0  0  0  0  0  0  0  0  0
    5.1320    9.5090  -21.8230 N   0  0  0  0  0  0  0  0  0  0  0  0
    3.9410    7.0950  -22.4570 C   0  0  0  0  0  0  0  0  0  0  0  0
    7.6560    9.7090  -20.8450 C   0  0  0  0  0  0  0  0  0  0  0  0
    5.6170   10.7160  -21.5500 C   0  0  0  0  0  0  0  0  0  0  0  0
    5.3530    7.0560  -21.9220 C   0  0  0  0  0  0  0  0  0  0  0  0
    7.1390    8.4750  -21.1320 C   0  0  0  0  0  0  0  0  0  0  0  0
    6.9000   10.8400  -21.0510 C   0  0  0  0  0  0  0  0  0  0  0  0
  1  2  2  0
  1  3  1  0
  2  6  1  0
  3  5  2  0
  3 27  1  0
  4  5  1  0
  4  6  2  0
  4 18  1  0
  5 24  1  0
  6 10  1  0
  7 10  2  0
  7 23  1  0
  7 33  1  0
 21  8  1  1
  8 22  1  0
  9 21  1  0
  9 31  1  0
 11 12  1  0
 11 14  1  0
 11 15  2  0
 12 17  2  0
 12 28  1  0
 13 28  2  0
 13 29  1  0
 13 37  1  0
 14 29  2  0
 14 31  1  0
 15 30  1  0
 16 17  1  0
 16 18  1  0
 16 30  2  0
 17 26  1  0
 18 23  2  0
 20 19  1  6
 19 31  1  0
 20 22  1  0
 20 32  1  0
 21 32  1  0
 24 25  3  0
 34 37  2  0
 35 36  1  0
 35 40  1  0
 35 41  1  0
 36 39  2  0
 37 40  1  0
 38 41  2  0
 38 42  1  0
 39 42  1  0
M  END
>  <s_m_entry_id>  (178) 
727

>  <s_m_entry_name>  (178) 
000000569.1

>  <s_m_Source_Path>  (178) 
/Users/zaksoul/Documents/3r_UNI/2nd_SEMESTER/BSC/FRAG_RECON/RESULTS/2

>  <s_m_Source_File>  (178) 
000000569.mol2

>  <i_m_Source_File_Index>  (178) 
1

$$$$
No_0_591,No_0_592,No_0_593,No_0_594
     RDKit          3D

 40 46  0  0  1  0  0  0  0  0999 V2000
   -4.8670    3.4800  -21.7690 C   0  0  0  0  0  0  0  0  0  0  0  0
   -5.1500    3.7080  -23.0950 C   0  0  0  0  0  0  0  0  0  0  0  0
   -3.6310    3.1890  -21.4540 C   0  0  0  0  0  0  0  0  0  0  0  0
   -2.7700    3.3470  -23.6300 C   0  0  0  0  0  0  0  0  0  0  0  0
   -2.5930    3.0640  -22.2190 C   0  0  0  0  0  0  0  0  0  0  0  0
   -4.1190    3.6540  -24.1230 C   0  0  0  0  0  0  0  0  0  0  0  0
   -3.3980    3.7120  -26.3320 C   0  0  0  0  0  0  0  0  0  0  0  0
    6.3910    2.6170  -21.2430 C   0  0  0  0  0  0  0  0  0  0  0  0
    6.2170    2.8240  -23.7850 C   0  0  0  0  0  0  0  0  0  0  0  0
   -4.3880    3.8200  -25.4510 C   0  0  0  0  0  0  0  0  0  0  0  0
    2.4470    3.4630  -23.7290 C   0  0  0  0  0  0  0  0  0  0  0  0
    1.6580    4.5830  -23.3900 C   0  0  0  0  0  0  0  0  0  0  0  0
    3.4950    5.7190  -22.7110 C   0  0  0  0  0  0  0  0  0  0  0  0
    3.8560    3.6130  -23.4340 C   0  0  0  0  0  0  0  0  0  0  0  0
    1.8630    2.3760  -24.4080 C   0  0  0  0  0  0  0  0  0  0  0  0
   -0.2420    3.2370  -24.2430 C   0  0  0  0  0  0  0  0  0  0  0  0
    0.3240    4.4290  -23.6240 C   0  0  0  0  0  0  0  0  0  0  0  0
   -1.7000    3.2860  -24.5740 C   0  0  0  0  0  0  0  0  0  0  0  0
    4.4050    1.0950  -23.2110 C   0  0  0  0  0  0  0  0  0  0  0  0
    5.3470    0.6890  -22.0890 C   0  0  2  0  0  0  0  0  0  0  0  0
    6.9690    2.2040  -22.6140 C   0  0  2  0  0  0  0  0  0  0  0  0
    5.3720    1.6620  -20.8980 C   0  0  0  0  0  0  0  0  0  0  0  0
   -2.0430    3.4880  -25.9920 C   0  0  0  0  0  0  0  0  0  0  0  0
   -1.2500    2.6050  -21.6520 C   0  0  0  0  0  0  0  0  0  0  0  0
   -0.2210    2.2200  -21.1710 C   0  0  0  0  0  0  0  0  0  0  0  0
   -0.4870    5.4850  -23.2410 F   0  0  0  0  0  0  0  0  0  0  0  0
   -3.4050    2.9080  -20.0820 F   0  0  0  0  0  0  0  0  0  0  0  0
    2.1710    5.7170  -22.8380 N   0  0  0  0  0  0  0  0  0  0  0  0
    4.3640    4.7410  -22.9680 N   0  0  0  0  0  0  0  0  0  0  0  0
    0.5500    2.3250  -24.6940 N   0  0  0  0  0  0  0  0  0  0  0  0
    4.7450    2.5480  -23.6510 N   0  0  0  0  0  0  0  0  0  0  0  0
    6.7480    0.7340  -22.5920 N   0  0  0  0  0  0  0  0  0  0  0  0
   -3.5920    3.7640  -27.7180 O   0  0  0  0  0  0  0  0  0  0  0  0
    3.3940    7.7100  -21.4870 O   0  0  0  0  0  0  0  0  0  0  0  0
    5.5090    9.9500  -20.8190 N   0  0  0  0  0  0  0  0  0  0  0  0
    5.3330    7.3200  -22.6470 N   0  0  0  0  0  0  0  0  0  0  0  0
    5.2690    9.9040  -22.2950 C   0  0  0  0  0  0  0  0  0  0  0  0
    6.2630    8.6640  -20.7150 C   0  0  0  0  0  0  0  0  0  0  0  0
    6.0250    8.5550  -22.2380 C   0  0  0  0  0  0  0  0  0  0  0  0
    4.0880    7.0200  -22.2240 C   0  0  0  0  0  0  0  0  0  0  0  0
  1  2  2  0
  1  3  1  0
  2  6  1  0
  3  5  2  0
  3 27  1  0
  4  5  1  0
  4  6  2  0
  4 18  1  0
  5 24  1  0
  6 10  1  0
  7 10  2  0
  7 23  1  0
  7 33  1  0
 21  8  1  1
  8 22  1  0
  9 21  1  0
  9 31  1  0
 11 12  1  0
 11 14  1  0
 11 15  2  0
 12 17  2  0
 12 28  1  0
 13 28  2  0
 13 29  1  0
 13 40  1  0
 14 29  2  0
 14 31  1  0
 15 30  1  0
 16 17  1  0
 16 18  1  0
 16 30  2  0
 17 26  1  0
 18 23  2  0
 20 19  1  6
 19 31  1  0
 20 22  1  0
 20 32  1  0
 21 32  1  0
 24 25  3  0
 34 40  2  0
 35 37  1  0
 35 38  1  0
 36 39  1  0
 36 40  1  0
 37 39  1  0
 38 39  1  0
M  CHG  1  35   1
M  END
>  <s_m_entry_id>  (179) 
728

>  <s_m_entry_name>  (179) 
000000570.1

>  <s_m_Source_Path>  (179) 
/Users/zaksoul/Documents/3r_UNI/2nd_SEMESTER/BSC/FRAG_RECON/RESULTS/2

>  <s_m_Source_File>  (179) 
000000570.mol2

>  <i_m_Source_File_Index>  (179) 
1

$$$$
No_0_595,No_0_596,No_0_597
     RDKit          3D

 42 48  0  0  1  0  0  0  0  0999 V2000
   -5.2650    3.7470  -21.9040 C   0  0  0  0  0  0  0  0  0  0  0  0
   -5.5450    3.8920  -23.2420 C   0  0  0  0  0  0  0  0  0  0  0  0
   -4.0300    3.4730  -21.5690 C   0  0  0  0  0  0  0  0  0  0  0  0
   -3.1650    3.4940  -23.7490 C   0  0  0  0  0  0  0  0  0  0  0  0
   -2.9920    3.2990  -22.3230 C   0  0  0  0  0  0  0  0  0  0  0  0
   -4.5120    3.7730  -24.2630 C   0  0  0  0  0  0  0  0  0  0  0  0
   -3.7870    3.6920  -26.4690 C   0  0  0  0  0  0  0  0  0  0  0  0
    5.9900    2.8910  -21.3050 C   0  0  0  0  0  0  0  0  0  0  0  0
    5.8210    2.9420  -23.8560 C   0  0  0  0  0  0  0  0  0  0  0  0
   -4.7780    3.8570  -25.5990 C   0  0  0  0  0  0  0  0  0  0  0  0
    2.0520    3.5910  -23.8450 C   0  0  0  0  0  0  0  0  0  0  0  0
    1.2650    4.7320  -23.5780 C   0  0  0  0  0  0  0  0  0  0  0  0
    3.1040    5.9030  -22.9670 C   0  0  0  0  0  0  0  0  0  0  0  0
    3.4610    3.7560  -23.5570 C   0  0  0  0  0  0  0  0  0  0  0  0
    1.4670    2.4660  -24.4570 C   0  0  0  0  0  0  0  0  0  0  0  0
   -0.6360    3.3400  -24.3500 C   0  0  0  0  0  0  0  0  0  0  0  0
   -0.0690    4.5670  -23.8040 C   0  0  0  0  0  0  0  0  0  0  0  0
   -2.0930    3.3720  -24.6860 C   0  0  0  0  0  0  0  0  0  0  0  0
    4.0040    1.2550  -23.1790 C   0  0  0  0  0  0  0  0  0  0  0  0
    4.9430    0.9170  -22.0320 C   0  0  2  0  0  0  0  0  0  0  0  0
    6.5690    2.3930  -22.6470 C   0  0  2  0  0  0  0  0  0  0  0  0
    4.9680    1.9620  -20.9030 C   0  0  0  0  0  0  0  0  0  0  0  0
   -2.4340    3.4870  -26.1140 C   0  0  0  0  0  0  0  0  0  0  0  0
   -1.6510    2.8720  -21.7260 C   0  0  0  0  0  0  0  0  0  0  0  0
   -0.6230    2.5150  -21.2210 C   0  0  0  0  0  0  0  0  0  0  0  0
   -0.8780    5.6470  -23.4890 F   0  0  0  0  0  0  0  0  0  0  0  0
   -3.8070    3.2770  -20.1820 F   0  0  0  0  0  0  0  0  0  0  0  0
    1.7800    5.8970  -23.0970 N   0  0  0  0  0  0  0  0  0  0  0  0
    3.9710    4.9090  -23.1620 N   0  0  0  0  0  0  0  0  0  0  0  0
    0.1550    2.4000  -24.7420 N   0  0  0  0  0  0  0  0  0  0  0  0
    4.3480    2.6770  -23.7070 N   0  0  0  0  0  0  0  0  0  0  0  0
    6.3450    0.9280  -22.5340 N   0  0  0  0  0  0  0  0  0  0  0  0
   -3.9790    3.6590  -27.8560 O   0  0  0  0  0  0  0  0  0  0  0  0
    7.3260    8.9550  -22.1990 O   0  0  0  0  0  0  0  0  0  0  0  0
    3.1760    8.2440  -23.0090 O   0  0  0  0  0  0  0  0  0  0  0  0
    3.5080    9.6200  -20.5410 N   0  0  0  0  0  0  0  0  0  0  0  0
    4.7780    7.1870  -21.7550 N   0  0  0  0  0  0  0  0  0  0  0  0
    7.0150    8.0970  -21.1030 C   0  0  0  0  0  0  0  0  0  0  0  0
    5.9900    9.3160  -22.5440 C   0  0  0  0  0  0  0  0  0  0  0  0
    4.9070    9.1890  -20.2140 C   0  0  0  0  0  0  0  0  0  0  0  0
    5.5200    8.4020  -21.3850 C   0  0  0  0  0  0  0  0  0  0  0  0
    3.6990    7.2300  -22.5610 C   0  0  0  0  0  0  0  0  0  0  0  0
  1  2  2  0
  1  3  1  0
  2  6  1  0
  3  5  2  0
  3 27  1  0
  4  5  1  0
  4  6  2  0
  4 18  1  0
  5 24  1  0
  6 10  1  0
  7 10  2  0
  7 23  1  0
  7 33  1  0
 21  8  1  1
  8 22  1  0
  9 21  1  0
  9 31  1  0
 11 12  1  0
 11 14  1  0
 11 15  2  0
 12 17  2  0
 12 28  1  0
 13 28  2  0
 13 29  1  0
 13 42  1  0
 14 29  2  0
 14 31  1  0
 15 30  1  0
 16 17  1  0
 16 18  1  0
 16 30  2  0
 17 26  1  0
 18 23  2  0
 20 19  1  6
 19 31  1  0
 20 22  1  0
 20 32  1  0
 21 32  1  0
 24 25  3  0
 34 38  1  0
 34 39  1  0
 35 42  2  0
 36 40  1  0
 37 41  1  0
 37 42  1  0
 38 41  1  0
 39 41  1  0
 40 41  1  0
M  CHG  1  36   1
M  END
>  <s_m_entry_id>  (180) 
732

>  <s_m_entry_name>  (180) 
000000574.1

>  <s_m_Source_Path>  (180) 
/Users/zaksoul/Documents/3r_UNI/2nd_SEMESTER/BSC/FRAG_RECON/RESULTS/2

>  <s_m_Source_File>  (180) 
000000574.mol2

>  <i_m_Source_File_Index>  (180) 
1

$$$$
No_0_598,No_0_599
     RDKit          3D

 41 47  0  0  1  0  0  0  0  0999 V2000
   -4.8710    3.5430  -21.5290 C   0  0  0  0  0  0  0  0  0  0  0  0
   -5.1820    3.7760  -22.8480 C   0  0  0  0  0  0  0  0  0  0  0  0
   -3.6250    3.2620  -21.2410 C   0  0  0  0  0  0  0  0  0  0  0  0
   -2.8110    3.4400  -23.4330 C   0  0  0  0  0  0  0  0  0  0  0  0
   -2.6030    3.1510  -22.0270 C   0  0  0  0  0  0  0  0  0  0  0  0
   -4.1720    3.7380  -23.8970 C   0  0  0  0  0  0  0  0  0  0  0  0
   -3.4960    3.8160  -26.1190 C   0  0  0  0  0  0  0  0  0  0  0  0
    6.4030    2.7780  -21.2360 C   0  0  0  0  0  0  0  0  0  0  0  0
    6.1760    3.0000  -23.7730 C   0  0  0  0  0  0  0  0  0  0  0  0
   -4.4690    3.9100  -25.2180 C   0  0  0  0  0  0  0  0  0  0  0  0
    2.4020    3.6040  -23.6370 C   0  0  0  0  0  0  0  0  0  0  0  0
    1.6100    4.7150  -23.2750 C   0  0  0  0  0  0  0  0  0  0  0  0
    3.4500    5.8630  -22.6260 C   0  0  0  0  0  0  0  0  0  0  0  0
    3.8150    3.7640  -23.3690 C   0  0  0  0  0  0  0  0  0  0  0  0
    1.8140    2.5160  -24.3100 C   0  0  0  0  0  0  0  0  0  0  0  0
   -0.2940    3.3570  -24.0980 C   0  0  0  0  0  0  0  0  0  0  0  0
    0.2730    4.5500  -23.4830 C   0  0  0  0  0  0  0  0  0  0  0  0
   -1.7590    3.3950  -24.3990 C   0  0  0  0  0  0  0  0  0  0  0  0
    4.3910    1.2500  -23.1740 C   0  0  0  0  0  0  0  0  0  0  0  0
    5.3600    0.8460  -22.0730 C   0  0  2  0  0  0  0  0  0  0  0  0
    6.9570    2.3780  -22.6210 C   0  0  2  0  0  0  0  0  0  0  0  0
    5.4000    1.8120  -20.8770 C   0  0  0  0  0  0  0  0  0  0  0  0
   -2.1330    3.6020  -25.8090 C   0  0  0  0  0  0  0  0  0  0  0  0
   -1.2450    2.6990  -21.4910 C   0  0  0  0  0  0  0  0  0  0  0  0
   -0.2020    2.3210  -21.0330 C   0  0  0  0  0  0  0  0  0  0  0  0
   -0.5390    5.5970  -23.0770 F   0  0  0  0  0  0  0  0  0  0  0  0
   -3.3690    2.9740  -19.8760 F   0  0  0  0  0  0  0  0  0  0  0  0
    2.1240    5.8500  -22.7270 N   0  0  0  0  0  0  0  0  0  0  0  0
    4.3230    4.8940  -22.9070 N   0  0  0  0  0  0  0  0  0  0  0  0
    0.4970    2.4550  -24.5700 N   0  0  0  0  0  0  0  0  0  0  0  0
    4.7100    2.7090  -23.6110 N   0  0  0  0  0  0  0  0  0  0  0  0
    6.7490    0.9070  -22.6040 N   0  0  0  0  0  0  0  0  0  0  0  0
   -3.7180    3.8750  -27.5010 O   0  0  0  0  0  0  0  0  0  0  0  0
    3.2830    7.9790  -21.6280 O   0  0  0  0  0  0  0  0  0  0  0  0
    7.5870    8.4720  -20.4860 N   0  0  0  0  0  0  0  0  0  0  0  0
    5.3650    7.3320  -22.3310 N   0  0  0  0  0  0  0  0  0  0  0  0
    6.1110    8.6630  -20.3430 C   0  0  0  0  0  0  0  0  0  0  0  0
    7.6100    8.3960  -21.9790 C   0  0  0  0  0  0  0  0  0  0  0  0
    5.6110    9.8550  -22.5570 C   0  0  0  0  0  0  0  0  0  0  0  0
    6.0680    8.5460  -21.8860 C   0  0  0  0  0  0  0  0  0  0  0  0
    4.0410    7.1660  -22.1430 C   0  0  0  0  0  0  0  0  0  0  0  0
  1  2  2  0
  1  3  1  0
  2  6  1  0
  3  5  2  0
  3 27  1  0
  4  5  1  0
  4  6  2  0
  4 18  1  0
  5 24  1  0
  6 10  1  0
  7 10  2  0
  7 23  1  0
  7 33  1  0
 21  8  1  1
  8 22  1  0
  9 21  1  0
  9 31  1  0
 11 12  1  0
 11 14  1  0
 11 15  2  0
 12 17  2  0
 12 28  1  0
 13 28  2  0
 13 29  1  0
 13 41  1  0
 14 29  2  0
 14 31  1  0
 15 30  1  0
 16 17  1  0
 16 18  1  0
 16 30  2  0
 17 26  1  0
 18 23  2  0
 20 19  1  6
 19 31  1  0
 20 22  1  0
 20 32  1  0
 21 32  1  0
 24 25  3  0
 34 41  2  0
 35 37  1  0
 35 38  1  0
 36 40  1  0
 36 41  1  0
 37 40  1  0
 38 40  1  0
 39 40  1  0
M  CHG  1  35   1
M  END
>  <s_m_entry_id>  (181) 
735

>  <s_m_entry_name>  (181) 
000000577.1

>  <s_m_Source_Path>  (181) 
/Users/zaksoul/Documents/3r_UNI/2nd_SEMESTER/BSC/FRAG_RECON/RESULTS/2

>  <s_m_Source_File>  (181) 
000000577.mol2

>  <i_m_Source_File_Index>  (181) 
1

$$$$
No_0_600
     RDKit          3D

 42 48  0  0  1  0  0  0  0  0999 V2000
   -4.8130    3.8930  -21.8470 C   0  0  0  0  0  0  0  0  0  0  0  0
   -5.0950    4.0790  -23.1790 C   0  0  0  0  0  0  0  0  0  0  0  0
   -3.5790    3.6010  -21.5240 C   0  0  0  0  0  0  0  0  0  0  0  0
   -2.7200    3.6760  -23.7050 C   0  0  0  0  0  0  0  0  0  0  0  0
   -2.5440    3.4390  -22.2850 C   0  0  0  0  0  0  0  0  0  0  0  0
   -4.0670    3.9810  -24.2060 C   0  0  0  0  0  0  0  0  0  0  0  0
   -3.3480    3.9570  -26.4170 C   0  0  0  0  0  0  0  0  0  0  0  0
    6.4370    2.9320  -21.3060 C   0  0  0  0  0  0  0  0  0  0  0  0
    6.2600    3.0560  -23.8540 C   0  0  0  0  0  0  0  0  0  0  0  0
   -4.3360    4.1050  -25.5380 C   0  0  0  0  0  0  0  0  0  0  0  0
    2.4970    3.7350  -23.8140 C   0  0  0  0  0  0  0  0  0  0  0  0
    1.7200    4.8740  -23.5120 C   0  0  0  0  0  0  0  0  0  0  0  0
    3.5700    6.0130  -22.8730 C   0  0  0  0  0  0  0  0  0  0  0  0
    3.9080    3.8800  -23.5250 C   0  0  0  0  0  0  0  0  0  0  0  0
    1.9010    2.6320  -24.4550 C   0  0  0  0  0  0  0  0  0  0  0  0
   -0.1940    3.5200  -24.3170 C   0  0  0  0  0  0  0  0  0  0  0  0
    0.3840    4.7260  -23.7390 C   0  0  0  0  0  0  0  0  0  0  0  0
   -1.6520    3.5730  -24.6480 C   0  0  0  0  0  0  0  0  0  0  0  0
    4.4320    1.3660  -23.2200 C   0  0  0  0  0  0  0  0  0  0  0  0
    5.3720    0.9880  -22.0860 C   0  0  2  0  0  0  0  0  0  0  0  0
    7.0080    2.4670  -22.6630 C   0  0  2  0  0  0  0  0  0  0  0  0
    5.4080    1.9990  -20.9280 C   0  0  0  0  0  0  0  0  0  0  0  0
   -1.9960    3.7310  -26.0720 C   0  0  0  0  0  0  0  0  0  0  0  0
   -1.2050    2.9850  -21.7050 C   0  0  0  0  0  0  0  0  0  0  0  0
   -0.1790    2.6060  -21.2130 C   0  0  0  0  0  0  0  0  0  0  0  0
   -0.4150    5.8030  -23.3900 F   0  0  0  0  0  0  0  0  0  0  0  0
   -3.3540    3.3630  -20.1430 F   0  0  0  0  0  0  0  0  0  0  0  0
    2.2460    6.0210  -22.9990 N   0  0  0  0  0  0  0  0  0  0  0  0
    4.4290    5.0180  -23.0990 N   0  0  0  0  0  0  0  0  0  0  0  0
    0.5880    2.5850  -24.7380 N   0  0  0  0  0  0  0  0  0  0  0  0
    4.7870    2.7990  -23.7080 N   0  0  0  0  0  0  0  0  0  0  0  0
    6.7720    1.0020  -22.5920 N   0  0  0  0  0  0  0  0  0  0  0  0
   -3.5440    3.9650  -27.8030 O   0  0  0  0  0  0  0  0  0  0  0  0
    3.4220    8.2790  -22.2840 O   0  0  0  0  0  0  0  0  0  0  0  0
    6.8620   10.8740  -22.3280 O   0  0  0  0  0  0  0  0  0  0  0  0
    7.2520    8.5600  -19.9960 N   0  0  0  0  0  0  0  0  0  0  0  0
    5.5110    7.3270  -22.2440 N   0  0  0  0  0  0  0  0  0  0  0  0
    7.6940    8.2370  -21.3870 C   0  0  0  0  0  0  0  0  0  0  0  0
    5.8290    8.8750  -20.3320 C   0  0  0  0  0  0  0  0  0  0  0  0
    6.1340    9.7190  -22.7740 C   0  0  0  0  0  0  0  0  0  0  0  0
    6.2240    8.5320  -21.7890 C   0  0  0  0  0  0  0  0  0  0  0  0
    4.1770    7.3230  -22.4310 C   0  0  0  0  0  0  0  0  0  0  0  0
  1  2  2  0
  1  3  1  0
  2  6  1  0
  3  5  2  0
  3 27  1  0
  4  5  1  0
  4  6  2  0
  4 18  1  0
  5 24  1  0
  6 10  1  0
  7 10  2  0
  7 23  1  0
  7 33  1  0
 21  8  1  1
  8 22  1  0
  9 21  1  0
  9 31  1  0
 11 12  1  0
 11 14  1  0
 11 15  2  0
 12 17  2  0
 12 28  1  0
 13 28  2  0
 13 29  1  0
 13 42  1  0
 14 29  2  0
 14 31  1  0
 15 30  1  0
 16 17  1  0
 16 18  1  0
 16 30  2  0
 17 26  1  0
 18 23  2  0
 20 19  1  6
 19 31  1  0
 20 22  1  0
 20 32  1  0
 21 32  1  0
 24 25  3  0
 34 42  2  0
 35 40  1  0
 36 38  1  0
 36 39  1  0
 37 41  1  0
 37 42  1  0
 38 41  1  0
 39 41  1  0
 40 41  1  0
M  CHG  1  36   1
M  END
>  <s_m_entry_id>  (182) 
737

>  <s_m_entry_name>  (182) 
000000579.1

>  <s_m_Source_Path>  (182) 
/Users/zaksoul/Documents/3r_UNI/2nd_SEMESTER/BSC/FRAG_RECON/RESULTS/2

>  <s_m_Source_File>  (182) 
000000579.mol2

>  <i_m_Source_File_Index>  (182) 
1

$$$$
No_0_601,No_0_602
     RDKit          3D

 41 47  0  0  1  0  0  0  0  0999 V2000
   -5.1810    3.6090  -21.8530 C   0  0  0  0  0  0  0  0  0  0  0  0
   -5.4520    3.8050  -23.1860 C   0  0  0  0  0  0  0  0  0  0  0  0
   -3.9420    3.3510  -21.5190 C   0  0  0  0  0  0  0  0  0  0  0  0
   -3.0590    3.4860  -23.6870 C   0  0  0  0  0  0  0  0  0  0  0  0
   -2.8930    3.2340  -22.2690 C   0  0  0  0  0  0  0  0  0  0  0  0
   -4.4090    3.7540  -24.2010 C   0  0  0  0  0  0  0  0  0  0  0  0
   -3.6630    3.7850  -26.4030 C   0  0  0  0  0  0  0  0  0  0  0  0
    6.0870    3.0010  -21.1820 C   0  0  0  0  0  0  0  0  0  0  0  0
    5.9380    3.1560  -23.7310 C   0  0  0  0  0  0  0  0  0  0  0  0
   -4.6650    3.8890  -25.5350 C   0  0  0  0  0  0  0  0  0  0  0  0
    2.1540    3.7130  -23.7290 C   0  0  0  0  0  0  0  0  0  0  0  0
    1.3370    4.8230  -23.4210 C   0  0  0  0  0  0  0  0  0  0  0  0
    3.1410    6.0110  -22.7430 C   0  0  0  0  0  0  0  0  0  0  0  0
    3.5570    3.8990  -23.4210 C   0  0  0  0  0  0  0  0  0  0  0  0
    1.6030    2.6010  -24.3930 C   0  0  0  0  0  0  0  0  0  0  0  0
   -0.5220    3.4190  -24.2700 C   0  0  0  0  0  0  0  0  0  0  0  0
    0.0100    4.6350  -23.6670 C   0  0  0  0  0  0  0  0  0  0  0  0
   -1.9770    3.4300  -24.6180 C   0  0  0  0  0  0  0  0  0  0  0  0
    4.1570    1.3990  -23.1440 C   0  0  0  0  0  0  0  0  0  0  0  0
    5.0950    1.0350  -22.0030 C   0  0  2  0  0  0  0  0  0  0  0  0
    6.6890    2.5740  -22.5390 C   0  0  2  0  0  0  0  0  0  0  0  0
    5.0840    2.0310  -20.8310 C   0  0  0  0  0  0  0  0  0  0  0  0
   -2.3080    3.5970  -26.0440 C   0  0  0  0  0  0  0  0  0  0  0  0
   -1.5470    2.8150  -21.6780 C   0  0  0  0  0  0  0  0  0  0  0  0
   -0.5150    2.4620  -21.1780 C   0  0  0  0  0  0  0  0  0  0  0  0
   -0.8280    5.6800  -23.3140 F   0  0  0  0  0  0  0  0  0  0  0  0
   -3.7260    3.1020  -20.1390 F   0  0  0  0  0  0  0  0  0  0  0  0
    1.8200    5.9780  -22.8860 N   0  0  0  0  0  0  0  0  0  0  0  0
    4.0350    5.0470  -22.9720 N   0  0  0  0  0  0  0  0  0  0  0  0
    0.2950    2.5160  -24.6930 N   0  0  0  0  0  0  0  0  0  0  0  0
    4.4710    2.8500  -23.6070 N   0  0  0  0  0  0  0  0  0  0  0  0
    6.5000    1.1010  -22.4910 N   0  0  0  0  0  0  0  0  0  0  0  0
   -3.8410    3.8060  -27.7920 O   0  0  0  0  0  0  0  0  0  0  0  0
    3.1980    8.3550  -22.7260 O   0  0  0  0  0  0  0  0  0  0  0  0
    8.4040    9.0460  -21.8390 N   0  0  0  0  0  0  0  0  0  0  0  0
    4.7230    7.2940  -21.4020 N   0  0  0  0  0  0  0  0  0  0  0  0
    7.4490    8.0480  -22.4120 C   0  0  0  0  0  0  0  0  0  0  0  0
    7.3800   10.0710  -21.4650 C   0  0  0  0  0  0  0  0  0  0  0  0
    5.3830    8.5300  -20.9540 C   0  0  0  0  0  0  0  0  0  0  0  0
    6.3470    9.0670  -22.0320 C   0  0  0  0  0  0  0  0  0  0  0  0
    3.7010    7.3330  -22.2760 C   0  0  0  0  0  0  0  0  0  0  0  0
  1  2  2  0
  1  3  1  0
  2  6  1  0
  3  5  2  0
  3 27  1  0
  4  5  1  0
  4  6  2  0
  4 18  1  0
  5 24  1  0
  6 10  1  0
  7 10  2  0
  7 23  1  0
  7 33  1  0
 21  8  1  1
  8 22  1  0
  9 21  1  0
  9 31  1  0
 11 12  1  0
 11 14  1  0
 11 15  2  0
 12 17  2  0
 12 28  1  0
 13 28  2  0
 13 29  1  0
 13 41  1  0
 14 29  2  0
 14 31  1  0
 15 30  1  0
 16 17  1  0
 16 18  1  0
 16 30  2  0
 17 26  1  0
 18 23  2  0
 20 19  1  6
 19 31  1  0
 20 22  1  0
 20 32  1  0
 21 32  1  0
 24 25  3  0
 34 41  2  0
 35 37  1  0
 35 38  1  0
 36 39  1  0
 36 41  1  0
 37 40  1  0
 38 40  1  0
 39 40  1  0
M  CHG  1  35   1
M  END
>  <s_m_entry_id>  (183) 
738

>  <s_m_entry_name>  (183) 
000000580.1

>  <s_m_Source_Path>  (183) 
/Users/zaksoul/Documents/3r_UNI/2nd_SEMESTER/BSC/FRAG_RECON/RESULTS/2

>  <s_m_Source_File>  (183) 
000000580.mol2

>  <i_m_Source_File_Index>  (183) 
1

$$$$
No_0_603
     RDKit          3D

 42 48  0  0  1  0  0  0  0  0999 V2000
   -5.0260    3.7720  -21.8870 C   0  0  0  0  0  0  0  0  0  0  0  0
   -5.2970    3.9340  -23.2250 C   0  0  0  0  0  0  0  0  0  0  0  0
   -3.7900    3.5080  -21.5460 C   0  0  0  0  0  0  0  0  0  0  0  0
   -2.9090    3.5720  -23.7190 C   0  0  0  0  0  0  0  0  0  0  0  0
   -2.7440    3.3580  -22.2940 C   0  0  0  0  0  0  0  0  0  0  0  0
   -4.2550    3.8430  -24.2390 C   0  0  0  0  0  0  0  0  0  0  0  0
   -3.5120    3.8030  -26.4410 C   0  0  0  0  0  0  0  0  0  0  0  0
    6.2340    3.0470  -21.2090 C   0  0  0  0  0  0  0  0  0  0  0  0
    6.0840    3.1340  -23.7600 C   0  0  0  0  0  0  0  0  0  0  0  0
   -4.5120    3.9430  -25.5760 C   0  0  0  0  0  0  0  0  0  0  0  0
    2.3070    3.7360  -23.7710 C   0  0  0  0  0  0  0  0  0  0  0  0
    1.5040    4.8630  -23.4930 C   0  0  0  0  0  0  0  0  0  0  0  0
    3.3230    6.0470  -22.8500 C   0  0  0  0  0  0  0  0  0  0  0  0
    3.7120    3.9130  -23.4690 C   0  0  0  0  0  0  0  0  0  0  0  0
    1.7410    2.6120  -24.4040 C   0  0  0  0  0  0  0  0  0  0  0  0
   -0.3730    3.4590  -24.3010 C   0  0  0  0  0  0  0  0  0  0  0  0
    0.1740    4.6850  -23.7330 C   0  0  0  0  0  0  0  0  0  0  0  0
   -1.8280    3.4780  -24.6480 C   0  0  0  0  0  0  0  0  0  0  0  0
    4.2830    1.4140  -23.1240 C   0  0  0  0  0  0  0  0  0  0  0  0
    5.2180    1.0710  -21.9740 C   0  0  2  0  0  0  0  0  0  0  0  0
    6.8300    2.5760  -22.5540 C   0  0  2  0  0  0  0  0  0  0  0  0
    5.2200    2.0990  -20.8300 C   0  0  0  0  0  0  0  0  0  0  0  0
   -2.1590    3.6100  -26.0780 C   0  0  0  0  0  0  0  0  0  0  0  0
   -1.4030    2.9390  -21.6930 C   0  0  0  0  0  0  0  0  0  0  0  0
   -0.3740    2.5880  -21.1840 C   0  0  0  0  0  0  0  0  0  0  0  0
   -0.6500    5.7490  -23.4080 F   0  0  0  0  0  0  0  0  0  0  0  0
   -3.5760    3.2940  -20.1600 F   0  0  0  0  0  0  0  0  0  0  0  0
    2.0010    6.0270  -22.9910 N   0  0  0  0  0  0  0  0  0  0  0  0
    4.2040    5.0670  -23.0530 N   0  0  0  0  0  0  0  0  0  0  0  0
    0.4320    2.5350  -24.7000 N   0  0  0  0  0  0  0  0  0  0  0  0
    4.6140    2.8480  -23.6270 N   0  0  0  0  0  0  0  0  0  0  0  0
    6.6220    1.1070  -22.4650 N   0  0  0  0  0  0  0  0  0  0  0  0
   -3.6920    3.7890  -27.8300 O   0  0  0  0  0  0  0  0  0  0  0  0
    3.2430    8.3810  -22.6660 O   0  0  0  0  0  0  0  0  0  0  0  0
    6.2220    9.9250  -23.4240 N   0  0  0  0  0  0  0  0  0  0  0  0
    7.9480    9.0230  -22.4460 N   0  0  0  0  0  0  0  0  0  0  0  0
    5.0930    7.3630  -21.7990 N   0  0  0  0  0  0  0  0  0  0  0  0
    6.6330    9.1800  -22.4110 C   0  0  0  0  0  0  0  0  0  0  0  0
    8.5550    9.7110  -23.5740 C   0  0  0  0  0  0  0  0  0  0  0  0
    7.3210   10.3580  -24.2730 C   0  0  0  0  0  0  0  0  0  0  0  0
    5.7250    8.6120  -21.3510 C   0  0  0  0  0  0  0  0  0  0  0  0
    3.8990    7.3750  -22.4190 C   0  0  0  0  0  0  0  0  0  0  0  0
  1  2  2  0
  1  3  1  0
  2  6  1  0
  3  5  2  0
  3 27  1  0
  4  5  1  0
  4  6  2  0
  4 18  1  0
  5 24  1  0
  6 10  1  0
  7 10  2  0
  7 23  1  0
  7 33  1  0
 21  8  1  1
  8 22  1  0
  9 21  1  0
  9 31  1  0
 11 12  1  0
 11 14  1  0
 11 15  2  0
 12 17  2  0
 12 28  1  0
 13 28  2  0
 13 29  1  0
 13 42  1  0
 14 29  2  0
 14 31  1  0
 15 30  1  0
 16 17  1  0
 16 18  1  0
 16 30  2  0
 17 26  1  0
 18 23  2  0
 20 19  1  6
 19 31  1  0
 20 22  1  0
 20 32  1  0
 21 32  1  0
 24 25  3  0
 34 42  2  0
 35 38  1  0
 35 40  1  0
 36 38  2  0
 36 39  1  0
 37 41  1  0
 37 42  1  0
 38 41  1  0
 39 40  1  0
M  CHG  1  36   1
M  END
>  <s_m_entry_id>  (184) 
740

>  <s_m_entry_name>  (184) 
000000582.1

>  <s_m_Source_Path>  (184) 
/Users/zaksoul/Documents/3r_UNI/2nd_SEMESTER/BSC/FRAG_RECON/RESULTS/2

>  <s_m_Source_File>  (184) 
000000582.mol2

>  <i_m_Source_File_Index>  (184) 
1

$$$$
No_0_604,No_0_605,No_0_606
     RDKit          3D

 43 49  0  0  1  0  0  0  0  0999 V2000
   -4.7650    3.6140  -21.7330 C   0  0  0  0  0  0  0  0  0  0  0  0
   -5.0780    3.8120  -23.0570 C   0  0  0  0  0  0  0  0  0  0  0  0
   -3.5210    3.3320  -21.4400 C   0  0  0  0  0  0  0  0  0  0  0  0
   -2.7100    3.4440  -23.6380 C   0  0  0  0  0  0  0  0  0  0  0  0
   -2.5010    3.1920  -22.2250 C   0  0  0  0  0  0  0  0  0  0  0  0
   -4.0700    3.7390  -24.1070 C   0  0  0  0  0  0  0  0  0  0  0  0
   -3.4000    3.7490  -26.3320 C   0  0  0  0  0  0  0  0  0  0  0  0
    6.5040    2.7800  -21.4440 C   0  0  0  0  0  0  0  0  0  0  0  0
    6.2720    2.9320  -23.9860 C   0  0  0  0  0  0  0  0  0  0  0  0
   -4.3700    3.8750  -25.4320 C   0  0  0  0  0  0  0  0  0  0  0  0
    2.5030    3.5660  -23.8580 C   0  0  0  0  0  0  0  0  0  0  0  0
    1.7190    4.6920  -23.5250 C   0  0  0  0  0  0  0  0  0  0  0  0
    3.5690    5.8450  -22.9130 C   0  0  0  0  0  0  0  0  0  0  0  0
    3.9180    3.7240  -23.5980 C   0  0  0  0  0  0  0  0  0  0  0  0
    1.9060    2.4630  -24.5000 C   0  0  0  0  0  0  0  0  0  0  0  0
   -0.1960    3.3250  -24.3060 C   0  0  0  0  0  0  0  0  0  0  0  0
    0.3810    4.5310  -23.7260 C   0  0  0  0  0  0  0  0  0  0  0  0
   -1.6610    3.3650  -24.6050 C   0  0  0  0  0  0  0  0  0  0  0  0
    4.4770    1.2120  -23.3340 C   0  0  0  0  0  0  0  0  0  0  0  0
    5.4460    0.8320  -22.2250 C   0  0  2  0  0  0  0  0  0  0  0  0
    7.0520    2.3380  -22.8190 C   0  0  2  0  0  0  0  0  0  0  0  0
    5.4950    1.8310  -21.0560 C   0  0  0  0  0  0  0  0  0  0  0  0
   -2.0370    3.5350  -26.0190 C   0  0  0  0  0  0  0  0  0  0  0  0
   -1.1450    2.7470  -21.6800 C   0  0  0  0  0  0  0  0  0  0  0  0
   -0.1040    2.3740  -21.2140 C   0  0  0  0  0  0  0  0  0  0  0  0
   -0.4230    5.5940  -23.3470 F   0  0  0  0  0  0  0  0  0  0  0  0
   -3.2630    3.0810  -20.0680 F   0  0  0  0  0  0  0  0  0  0  0  0
    2.2420    5.8380  -23.0100 N   0  0  0  0  0  0  0  0  0  0  0  0
    4.4340    4.8630  -23.1690 N   0  0  0  0  0  0  0  0  0  0  0  0
    0.5870    2.4040  -24.7550 N   0  0  0  0  0  0  0  0  0  0  0  0
    4.8040    2.6560  -23.8120 N   0  0  0  0  0  0  0  0  0  0  0  0
    6.8340    0.8690  -22.7610 N   0  0  0  0  0  0  0  0  0  0  0  0
   -3.6250    3.7720  -27.7140 O   0  0  0  0  0  0  0  0  0  0  0  0
    3.3980    8.0800  -22.2410 O   0  0  0  0  0  0  0  0  0  0  0  0
    6.6360   10.8860  -24.7060 N   0  0  0  0  0  0  0  0  0  0  0  0
    4.6020   10.7740  -23.5110 N   0  0  0  0  0  0  0  0  0  0  0  0
    7.8570   10.2000  -24.7130 N   0  0  0  0  0  0  0  0  0  0  0  0
    5.5100    7.2210  -22.3600 N   0  0  0  0  0  0  0  0  0  0  0  0
    6.1740    8.4680  -21.9580 C   0  0  0  0  0  0  0  0  0  0  0  0
    5.8550   10.3630  -23.7890 C   0  0  0  0  0  0  0  0  0  0  0  0
    7.8130    9.2650  -23.7840 C   0  0  0  0  0  0  0  0  0  0  0  0
    6.5730    9.2800  -23.1640 C   0  0  0  0  0  0  0  0  0  0  0  0
    4.1700    7.1570  -22.4680 C   0  0  0  0  0  0  0  0  0  0  0  0
  1  2  2  0
  1  3  1  0
  2  6  1  0
  3  5  2  0
  3 27  1  0
  4  5  1  0
  4  6  2  0
  4 18  1  0
  5 24  1  0
  6 10  1  0
  7 10  2  0
  7 23  1  0
  7 33  1  0
 21  8  1  1
  8 22  1  0
  9 21  1  0
  9 31  1  0
 11 12  1  0
 11 14  1  0
 11 15  2  0
 12 17  2  0
 12 28  1  0
 13 28  2  0
 13 29  1  0
 13 43  1  0
 14 29  2  0
 14 31  1  0
 15 30  1  0
 16 17  1  0
 16 18  1  0
 16 30  2  0
 17 26  1  0
 18 23  2  0
 20 19  1  6
 19 31  1  0
 20 22  1  0
 20 32  1  0
 21 32  1  0
 24 25  3  0
 34 43  2  0
 35 37  1  0
 35 40  2  0
 36 40  1  0
 37 41  1  0
 38 39  1  0
 38 43  1  0
 39 42  1  0
 40 42  1  0
 41 42  2  0
M  END
>  <s_m_entry_id>  (185) 
741

>  <s_m_entry_name>  (185) 
000000583.1

>  <s_m_Source_Path>  (185) 
/Users/zaksoul/Documents/3r_UNI/2nd_SEMESTER/BSC/FRAG_RECON/RESULTS/2

>  <s_m_Source_File>  (185) 
000000583.mol2

>  <i_m_Source_File_Index>  (185) 
1

$$$$
No_0_607,No_0_608,No_0_609
     RDKit          3D

 40 45  0  0  1  0  0  0  0  0999 V2000
   -5.0140    3.7010  -21.6440 C   0  0  0  0  0  0  0  0  0  0  0  0
   -5.3150    3.9040  -22.9700 C   0  0  0  0  0  0  0  0  0  0  0  0
   -3.7680    3.4370  -21.3390 C   0  0  0  0  0  0  0  0  0  0  0  0
   -2.9350    3.5800  -23.5270 C   0  0  0  0  0  0  0  0  0  0  0  0
   -2.7370    3.3210  -22.1140 C   0  0  0  0  0  0  0  0  0  0  0  0
   -4.2950    3.8550  -24.0080 C   0  0  0  0  0  0  0  0  0  0  0  0
   -3.5990    3.8940  -26.2260 C   0  0  0  0  0  0  0  0  0  0  0  0
    6.2640    3.0550  -21.2340 C   0  0  0  0  0  0  0  0  0  0  0  0
    6.0580    3.2230  -23.7770 C   0  0  0  0  0  0  0  0  0  0  0  0
   -4.5810    3.9970  -25.3350 C   0  0  0  0  0  0  0  0  0  0  0  0
    2.2770    3.7920  -23.6860 C   0  0  0  0  0  0  0  0  0  0  0  0
    1.4710    4.9020  -23.3540 C   0  0  0  0  0  0  0  0  0  0  0  0
    3.2940    6.0810  -22.7120 C   0  0  0  0  0  0  0  0  0  0  0  0
    3.6870    3.9720  -23.4090 C   0  0  0  0  0  0  0  0  0  0  0  0
    1.7070    2.6850  -24.3430 C   0  0  0  0  0  0  0  0  0  0  0  0
   -0.4120    3.5080  -24.1670 C   0  0  0  0  0  0  0  0  0  0  0  0
    0.1380    4.7200  -23.5710 C   0  0  0  0  0  0  0  0  0  0  0  0
   -1.8740    3.5260  -24.4820 C   0  0  0  0  0  0  0  0  0  0  0  0
    4.2860    1.4680  -23.1580 C   0  0  0  0  0  0  0  0  0  0  0  0
    5.2480    1.0960  -22.0410 C   0  0  2  0  0  0  0  0  0  0  0  0
    6.8340    2.6330  -22.6060 C   0  0  2  0  0  0  0  0  0  0  0  0
    5.2670    2.0860  -20.8640 C   0  0  0  0  0  0  0  0  0  0  0  0
   -2.2370    3.7010  -25.8990 C   0  0  0  0  0  0  0  0  0  0  0  0
   -1.3800    2.8940  -21.5560 C   0  0  0  0  0  0  0  0  0  0  0  0
   -0.3380    2.5360  -21.0810 C   0  0  0  0  0  0  0  0  0  0  0  0
   -0.6890    5.7660  -23.1940 F   0  0  0  0  0  0  0  0  0  0  0  0
   -3.5220    3.1800  -19.9660 F   0  0  0  0  0  0  0  0  0  0  0  0
    1.9690    6.0530  -22.8250 N   0  0  0  0  0  0  0  0  0  0  0  0
    4.1780    5.1160  -22.9660 N   0  0  0  0  0  0  0  0  0  0  0  0
    0.3920    2.6050  -24.6140 N   0  0  0  0  0  0  0  0  0  0  0  0
    4.5940    2.9210  -23.6220 N   0  0  0  0  0  0  0  0  0  0  0  0
    6.6410    1.1600  -22.5610 N   0  0  0  0  0  0  0  0  0  0  0  0
   -3.8100    3.9240  -27.6100 O   0  0  0  0  0  0  0  0  0  0  0  0
    3.3120    8.4170  -22.6480 O   0  0  0  0  0  0  0  0  0  0  0  0
    7.4170    8.5350  -22.5010 N   0  0  0  0  0  0  0  0  0  0  0  0
    4.9380    7.3770  -21.4370 N   0  0  0  0  0  0  0  0  0  0  0  0
    6.2960    9.3910  -21.9840 C   0  0  0  0  0  0  0  0  0  0  0  0
    5.4940    8.6330  -20.9120 C   0  0  0  0  0  0  0  0  0  0  0  0
    8.2880    9.2130  -23.5180 C   0  0  0  0  0  0  0  0  0  0  0  0
    3.8680    7.4000  -22.2510 C   0  0  0  0  0  0  0  0  0  0  0  0
  1  2  2  0
  1  3  1  0
  2  6  1  0
  3  5  2  0
  3 27  1  0
  4  5  1  0
  4  6  2  0
  4 18  1  0
  5 24  1  0
  6 10  1  0
  7 10  2  0
  7 23  1  0
  7 33  1  0
 21  8  1  1
  8 22  1  0
  9 21  1  0
  9 31  1  0
 11 12  2  0
 11 14  1  0
 11 15  1  0
 12 17  1  0
 12 28  1  0
 13 28  2  0
 13 29  1  0
 13 40  1  0
 14 29  2  0
 14 31  1  0
 15 30  2  0
 16 17  2  0
 16 18  1  0
 16 30  1  0
 17 26  1  0
 18 23  2  0
 20 19  1  6
 19 31  1  0
 20 22  1  0
 20 32  1  0
 21 32  1  0
 24 25  3  0
 34 40  2  0
 35 37  1  0
 35 39  1  0
 36 38  1  0
 36 40  1  0
 37 38  1  0
M  CHG  1  35   1
M  END
>  <s_m_entry_id>  (186) 
744

>  <s_m_entry_name>  (186) 
000000586.1

>  <s_m_Source_Path>  (186) 
/Users/zaksoul/Documents/3r_UNI/2nd_SEMESTER/BSC/FRAG_RECON/RESULTS/2

>  <s_m_Source_File>  (186) 
000000586.mol2

>  <i_m_Source_File_Index>  (186) 
1

$$$$
No_0_610,No_0_611,No_0_612
     RDKit          3D

 41 46  0  0  1  0  0  0  0  0999 V2000
   -5.1810    3.6090  -21.8530 C   0  0  0  0  0  0  0  0  0  0  0  0
   -5.4520    3.8050  -23.1860 C   0  0  0  0  0  0  0  0  0  0  0  0
   -3.9420    3.3510  -21.5190 C   0  0  0  0  0  0  0  0  0  0  0  0
   -3.0590    3.4860  -23.6870 C   0  0  0  0  0  0  0  0  0  0  0  0
   -2.8930    3.2340  -22.2690 C   0  0  0  0  0  0  0  0  0  0  0  0
   -4.4090    3.7540  -24.2010 C   0  0  0  0  0  0  0  0  0  0  0  0
   -3.6630    3.7850  -26.4030 C   0  0  0  0  0  0  0  0  0  0  0  0
    6.0870    3.0010  -21.1820 C   0  0  0  0  0  0  0  0  0  0  0  0
    5.9380    3.1560  -23.7310 C   0  0  0  0  0  0  0  0  0  0  0  0
   -4.6650    3.8890  -25.5350 C   0  0  0  0  0  0  0  0  0  0  0  0
    2.1540    3.7130  -23.7290 C   0  0  0  0  0  0  0  0  0  0  0  0
    1.3370    4.8230  -23.4210 C   0  0  0  0  0  0  0  0  0  0  0  0
    3.1410    6.0110  -22.7430 C   0  0  0  0  0  0  0  0  0  0  0  0
    3.5570    3.8990  -23.4210 C   0  0  0  0  0  0  0  0  0  0  0  0
    1.6030    2.6010  -24.3930 C   0  0  0  0  0  0  0  0  0  0  0  0
   -0.5220    3.4190  -24.2700 C   0  0  0  0  0  0  0  0  0  0  0  0
    0.0100    4.6350  -23.6670 C   0  0  0  0  0  0  0  0  0  0  0  0
   -1.9770    3.4300  -24.6180 C   0  0  0  0  0  0  0  0  0  0  0  0
    4.1570    1.3990  -23.1440 C   0  0  0  0  0  0  0  0  0  0  0  0
    5.0950    1.0350  -22.0030 C   0  0  2  0  0  0  0  0  0  0  0  0
    6.6890    2.5740  -22.5390 C   0  0  2  0  0  0  0  0  0  0  0  0
    5.0840    2.0310  -20.8310 C   0  0  0  0  0  0  0  0  0  0  0  0
   -2.3080    3.5970  -26.0440 C   0  0  0  0  0  0  0  0  0  0  0  0
   -1.5470    2.8150  -21.6780 C   0  0  0  0  0  0  0  0  0  0  0  0
   -0.5150    2.4620  -21.1780 C   0  0  0  0  0  0  0  0  0  0  0  0
   -0.8280    5.6800  -23.3140 F   0  0  0  0  0  0  0  0  0  0  0  0
   -3.7260    3.1020  -20.1390 F   0  0  0  0  0  0  0  0  0  0  0  0
    1.8200    5.9780  -22.8860 N   0  0  0  0  0  0  0  0  0  0  0  0
    4.0350    5.0470  -22.9720 N   0  0  0  0  0  0  0  0  0  0  0  0
    0.2950    2.5160  -24.6930 N   0  0  0  0  0  0  0  0  0  0  0  0
    4.4710    2.8500  -23.6070 N   0  0  0  0  0  0  0  0  0  0  0  0
    6.5000    1.1010  -22.4910 N   0  0  0  0  0  0  0  0  0  0  0  0
   -3.8410    3.8060  -27.7920 O   0  0  0  0  0  0  0  0  0  0  0  0
    3.1430    8.3400  -22.6970 O   0  0  0  0  0  0  0  0  0  0  0  0
    7.3310    8.7350  -22.1610 N   0  0  0  0  0  0  0  0  0  0  0  0
    4.7380    7.3370  -21.4200 N   0  0  0  0  0  0  0  0  0  0  0  0
    6.0900    9.4480  -21.6930 C   0  0  0  0  0  0  0  0  0  0  0  0
    8.1810    8.1910  -21.0440 C   0  0  0  0  0  0  0  0  0  0  0  0
    8.1300    9.6040  -23.0910 C   0  0  0  0  0  0  0  0  0  0  0  0
    5.1690    8.5970  -20.7990 C   0  0  0  0  0  0  0  0  0  0  0  0
    3.7010    7.3330  -22.2760 C   0  0  0  0  0  0  0  0  0  0  0  0
  1  2  2  0
  1  3  1  0
  2  6  1  0
  3  5  2  0
  3 27  1  0
  4  5  1  0
  4  6  2  0
  4 18  1  0
  5 24  1  0
  6 10  1  0
  7 10  2  0
  7 23  1  0
  7 33  1  0
 21  8  1  1
  8 22  1  0
  9 21  1  0
  9 31  1  0
 11 12  2  0
 11 14  1  0
 11 15  1  0
 12 17  1  0
 12 28  1  0
 13 28  2  0
 13 29  1  0
 13 41  1  0
 14 29  2  0
 14 31  1  0
 15 30  2  0
 16 17  2  0
 16 18  1  0
 16 30  1  0
 17 26  1  0
 18 23  2  0
 20 19  1  6
 19 31  1  0
 20 22  1  0
 20 32  1  0
 21 32  1  0
 24 25  3  0
 34 41  2  0
 35 37  1  0
 35 38  1  0
 35 39  1  0
 36 40  1  0
 36 41  1  0
 37 40  1  0
M  CHG  1  35   1
M  END
>  <s_m_entry_id>  (187) 
747

>  <s_m_entry_name>  (187) 
000000589.1

>  <s_m_Source_Path>  (187) 
/Users/zaksoul/Documents/3r_UNI/2nd_SEMESTER/BSC/FRAG_RECON/RESULTS/2

>  <s_m_Source_File>  (187) 
000000589.mol2

>  <i_m_Source_File_Index>  (187) 
1

$$$$
No_0_613,No_0_614,No_0_615
     RDKit          3D

 40 45  0  0  1  0  0  0  0  0999 V2000
   -5.1920    3.7390  -21.8420 C   0  0  0  0  0  0  0  0  0  0  0  0
   -5.4560    3.9230  -23.1780 C   0  0  0  0  0  0  0  0  0  0  0  0
   -3.9550    3.4850  -21.4980 C   0  0  0  0  0  0  0  0  0  0  0  0
   -3.0600    3.6020  -23.6630 C   0  0  0  0  0  0  0  0  0  0  0  0
   -2.9020    3.3620  -22.2420 C   0  0  0  0  0  0  0  0  0  0  0  0
   -4.4070    3.8640  -24.1870 C   0  0  0  0  0  0  0  0  0  0  0  0
   -3.6490    3.8770  -26.3840 C   0  0  0  0  0  0  0  0  0  0  0  0
    6.0720    3.1460  -21.1040 C   0  0  0  0  0  0  0  0  0  0  0  0
    5.9370    3.2790  -23.6540 C   0  0  0  0  0  0  0  0  0  0  0  0
   -4.6560    3.9870  -25.5230 C   0  0  0  0  0  0  0  0  0  0  0  0
    2.1540    3.8330  -23.6780 C   0  0  0  0  0  0  0  0  0  0  0  0
    1.3340    4.9440  -23.3840 C   0  0  0  0  0  0  0  0  0  0  0  0
    3.1330    6.1390  -22.7060 C   0  0  0  0  0  0  0  0  0  0  0  0
    3.5540    4.0230  -23.3640 C   0  0  0  0  0  0  0  0  0  0  0  0
    1.6060    2.7150  -24.3360 C   0  0  0  0  0  0  0  0  0  0  0  0
   -0.5200    3.5320  -24.2310 C   0  0  0  0  0  0  0  0  0  0  0  0
    0.0080    4.7530  -23.6360 C   0  0  0  0  0  0  0  0  0  0  0  0
   -1.9720    3.5390  -24.5870 C   0  0  0  0  0  0  0  0  0  0  0  0
    4.1550    1.5250  -23.0620 C   0  0  0  0  0  0  0  0  0  0  0  0
    5.0860    1.1720  -21.9130 C   0  0  2  0  0  0  0  0  0  0  0  0
    6.6830    2.7080  -22.4530 C   0  0  2  0  0  0  0  0  0  0  0  0
    5.0690    2.1770  -20.7490 C   0  0  0  0  0  0  0  0  0  0  0  0
   -2.2960    3.6940  -26.0160 C   0  0  0  0  0  0  0  0  0  0  0  0
   -1.5590    2.9490  -21.6400 C   0  0  0  0  0  0  0  0  0  0  0  0
   -0.5300    2.6010  -21.1320 C   0  0  0  0  0  0  0  0  0  0  0  0
   -0.8320    5.8010  -23.2960 F   0  0  0  0  0  0  0  0  0  0  0  0
   -3.7460    3.2470  -20.1150 F   0  0  0  0  0  0  0  0  0  0  0  0
    1.8120    6.1040  -22.8560 N   0  0  0  0  0  0  0  0  0  0  0  0
    4.0280    5.1740  -22.9220 N   0  0  0  0  0  0  0  0  0  0  0  0
    0.3000    2.6260  -24.6420 N   0  0  0  0  0  0  0  0  0  0  0  0
    4.4700    2.9730  -23.5360 N   0  0  0  0  0  0  0  0  0  0  0  0
    6.4940    1.2350  -22.3940 N   0  0  0  0  0  0  0  0  0  0  0  0
   -3.8200    3.8870  -27.7740 O   0  0  0  0  0  0  0  0  0  0  0  0
    3.1450    8.4790  -22.6700 O   0  0  0  0  0  0  0  0  0  0  0  0
    6.0300    9.8370  -22.9880 N   0  0  0  0  0  0  0  0  0  0  0  0
    7.7130    8.9140  -21.6260 N   0  0  0  0  0  0  0  0  0  0  0  0
    4.7440    7.4440  -21.4110 N   0  0  0  0  0  0  0  0  0  0  0  0
    5.3610    8.6950  -20.9470 C   0  0  0  0  0  0  0  0  0  0  0  0
    6.4310    9.1700  -21.9030 C   0  0  0  0  0  0  0  0  0  0  0  0
    3.6890    7.4660  -22.2470 C   0  0  0  0  0  0  0  0  0  0  0  0
  1  2  2  0
  1  3  1  0
  2  6  1  0
  3  5  2  0
  3 27  1  0
  4  5  1  0
  4  6  2  0
  4 18  1  0
  5 24  1  0
  6 10  1  0
  7 10  2  0
  7 23  1  0
  7 33  1  0
 21  8  1  1
  8 22  1  0
  9 21  1  0
  9 31  1  0
 11 12  2  0
 11 14  1  0
 11 15  1  0
 12 17  1  0
 12 28  1  0
 13 28  2  0
 13 29  1  0
 13 40  1  0
 14 29  2  0
 14 31  1  0
 15 30  2  0
 16 17  2  0
 16 18  1  0
 16 30  1  0
 17 26  1  0
 18 23  2  0
 20 19  1  6
 19 31  1  0
 20 22  1  0
 20 32  1  0
 21 32  1  0
 24 25  3  0
 34 40  2  0
 35 39  1  0
 36 39  2  0
 37 38  1  0
 37 40  1  0
 38 39  1  0
M  CHG  1  36   1
M  END
>  <s_m_entry_id>  (188) 
750

>  <s_m_entry_name>  (188) 
000000592.1

>  <s_m_Source_Path>  (188) 
/Users/zaksoul/Documents/3r_UNI/2nd_SEMESTER/BSC/FRAG_RECON/RESULTS/2

>  <s_m_Source_File>  (188) 
000000592.mol2

>  <i_m_Source_File_Index>  (188) 
1

$$$$
No_0_616
     RDKit          3D

 43 49  0  0  1  0  0  0  0  0999 V2000
   -5.1810    3.6090  -21.8530 C   0  0  0  0  0  0  0  0  0  0  0  0
   -5.4520    3.8050  -23.1860 C   0  0  0  0  0  0  0  0  0  0  0  0
   -3.9420    3.3510  -21.5190 C   0  0  0  0  0  0  0  0  0  0  0  0
   -3.0590    3.4860  -23.6870 C   0  0  0  0  0  0  0  0  0  0  0  0
   -2.8930    3.2340  -22.2690 C   0  0  0  0  0  0  0  0  0  0  0  0
   -4.4090    3.7540  -24.2010 C   0  0  0  0  0  0  0  0  0  0  0  0
   -3.6630    3.7850  -26.4030 C   0  0  0  0  0  0  0  0  0  0  0  0
    6.0870    3.0010  -21.1820 C   0  0  0  0  0  0  0  0  0  0  0  0
    5.9380    3.1560  -23.7310 C   0  0  0  0  0  0  0  0  0  0  0  0
   -4.6650    3.8890  -25.5350 C   0  0  0  0  0  0  0  0  0  0  0  0
    2.1540    3.7130  -23.7290 C   0  0  0  0  0  0  0  0  0  0  0  0
    1.3370    4.8230  -23.4210 C   0  0  0  0  0  0  0  0  0  0  0  0
    3.1410    6.0110  -22.7430 C   0  0  0  0  0  0  0  0  0  0  0  0
    3.5570    3.8990  -23.4210 C   0  0  0  0  0  0  0  0  0  0  0  0
    1.6030    2.6010  -24.3930 C   0  0  0  0  0  0  0  0  0  0  0  0
   -0.5220    3.4190  -24.2700 C   0  0  0  0  0  0  0  0  0  0  0  0
    0.0100    4.6350  -23.6670 C   0  0  0  0  0  0  0  0  0  0  0  0
   -1.9770    3.4300  -24.6180 C   0  0  0  0  0  0  0  0  0  0  0  0
    4.1570    1.3990  -23.1440 C   0  0  0  0  0  0  0  0  0  0  0  0
    5.0950    1.0350  -22.0030 C   0  0  2  0  0  0  0  0  0  0  0  0
    6.6890    2.5740  -22.5390 C   0  0  2  0  0  0  0  0  0  0  0  0
    5.0840    2.0310  -20.8310 C   0  0  0  0  0  0  0  0  0  0  0  0
   -2.3080    3.5970  -26.0440 C   0  0  0  0  0  0  0  0  0  0  0  0
   -1.5470    2.8150  -21.6780 C   0  0  0  0  0  0  0  0  0  0  0  0
   -0.5150    2.4620  -21.1780 C   0  0  0  0  0  0  0  0  0  0  0  0
   -0.8280    5.6800  -23.3140 F   0  0  0  0  0  0  0  0  0  0  0  0
   -3.7260    3.1020  -20.1390 F   0  0  0  0  0  0  0  0  0  0  0  0
    1.8200    5.9780  -22.8860 N   0  0  0  0  0  0  0  0  0  0  0  0
    4.0350    5.0470  -22.9720 N   0  0  0  0  0  0  0  0  0  0  0  0
    0.2950    2.5160  -24.6930 N   0  0  0  0  0  0  0  0  0  0  0  0
    4.4710    2.8500  -23.6070 N   0  0  0  0  0  0  0  0  0  0  0  0
    6.5000    1.1010  -22.4910 N   0  0  0  0  0  0  0  0  0  0  0  0
   -3.8410    3.8060  -27.7920 O   0  0  0  0  0  0  0  0  0  0  0  0
    8.3030   10.7620  -23.2170 O   0  0  0  0  0  0  0  0  0  0  0  0
    3.1540    8.3500  -22.6880 O   0  0  0  0  0  0  0  0  0  0  0  0
    6.3430    9.0490  -22.0510 N   0  0  0  0  0  0  0  0  0  0  0  0
    4.7590    7.3080  -21.4480 N   0  0  0  0  0  0  0  0  0  0  0  0
    5.3750    8.5660  -21.0050 C   0  0  0  0  0  0  0  0  0  0  0  0
    5.9530   10.3820  -22.6320 C   0  0  0  0  0  0  0  0  0  0  0  0
    7.7740    9.0130  -21.5810 C   0  0  0  0  0  0  0  0  0  0  0  0
    8.7000    9.4670  -22.7260 C   0  0  0  0  0  0  0  0  0  0  0  0
    6.9580   10.7680  -23.7350 C   0  0  0  0  0  0  0  0  0  0  0  0
    3.7010    7.3330  -22.2760 C   0  0  0  0  0  0  0  0  0  0  0  0
  1  2  2  0
  1  3  1  0
  2  6  1  0
  3  5  2  0
  3 27  1  0
  4  5  1  0
  4  6  2  0
  4 18  1  0
  5 24  1  0
  6 10  1  0
  7 10  2  0
  7 23  1  0
  7 33  1  0
 21  8  1  1
  8 22  1  0
  9 21  1  0
  9 31  1  0
 11 12  1  0
 11 14  1  0
 11 15  2  0
 12 17  2  0
 12 28  1  0
 13 28  2  0
 13 29  1  0
 13 43  1  0
 14 29  2  0
 14 31  1  0
 15 30  1  0
 16 17  1  0
 16 18  1  0
 16 30  2  0
 17 26  1  0
 18 23  2  0
 20 19  1  6
 19 31  1  0
 20 22  1  0
 20 32  1  0
 21 32  1  0
 24 25  3  0
 34 41  1  0
 34 42  1  0
 35 43  2  0
 36 38  1  0
 36 39  1  0
 36 40  1  0
 37 38  1  0
 37 43  1  0
 39 42  1  0
 40 41  1  0
M  END
>  <s_m_entry_id>  (189) 
753

>  <s_m_entry_name>  (189) 
000000595.1

>  <s_m_Source_Path>  (189) 
/Users/zaksoul/Documents/3r_UNI/2nd_SEMESTER/BSC/FRAG_RECON/RESULTS/2

>  <s_m_Source_File>  (189) 
000000595.mol2

>  <i_m_Source_File_Index>  (189) 
1

$$$$
No_0_617,No_0_618,No_0_619
     RDKit          3D

 40 45  0  0  1  0  0  0  0  0999 V2000
   -5.1080    3.6600  -21.8720 C   0  0  0  0  0  0  0  0  0  0  0  0
   -5.3780    3.8580  -23.2060 C   0  0  0  0  0  0  0  0  0  0  0  0
   -3.8700    3.4030  -21.5360 C   0  0  0  0  0  0  0  0  0  0  0  0
   -2.9840    3.5420  -23.7030 C   0  0  0  0  0  0  0  0  0  0  0  0
   -2.8200    3.2880  -22.2840 C   0  0  0  0  0  0  0  0  0  0  0  0
   -4.3320    3.8100  -24.2190 C   0  0  0  0  0  0  0  0  0  0  0  0
   -3.5820    3.8440  -26.4190 C   0  0  0  0  0  0  0  0  0  0  0  0
    6.1590    3.0610  -21.1820 C   0  0  0  0  0  0  0  0  0  0  0  0
    6.0140    3.2200  -23.7310 C   0  0  0  0  0  0  0  0  0  0  0  0
   -4.5860    3.9460  -25.5530 C   0  0  0  0  0  0  0  0  0  0  0  0
    2.2300    3.7740  -23.7350 C   0  0  0  0  0  0  0  0  0  0  0  0
    1.4120    4.8820  -23.4270 C   0  0  0  0  0  0  0  0  0  0  0  0
    3.2130    6.0700  -22.7440 C   0  0  0  0  0  0  0  0  0  0  0  0
    3.6310    3.9600  -23.4240 C   0  0  0  0  0  0  0  0  0  0  0  0
    1.6800    2.6620  -24.4020 C   0  0  0  0  0  0  0  0  0  0  0  0
   -0.4450    3.4780  -24.2810 C   0  0  0  0  0  0  0  0  0  0  0  0
    0.0850    4.6930  -23.6750 C   0  0  0  0  0  0  0  0  0  0  0  0
   -1.8990    3.4880  -24.6320 C   0  0  0  0  0  0  0  0  0  0  0  0
    4.2340    1.4600  -23.1500 C   0  0  0  0  0  0  0  0  0  0  0  0
    5.1700    1.0950  -22.0070 C   0  0  2  0  0  0  0  0  0  0  0  0
    6.7640    2.6370  -22.5380 C   0  0  2  0  0  0  0  0  0  0  0  0
    5.1560    2.0890  -20.8340 C   0  0  0  0  0  0  0  0  0  0  0  0
   -2.2280    3.6580  -26.0580 C   0  0  0  0  0  0  0  0  0  0  0  0
   -1.4750    2.8690  -21.6920 C   0  0  0  0  0  0  0  0  0  0  0  0
   -0.4430    2.5160  -21.1910 C   0  0  0  0  0  0  0  0  0  0  0  0
   -0.7540    5.7380  -23.3220 F   0  0  0  0  0  0  0  0  0  0  0  0
   -3.6560    3.1520  -20.1560 F   0  0  0  0  0  0  0  0  0  0  0  0
    1.8920    6.0370  -22.8890 N   0  0  0  0  0  0  0  0  0  0  0  0
    4.1080    5.1080  -22.9720 N   0  0  0  0  0  0  0  0  0  0  0  0
    0.3730    2.5760  -24.7040 N   0  0  0  0  0  0  0  0  0  0  0  0
    4.5470    2.9120  -23.6100 N   0  0  0  0  0  0  0  0  0  0  0  0
    6.5750    1.1630  -22.4930 N   0  0  0  0  0  0  0  0  0  0  0  0
   -3.7590    3.8680  -27.8080 O   0  0  0  0  0  0  0  0  0  0  0  0
    3.2270    8.4120  -22.6830 O   0  0  0  0  0  0  0  0  0  0  0  0
    6.3660    9.1800  -21.9680 N   0  0  0  0  0  0  0  0  0  0  0  0
    4.8250    7.3640  -21.4390 N   0  0  0  0  0  0  0  0  0  0  0  0
    5.4160    8.6140  -20.9450 C   0  0  0  0  0  0  0  0  0  0  0  0
    5.8850   10.4780  -22.5520 C   0  0  0  0  0  0  0  0  0  0  0  0
    7.7750    9.2790  -21.4580 C   0  0  0  0  0  0  0  0  0  0  0  0
    3.7710    7.3920  -22.2730 C   0  0  0  0  0  0  0  0  0  0  0  0
  1  2  2  0
  1  3  1  0
  2  6  1  0
  3  5  2  0
  3 27  1  0
  4  5  1  0
  4  6  2  0
  4 18  1  0
  5 24  1  0
  6 10  1  0
  7 10  2  0
  7 23  1  0
  7 33  1  0
 21  8  1  1
  8 22  1  0
  9 21  1  0
  9 31  1  0
 11 12  2  0
 11 14  1  0
 11 15  1  0
 12 17  1  0
 12 28  1  0
 13 28  2  0
 13 29  1  0
 13 40  1  0
 14 29  2  0
 14 31  1  0
 15 30  2  0
 16 17  2  0
 16 18  1  0
 16 30  1  0
 17 26  1  0
 18 23  2  0
 20 19  1  6
 19 31  1  0
 20 22  1  0
 20 32  1  0
 21 32  1  0
 24 25  3  0
 34 40  2  0
 35 37  1  0
 35 38  1  0
 35 39  1  0
 36 37  1  0
 36 40  1  0
M  END
>  <s_m_entry_id>  (190) 
754

>  <s_m_entry_name>  (190) 
000000596.1

>  <s_m_Source_Path>  (190) 
/Users/zaksoul/Documents/3r_UNI/2nd_SEMESTER/BSC/FRAG_RECON/RESULTS/2

>  <s_m_Source_File>  (190) 
000000596.mol2

>  <i_m_Source_File_Index>  (190) 
1

$$$$
No_0_620,No_0_621,No_0_622,No_0_623
     RDKit          3D

 44 50  0  0  1  0  0  0  0  0999 V2000
   -5.0250    3.6220  -21.7650 C   0  0  0  0  0  0  0  0  0  0  0  0
   -5.3110    3.7920  -23.0990 C   0  0  0  0  0  0  0  0  0  0  0  0
   -3.7870    3.3460  -21.4410 C   0  0  0  0  0  0  0  0  0  0  0  0
   -2.9320    3.4120  -23.6240 C   0  0  0  0  0  0  0  0  0  0  0  0
   -2.7510    3.1900  -22.2020 C   0  0  0  0  0  0  0  0  0  0  0  0
   -4.2820    3.6970  -24.1260 C   0  0  0  0  0  0  0  0  0  0  0  0
   -3.5660    3.6610  -26.3370 C   0  0  0  0  0  0  0  0  0  0  0  0
    6.2360    2.7960  -21.2300 C   0  0  0  0  0  0  0  0  0  0  0  0
    6.0550    2.8950  -23.7780 C   0  0  0  0  0  0  0  0  0  0  0  0
   -4.5540    3.8060  -25.4590 C   0  0  0  0  0  0  0  0  0  0  0  0
    2.2840    3.5310  -23.7400 C   0  0  0  0  0  0  0  0  0  0  0  0
    1.4950    4.6640  -23.4470 C   0  0  0  0  0  0  0  0  0  0  0  0
    3.3320    5.8290  -22.8210 C   0  0  0  0  0  0  0  0  0  0  0  0
    3.6940    3.6950  -23.4550 C   0  0  0  0  0  0  0  0  0  0  0  0
    1.7010    2.4150  -24.3700 C   0  0  0  0  0  0  0  0  0  0  0  0
   -0.4050    3.2790  -24.2380 C   0  0  0  0  0  0  0  0  0  0  0  0
    0.1600    4.4980  -23.6710 C   0  0  0  0  0  0  0  0  0  0  0  0
   -1.8640    3.3130  -24.5670 C   0  0  0  0  0  0  0  0  0  0  0  0
    4.2470    1.1890  -23.1270 C   0  0  0  0  0  0  0  0  0  0  0  0
    5.1930    0.8330  -21.9900 C   0  0  2  0  0  0  0  0  0  0  0  0
    6.8110    2.3260  -22.5830 C   0  0  2  0  0  0  0  0  0  0  0  0
    5.2190    1.8550  -20.8420 C   0  0  0  0  0  0  0  0  0  0  0  0
   -2.2110    3.4540  -25.9920 C   0  0  0  0  0  0  0  0  0  0  0  0
   -1.4060    2.7570  -21.6190 C   0  0  0  0  0  0  0  0  0  0  0  0
   -0.3750    2.3940  -21.1250 C   0  0  0  0  0  0  0  0  0  0  0  0
   -0.6510    5.5680  -23.3310 F   0  0  0  0  0  0  0  0  0  0  0  0
   -3.5570    3.1240  -20.0580 F   0  0  0  0  0  0  0  0  0  0  0  0
    2.0080    5.8210  -22.9450 N   0  0  0  0  0  0  0  0  0  0  0  0
    4.2020    4.8420  -23.0390 N   0  0  0  0  0  0  0  0  0  0  0  0
    0.3880    2.3500  -24.6510 N   0  0  0  0  0  0  0  0  0  0  0  0
    4.5850    2.6230  -23.6280 N   0  0  0  0  0  0  0  0  0  0  0  0
    6.5920    0.8580  -22.4990 N   0  0  0  0  0  0  0  0  0  0  0  0
   -3.7640    3.6540  -27.7230 O   0  0  0  0  0  0  0  0  0  0  0  0
    3.1430    8.0760  -22.2010 O   0  0  0  0  0  0  0  0  0  0  0  0
    9.7810    8.9960  -23.5480 N   0  0  0  0  0  0  0  0  0  0  0  0
    5.2630    7.2190  -22.2570 N   0  0  0  0  0  0  0  0  0  0  0  0
    8.8240   10.1730  -25.3600 N   0  0  0  0  0  0  0  0  0  0  0  0
    7.2910    8.6470  -22.4380 C   0  0  0  0  0  0  0  0  0  0  0  0
    8.6860    9.4960  -24.1790 C   0  0  0  0  0  0  0  0  0  0  0  0
    5.9170    8.4600  -21.8080 C   0  0  0  0  0  0  0  0  0  0  0  0
    7.4240    9.3180  -23.6170 C   0  0  0  0  0  0  0  0  0  0  0  0
    8.4350    8.1360  -21.8100 C   0  0  0  0  0  0  0  0  0  0  0  0
    9.6540    8.3150  -22.3670 C   0  0  0  0  0  0  0  0  0  0  0  0
    3.9240    7.1500  -22.3920 C   0  0  0  0  0  0  0  0  0  0  0  0
  1  2  2  0
  1  3  1  0
  2  6  1  0
  3  5  2  0
  3 27  1  0
  4  5  1  0
  4  6  2  0
  4 18  1  0
  5 24  1  0
  6 10  1  0
  7 10  2  0
  7 23  1  0
  7 33  1  0
 21  8  1  1
  8 22  1  0
  9 21  1  0
  9 31  1  0
 11 12  1  0
 11 14  1  0
 11 15  2  0
 12 17  2  0
 12 28  1  0
 13 28  2  0
 13 29  1  0
 13 44  1  0
 14 29  2  0
 14 31  1  0
 15 30  1  0
 16 17  1  0
 16 18  1  0
 16 30  2  0
 17 26  1  0
 18 23  2  0
 20 19  1  6
 19 31  1  0
 20 22  1  0
 20 32  1  0
 21 32  1  0
 24 25  3  0
 34 44  2  0
 35 39  2  0
 35 43  1  0
 36 40  1  0
 36 44  1  0
 37 39  1  0
 38 40  1  0
 38 41  2  0
 38 42  1  0
 39 41  1  0
 42 43  2  0
M  END
>  <s_m_entry_id>  (191) 
757

>  <s_m_entry_name>  (191) 
000000599.1

>  <s_m_Source_Path>  (191) 
/Users/zaksoul/Documents/3r_UNI/2nd_SEMESTER/BSC/FRAG_RECON/RESULTS/2

>  <s_m_Source_File>  (191) 
000000599.mol2

>  <i_m_Source_File_Index>  (191) 
1

$$$$
No_0_624,No_0_625,No_0_626,No_0_627
     RDKit          3D

 44 50  0  0  1  0  0  0  0  0999 V2000
   -4.9650    3.8270  -22.0760 C   0  0  0  0  0  0  0  0  0  0  0  0
   -5.2160    4.0210  -23.4140 C   0  0  0  0  0  0  0  0  0  0  0  0
   -3.7360    3.5410  -21.7260 C   0  0  0  0  0  0  0  0  0  0  0  0
   -2.8260    3.6400  -23.8860 C   0  0  0  0  0  0  0  0  0  0  0  0
   -2.6820    3.3940  -22.4640 C   0  0  0  0  0  0  0  0  0  0  0  0
   -4.1630    3.9380  -24.4170 C   0  0  0  0  0  0  0  0  0  0  0  0
   -3.3920    3.9360  -26.6090 C   0  0  0  0  0  0  0  0  0  0  0  0
    6.2770    2.9480  -21.2740 C   0  0  0  0  0  0  0  0  0  0  0  0
    6.1600    3.0900  -23.8250 C   0  0  0  0  0  0  0  0  0  0  0  0
   -4.4010    4.0700  -25.7540 C   0  0  0  0  0  0  0  0  0  0  0  0
    2.3920    3.7400  -23.8700 C   0  0  0  0  0  0  0  0  0  0  0  0
    1.5990    4.8700  -23.5780 C   0  0  0  0  0  0  0  0  0  0  0  0
    3.4240    6.0180  -22.8870 C   0  0  0  0  0  0  0  0  0  0  0  0
    3.7940    3.8930  -23.5470 C   0  0  0  0  0  0  0  0  0  0  0  0
    1.8200    2.6370  -24.5330 C   0  0  0  0  0  0  0  0  0  0  0  0
   -0.2850    3.5070  -24.4390 C   0  0  0  0  0  0  0  0  0  0  0  0
    0.2700    4.7140  -23.8380 C   0  0  0  0  0  0  0  0  0  0  0  0
   -1.7350    3.5520  -24.8030 C   0  0  0  0  0  0  0  0  0  0  0  0
    4.3300    1.3800  -23.2470 C   0  0  0  0  0  0  0  0  0  0  0  0
    5.2460    1.0010  -22.0930 C   0  0  2  0  0  0  0  0  0  0  0  0
    6.8840    2.4980  -22.6210 C   0  0  2  0  0  0  0  0  0  0  0  0
    5.2470    2.0050  -20.9280 C   0  0  0  0  0  0  0  0  0  0  0  0
   -2.0460    3.7180  -26.2340 C   0  0  0  0  0  0  0  0  0  0  0  0
   -1.3540    2.9450  -21.8550 C   0  0  0  0  0  0  0  0  0  0  0  0
   -0.3370    2.5710  -21.3410 C   0  0  0  0  0  0  0  0  0  0  0  0
   -0.5460    5.7820  -23.5010 F   0  0  0  0  0  0  0  0  0  0  0  0
   -3.5420    3.2960  -20.3420 F   0  0  0  0  0  0  0  0  0  0  0  0
    2.1030    6.0170  -23.0450 N   0  0  0  0  0  0  0  0  0  0  0  0
    4.2950    5.0310  -23.1000 N   0  0  0  0  0  0  0  0  0  0  0  0
    0.5140    2.5820  -24.8470 N   0  0  0  0  0  0  0  0  0  0  0  0
    4.6850    2.8210  -23.7160 N   0  0  0  0  0  0  0  0  0  0  0  0
    6.6570    1.0300  -22.5660 N   0  0  0  0  0  0  0  0  0  0  0  0
   -3.5540    3.9530  -28.0000 O   0  0  0  0  0  0  0  0  0  0  0  0
    6.3470    6.4110  -22.5700 O   0  0  0  0  0  0  0  0  0  0  0  0
    3.2480    8.2660  -22.2300 O   0  0  0  0  0  0  0  0  0  0  0  0
    5.2990   10.7740  -22.3500 N   0  0  0  0  0  0  0  0  0  0  0  0
    5.6490    9.8200  -21.2380 C   0  0  0  0  0  0  0  0  0  0  0  0
    6.5050   11.2830  -23.0900 C   0  0  0  0  0  0  0  0  0  0  0  0
    4.4260   11.8990  -21.8730 C   0  0  0  0  0  0  0  0  0  0  0  0
    5.4620    7.4180  -22.2440 C   0  0  0  0  0  0  0  0  0  0  0  0
    7.4900    8.0750  -21.7910 C   0  0  0  0  0  0  0  0  0  0  0  0
    6.1460    8.4770  -21.7470 C   0  0  0  0  0  0  0  0  0  0  0  0
    7.5260    6.8400  -22.2890 C   0  0  0  0  0  0  0  0  0  0  0  0
    4.0100    7.3300  -22.4220 C   0  0  0  0  0  0  0  0  0  0  0  0
  1  2  2  0
  1  3  1  0
  2  6  1  0
  3  5  2  0
  3 27  1  0
  4  5  1  0
  4  6  2  0
  4 18  1  0
  5 24  1  0
  6 10  1  0
  7 10  2  0
  7 23  1  0
  7 33  1  0
 21  8  1  1
  8 22  1  0
  9 21  1  0
  9 31  1  0
 11 12  1  0
 11 14  1  0
 11 15  2  0
 12 17  2  0
 12 28  1  0
 13 28  2  0
 13 29  1  0
 13 44  1  0
 14 29  2  0
 14 31  1  0
 15 30  1  0
 16 17  1  0
 16 18  1  0
 16 30  2  0
 17 26  1  0
 18 23  2  0
 20 19  1  6
 19 31  1  0
 20 22  1  0
 20 32  1  0
 21 32  1  0
 24 25  3  0
 34 40  1  0
 34 43  1  0
 35 44  2  0
 36 37  1  0
 36 38  1  0
 36 39  1  0
 37 42  1  0
 40 42  2  0
 40 44  1  0
 41 42  1  0
 41 43  2  0
M  CHG  1  36   1
M  END
>  <s_m_entry_id>  (192) 
761

>  <s_m_entry_name>  (192) 
000000603.1

>  <s_m_Source_Path>  (192) 
/Users/zaksoul/Documents/3r_UNI/2nd_SEMESTER/BSC/FRAG_RECON/RESULTS/2

>  <s_m_Source_File>  (192) 
000000603.mol2

>  <i_m_Source_File_Index>  (192) 
1

$$$$
No_0_628
     RDKit          3D

 41 47  0  0  1  0  0  0  0  0999 V2000
   -5.0540    3.6850  -21.9230 C   0  0  0  0  0  0  0  0  0  0  0  0
   -5.3450    3.8620  -23.2550 C   0  0  0  0  0  0  0  0  0  0  0  0
   -3.8100    3.4340  -21.6020 C   0  0  0  0  0  0  0  0  0  0  0  0
   -2.9590    3.5390  -23.7850 C   0  0  0  0  0  0  0  0  0  0  0  0
   -2.7720    3.3080  -22.3660 C   0  0  0  0  0  0  0  0  0  0  0  0
   -4.3160    3.7980  -24.2840 C   0  0  0  0  0  0  0  0  0  0  0  0
   -3.6020    3.7980  -26.4960 C   0  0  0  0  0  0  0  0  0  0  0  0
    6.2230    3.1040  -21.4060 C   0  0  0  0  0  0  0  0  0  0  0  0
    6.0370    3.2220  -23.9530 C   0  0  0  0  0  0  0  0  0  0  0  0
   -4.5920    3.9130  -25.6150 C   0  0  0  0  0  0  0  0  0  0  0  0
    2.2530    3.7740  -23.9050 C   0  0  0  0  0  0  0  0  0  0  0  0
    1.4390    4.8860  -23.6020 C   0  0  0  0  0  0  0  0  0  0  0  0
    3.2500    6.0860  -22.9670 C   0  0  0  0  0  0  0  0  0  0  0  0
    3.6590    3.9660  -23.6200 C   0  0  0  0  0  0  0  0  0  0  0  0
    1.6930    2.6510  -24.5460 C   0  0  0  0  0  0  0  0  0  0  0  0
   -0.4310    3.4670  -24.4030 C   0  0  0  0  0  0  0  0  0  0  0  0
    0.1080    4.6930  -23.8260 C   0  0  0  0  0  0  0  0  0  0  0  0
   -1.8900    3.4720  -24.7300 C   0  0  0  0  0  0  0  0  0  0  0  0
    4.2680    1.4700  -23.3160 C   0  0  0  0  0  0  0  0  0  0  0  0
    5.2220    1.1250  -22.1840 C   0  0  2  0  0  0  0  0  0  0  0  0
    6.8060    2.6580  -22.7640 C   0  0  2  0  0  0  0  0  0  0  0  0
    5.2270    2.1370  -21.0260 C   0  0  0  0  0  0  0  0  0  0  0  0
   -2.2420    3.6180  -26.1540 C   0  0  0  0  0  0  0  0  0  0  0  0
   -1.4170    2.8990  -21.7890 C   0  0  0  0  0  0  0  0  0  0  0  0
   -0.3780    2.5550  -21.2990 C   0  0  0  0  0  0  0  0  0  0  0  0
   -0.7260    5.7420  -23.4760 F   0  0  0  0  0  0  0  0  0  0  0  0
   -3.5740    3.2050  -20.2220 F   0  0  0  0  0  0  0  0  0  0  0  0
    1.9270    6.0490  -23.0900 N   0  0  0  0  0  0  0  0  0  0  0  0
    4.1420    5.1200  -23.1950 N   0  0  0  0  0  0  0  0  0  0  0  0
    0.3820    2.5600  -24.8260 N   0  0  0  0  0  0  0  0  0  0  0  0
    4.5730    2.9150  -23.8040 N   0  0  0  0  0  0  0  0  0  0  0  0
    6.6200    1.1860  -22.6930 N   0  0  0  0  0  0  0  0  0  0  0  0
   -3.8010    3.8000  -27.8820 O   0  0  0  0  0  0  0  0  0  0  0  0
    4.8440    7.3900  -21.6570 N   0  0  0  0  0  0  0  0  0  0  0  0
    3.2520    8.5180  -23.0520 N   0  0  0  0  0  0  0  0  0  0  0  0
    5.5010    8.5870  -21.1340 C   0  0  0  0  0  0  0  0  0  0  0  0
    6.2050    9.4440  -22.2050 C   0  0  0  0  0  0  0  0  0  0  0  0
    4.6100    9.5280  -20.3010 C   0  0  0  0  0  0  0  0  0  0  0  0
    5.2790   10.9010  -20.4570 C   0  0  0  0  0  0  0  0  0  0  0  0
    5.8620   10.9100  -21.8790 C   0  0  0  0  0  0  0  0  0  0  0  0
    3.8140    7.4160  -22.5260 C   0  0  0  0  0  0  0  0  0  0  0  0
  1  2  2  0
  1  3  1  0
  2  6  1  0
  3  5  2  0
  3 27  1  0
  4  5  1  0
  4  6  2  0
  4 18  1  0
  5 24  1  0
  6 10  1  0
  7 10  2  0
  7 23  1  0
  7 33  1  0
 21  8  1  1
  8 22  1  0
  9 21  1  0
  9 31  1  0
 11 12  1  0
 11 14  1  0
 11 15  2  0
 12 17  2  0
 12 28  1  0
 13 28  2  0
 13 29  1  0
 13 41  1  0
 14 29  2  0
 14 31  1  0
 15 30  1  0
 16 17  1  0
 16 18  1  0
 16 30  2  0
 17 26  1  0
 18 23  2  0
 20 19  1  6
 19 31  1  0
 20 22  1  0
 20 32  1  0
 21 32  1  0
 24 25  3  0
 34 36  1  0
 34 41  2  0
 35 41  1  0
 36 37  1  0
 36 38  1  0
 37 40  1  0
 38 39  1  0
 39 40  1  0
M  CHG  1  34   1
M  END
>  <s_m_entry_id>  (193) 
765

>  <s_m_entry_name>  (193) 
000000607.1

>  <s_m_Source_Path>  (193) 
/Users/zaksoul/Documents/3r_UNI/2nd_SEMESTER/BSC/FRAG_RECON/RESULTS/2

>  <s_m_Source_File>  (193) 
000000607.mol2

>  <i_m_Source_File_Index>  (193) 
1

$$$$
No_0_629,No_0_630
     RDKit          3D

 40 45  0  0  1  0  0  0  0  0999 V2000
   -5.2160    3.9650  -22.1040 C   0  0  0  0  0  0  0  0  0  0  0  0
   -5.4560    4.1560  -23.4440 C   0  0  0  0  0  0  0  0  0  0  0  0
   -3.9900    3.6830  -21.7430 C   0  0  0  0  0  0  0  0  0  0  0  0
   -3.0610    3.7810  -23.8940 C   0  0  0  0  0  0  0  0  0  0  0  0
   -2.9290    3.5380  -22.4700 C   0  0  0  0  0  0  0  0  0  0  0  0
   -4.3940    4.0740  -24.4370 C   0  0  0  0  0  0  0  0  0  0  0  0
   -3.6030    4.0710  -26.6230 C   0  0  0  0  0  0  0  0  0  0  0  0
    6.0200    3.1220  -21.2000 C   0  0  0  0  0  0  0  0  0  0  0  0
    5.9260    3.2590  -23.7520 C   0  0  0  0  0  0  0  0  0  0  0  0
   -4.6200    4.2040  -25.7770 C   0  0  0  0  0  0  0  0  0  0  0  0
    2.1560    3.8970  -23.8320 C   0  0  0  0  0  0  0  0  0  0  0  0
    1.3570    5.0260  -23.5490 C   0  0  0  0  0  0  0  0  0  0  0  0
    3.1720    6.1810  -22.8440 C   0  0  0  0  0  0  0  0  0  0  0  0
    3.5550    4.0560  -23.4970 C   0  0  0  0  0  0  0  0  0  0  0  0
    1.5940    2.7910  -24.4980 C   0  0  0  0  0  0  0  0  0  0  0  0
   -0.5150    3.6560  -24.4240 C   0  0  0  0  0  0  0  0  0  0  0  0
    0.0310    4.8650  -23.8200 C   0  0  0  0  0  0  0  0  0  0  0  0
   -1.9620    3.6950  -24.8020 C   0  0  0  0  0  0  0  0  0  0  0  0
    4.0960    1.5450  -23.1880 C   0  0  0  0  0  0  0  0  0  0  0  0
    5.0030    1.1710  -22.0250 C   0  0  2  0  0  0  0  0  0  0  0  0
    6.6410    2.6710  -22.5410 C   0  0  2  0  0  0  0  0  0  0  0  0
    4.9900    2.1760  -20.8620 C   0  0  0  0  0  0  0  0  0  0  0  0
   -2.2600    3.8580  -26.2350 C   0  0  0  0  0  0  0  0  0  0  0  0
   -1.6050    3.0940  -21.8490 C   0  0  0  0  0  0  0  0  0  0  0  0
   -0.5910    2.7240  -21.3260 C   0  0  0  0  0  0  0  0  0  0  0  0
   -0.7910    5.9310  -23.4920 F   0  0  0  0  0  0  0  0  0  0  0  0
   -3.8070    3.4400  -20.3570 F   0  0  0  0  0  0  0  0  0  0  0  0
    1.8530    6.1750  -23.0130 N   0  0  0  0  0  0  0  0  0  0  0  0
    4.0490    5.1960  -23.0470 N   0  0  0  0  0  0  0  0  0  0  0  0
    0.2910    2.7320  -24.8240 N   0  0  0  0  0  0  0  0  0  0  0  0
    4.4510    2.9850  -23.6560 N   0  0  0  0  0  0  0  0  0  0  0  0
    6.4180    1.2030  -22.4860 N   0  0  0  0  0  0  0  0  0  0  0  0
   -3.7530    4.0860  -28.0160 O   0  0  0  0  0  0  0  0  0  0  0  0
    4.7490    7.4440  -21.4700 N   0  0  0  0  0  0  0  0  0  0  0  0
    3.2280    8.6130  -22.9090 N   0  0  0  0  0  0  0  0  0  0  0  0
    6.7360    8.8710  -21.7240 C   0  0  0  0  0  0  0  0  0  0  0  0
    5.4250    8.6300  -20.9550 C   0  0  0  0  0  0  0  0  0  0  0  0
    6.4720    9.1510  -23.2120 C   0  0  0  0  0  0  0  0  0  0  0  0
    3.7500    7.4950  -22.3750 C   0  0  0  0  0  0  0  0  0  0  0  0
    7.8090    9.1600  -23.9660 C   0  0  0  0  0  0  0  0  0  0  0  0
  1  2  2  0
  1  3  1  0
  2  6  1  0
  3  5  2  0
  3 27  1  0
  4  5  1  0
  4  6  2  0
  4 18  1  0
  5 24  1  0
  6 10  1  0
  7 10  2  0
  7 23  1  0
  7 33  1  0
 21  8  1  1
  8 22  1  0
  9 21  1  0
  9 31  1  0
 11 12  2  0
 11 14  1  0
 11 15  1  0
 12 17  1  0
 12 28  1  0
 13 28  2  0
 13 29  1  0
 13 39  1  0
 14 29  2  0
 14 31  1  0
 15 30  2  0
 16 17  2  0
 16 18  1  0
 16 30  1  0
 17 26  1  0
 18 23  2  0
 20 19  1  6
 19 31  1  0
 20 22  1  0
 20 32  1  0
 21 32  1  0
 24 25  3  0
 34 37  1  0
 34 39  2  0
 35 39  1  0
 36 37  1  0
 36 38  1  0
 38 40  1  0
M  CHG  1  34   1
M  END
>  <s_m_entry_id>  (194) 
766

>  <s_m_entry_name>  (194) 
000000608.1

>  <s_m_Source_Path>  (194) 
/Users/zaksoul/Documents/3r_UNI/2nd_SEMESTER/BSC/FRAG_RECON/RESULTS/2

>  <s_m_Source_File>  (194) 
000000608.mol2

>  <i_m_Source_File_Index>  (194) 
1

$$$$
No_0_631
     RDKit          3D

 41 46  0  0  1  0  0  0  0  0999 V2000
   -5.1110    3.6040  -21.9980 C   0  0  0  0  0  0  0  0  0  0  0  0
   -5.3680    3.7870  -23.3360 C   0  0  0  0  0  0  0  0  0  0  0  0
   -3.8770    3.3430  -21.6480 C   0  0  0  0  0  0  0  0  0  0  0  0
   -2.9720    3.4500  -23.8090 C   0  0  0  0  0  0  0  0  0  0  0  0
   -2.8210    3.2120  -22.3860 C   0  0  0  0  0  0  0  0  0  0  0  0
   -4.3140    3.7200  -24.3400 C   0  0  0  0  0  0  0  0  0  0  0  0
   -3.5460    3.7240  -26.5330 C   0  0  0  0  0  0  0  0  0  0  0  0
    6.1460    2.9420  -21.2070 C   0  0  0  0  0  0  0  0  0  0  0  0
    6.0240    3.0710  -23.7580 C   0  0  0  0  0  0  0  0  0  0  0  0
   -4.5560    3.8420  -25.6770 C   0  0  0  0  0  0  0  0  0  0  0  0
    2.2440    3.6490  -23.8000 C   0  0  0  0  0  0  0  0  0  0  0  0
    1.4300    4.7650  -23.5120 C   0  0  0  0  0  0  0  0  0  0  0  0
    3.2330    5.9510  -22.8280 C   0  0  0  0  0  0  0  0  0  0  0  0
    3.6430    3.8300  -23.4800 C   0  0  0  0  0  0  0  0  0  0  0  0
    1.6920    2.5320  -24.4590 C   0  0  0  0  0  0  0  0  0  0  0  0
   -0.4290    3.3630  -24.3650 C   0  0  0  0  0  0  0  0  0  0  0  0
    0.1040    4.5820  -23.7700 C   0  0  0  0  0  0  0  0  0  0  0  0
   -1.8800    3.3790  -24.7280 C   0  0  0  0  0  0  0  0  0  0  0  0
    4.2280    1.3290  -23.1710 C   0  0  0  0  0  0  0  0  0  0  0  0
    5.1520    0.9720  -22.0170 C   0  0  2  0  0  0  0  0  0  0  0  0
    6.7600    2.4980  -22.5520 C   0  0  2  0  0  0  0  0  0  0  0  0
    5.1350    1.9800  -20.8550 C   0  0  0  0  0  0  0  0  0  0  0  0
   -2.1960    3.5330  -26.1590 C   0  0  0  0  0  0  0  0  0  0  0  0
   -1.4840    2.7910  -21.7780 C   0  0  0  0  0  0  0  0  0  0  0  0
   -0.4590    2.4380  -21.2640 C   0  0  0  0  0  0  0  0  0  0  0  0
   -0.7320    5.6360  -23.4360 F   0  0  0  0  0  0  0  0  0  0  0  0
   -3.6760    3.1060  -20.2640 F   0  0  0  0  0  0  0  0  0  0  0  0
    1.9130    5.9240  -22.9840 N   0  0  0  0  0  0  0  0  0  0  0  0
    4.1230    4.9800  -23.0380 N   0  0  0  0  0  0  0  0  0  0  0  0
    0.3870    2.4510  -24.7710 N   0  0  0  0  0  0  0  0  0  0  0  0
    4.5540    2.7740  -23.6460 N   0  0  0  0  0  0  0  0  0  0  0  0
    6.5620    1.0260  -22.4910 N   0  0  0  0  0  0  0  0  0  0  0  0
   -3.7110    3.7320  -27.9240 O   0  0  0  0  0  0  0  0  0  0  0  0
    6.2140   11.3310  -21.0230 O   0  0  0  0  0  0  0  0  0  0  0  0
    5.3790   11.0820  -23.1340 O   0  0  0  0  0  0  0  0  0  0  0  0
    4.8020    7.2550  -21.4750 N   0  0  0  0  0  0  0  0  0  0  0  0
    3.2530    8.3880  -22.8930 N   0  0  0  0  0  0  0  0  0  0  0  0
    5.3900    8.4790  -20.9460 C   0  0  0  0  0  0  0  0  0  0  0  0
    3.7950    7.2750  -22.3690 C   0  0  0  0  0  0  0  0  0  0  0  0
    5.9220   10.6410  -22.0620 C   0  0  0  0  0  0  0  0  0  0  0  0
    6.2450    9.1690  -22.0230 C   0  0  0  0  0  0  0  0  0  0  0  0
  1  2  2  0
  1  3  1  0
  2  6  1  0
  3  5  2  0
  3 27  1  0
  4  5  1  0
  4  6  2  0
  4 18  1  0
  5 24  1  0
  6 10  1  0
  7 10  2  0
  7 23  1  0
  7 33  1  0
 21  8  1  1
  8 22  1  0
  9 21  1  0
  9 31  1  0
 11 12  2  0
 11 14  1  0
 11 15  1  0
 12 17  1  0
 12 28  1  0
 13 28  2  0
 13 29  1  0
 13 39  1  0
 14 29  2  0
 14 31  1  0
 15 30  2  0
 16 17  2  0
 16 18  1  0
 16 30  1  0
 17 26  1  0
 18 23  2  0
 20 19  1  6
 19 31  1  0
 20 22  1  0
 20 32  1  0
 21 32  1  0
 24 25  3  0
 34 40  1  0
 35 40  2  0
 36 38  1  0
 36 39  2  0
 37 39  1  0
 38 41  1  0
 40 41  1  0
M  CHG  2  34  -1  36   1
M  END
>  <s_m_entry_id>  (195) 
768

>  <s_m_entry_name>  (195) 
000000610.1

>  <s_m_Source_Path>  (195) 
/Users/zaksoul/Documents/3r_UNI/2nd_SEMESTER/BSC/FRAG_RECON/RESULTS/2

>  <s_m_Source_File>  (195) 
000000610.mol2

>  <i_m_Source_File_Index>  (195) 
1

$$$$
No_0_632,No_0_633
     RDKit          3D

 42 48  0  0  1  0  0  0  0  0999 V2000
   -5.2250    3.4580  -22.0710 C   0  0  0  0  0  0  0  0  0  0  0  0
   -5.4720    3.6420  -23.4100 C   0  0  0  0  0  0  0  0  0  0  0  0
   -3.9950    3.1890  -21.7130 C   0  0  0  0  0  0  0  0  0  0  0  0
   -3.0750    3.2890  -23.8680 C   0  0  0  0  0  0  0  0  0  0  0  0
   -2.9350    3.0510  -22.4440 C   0  0  0  0  0  0  0  0  0  0  0  0
   -4.4120    3.5680  -24.4070 C   0  0  0  0  0  0  0  0  0  0  0  0
   -3.6290    3.5650  -26.5960 C   0  0  0  0  0  0  0  0  0  0  0  0
    6.0220    2.7250  -21.2050 C   0  0  0  0  0  0  0  0  0  0  0  0
    5.9170    2.8540  -23.7570 C   0  0  0  0  0  0  0  0  0  0  0  0
   -4.6450    3.6910  -25.7460 C   0  0  0  0  0  0  0  0  0  0  0  0
    2.1410    3.4550  -23.8250 C   0  0  0  0  0  0  0  0  0  0  0  0
    1.3330    4.5770  -23.5420 C   0  0  0  0  0  0  0  0  0  0  0  0
    3.1390    5.7520  -22.8470 C   0  0  0  0  0  0  0  0  0  0  0  0
    3.5400    3.6280  -23.4950 C   0  0  0  0  0  0  0  0  0  0  0  0
    1.5870    2.3420  -24.4860 C   0  0  0  0  0  0  0  0  0  0  0  0
   -0.5290    3.1860  -24.4070 C   0  0  0  0  0  0  0  0  0  0  0  0
    0.0070    4.4030  -23.8090 C   0  0  0  0  0  0  0  0  0  0  0  0
   -1.9780    3.2110  -24.7790 C   0  0  0  0  0  0  0  0  0  0  0  0
    4.1060    1.1240  -23.1810 C   0  0  0  0  0  0  0  0  0  0  0  0
    5.0210    0.7620  -22.0200 C   0  0  2  0  0  0  0  0  0  0  0  0
    6.6420    2.2770  -22.5460 C   0  0  2  0  0  0  0  0  0  0  0  0
    5.0020    1.7710  -20.8600 C   0  0  0  0  0  0  0  0  0  0  0  0
   -2.2830    3.3660  -26.2120 C   0  0  0  0  0  0  0  0  0  0  0  0
   -1.6050    2.6230  -21.8260 C   0  0  0  0  0  0  0  0  0  0  0  0
   -0.5850    2.2630  -21.3060 C   0  0  0  0  0  0  0  0  0  0  0  0
   -0.8240    5.4620  -23.4810 F   0  0  0  0  0  0  0  0  0  0  0  0
   -3.8050    2.9520  -20.3270 F   0  0  0  0  0  0  0  0  0  0  0  0
    1.8190    5.7330  -23.0120 N   0  0  0  0  0  0  0  0  0  0  0  0
    4.0240    4.7750  -23.0500 N   0  0  0  0  0  0  0  0  0  0  0  0
    0.2840    2.2690  -24.8070 N   0  0  0  0  0  0  0  0  0  0  0  0
    4.4450    2.5660  -23.6540 N   0  0  0  0  0  0  0  0  0  0  0  0
    6.4340    0.8060  -22.4860 N   0  0  0  0  0  0  0  0  0  0  0  0
   -3.7850    3.5740  -27.9880 O   0  0  0  0  0  0  0  0  0  0  0  0
    4.7080    7.0530  -21.4840 N   0  0  0  0  0  0  0  0  0  0  0  0
    3.1680    8.1850  -22.9130 N   0  0  0  0  0  0  0  0  0  0  0  0
    8.0390    9.3740  -23.2070 N   0  0  0  0  0  0  0  0  0  0  0  0
    7.1120   10.3350  -23.4070 N   0  0  0  0  0  0  0  0  0  0  0  0
    5.2940    8.2740  -20.9370 C   0  0  0  0  0  0  0  0  0  0  0  0
    3.7060    7.0720  -22.3850 C   0  0  0  0  0  0  0  0  0  0  0  0
    7.4710    8.5450  -22.2960 C   0  0  0  0  0  0  0  0  0  0  0  0
    6.0610   10.0970  -22.6680 C   0  0  0  0  0  0  0  0  0  0  0  0
    6.2450    8.9300  -21.9190 C   0  0  0  0  0  0  0  0  0  0  0  0
  1  2  2  0
  1  3  1  0
  2  6  1  0
  3  5  2  0
  3 27  1  0
  4  5  1  0
  4  6  2  0
  4 18  1  0
  5 24  1  0
  6 10  1  0
  7 10  2  0
  7 23  1  0
  7 33  1  0
 21  8  1  1
  8 22  1  0
  9 21  1  0
  9 31  1  0
 11 12  1  0
 11 14  1  0
 11 15  2  0
 12 17  2  0
 12 28  1  0
 13 28  2  0
 13 29  1  0
 13 39  1  0
 14 29  2  0
 14 31  1  0
 15 30  1  0
 16 17  1  0
 16 18  1  0
 16 30  2  0
 17 26  1  0
 18 23  2  0
 20 19  1  6
 19 31  1  0
 20 22  1  0
 20 32  1  0
 21 32  1  0
 24 25  3  0
 34 38  1  0
 34 39  2  0
 35 39  1  0
 36 37  1  0
 36 40  1  0
 37 41  2  0
 38 42  1  0
 40 42  2  0
 41 42  1  0
M  CHG  1  34   1
M  END
>  <s_m_entry_id>  (196) 
769

>  <s_m_entry_name>  (196) 
000000611.1

>  <s_m_Source_Path>  (196) 
/Users/zaksoul/Documents/3r_UNI/2nd_SEMESTER/BSC/FRAG_RECON/RESULTS/2

>  <s_m_Source_File>  (196) 
000000611.mol2

>  <i_m_Source_File_Index>  (196) 
1

$$$$
No_0_636
     RDKit          3D

 40 46  0  0  1  0  0  0  0  0999 V2000
   -4.8850    3.6240  -22.0010 C   0  0  0  0  0  0  0  0  0  0  0  0
   -5.1630    3.7920  -23.3370 C   0  0  0  0  0  0  0  0  0  0  0  0
   -3.6480    3.3520  -21.6690 C   0  0  0  0  0  0  0  0  0  0  0  0
   -2.7800    3.4170  -23.8470 C   0  0  0  0  0  0  0  0  0  0  0  0
   -2.6080    3.1970  -22.4240 C   0  0  0  0  0  0  0  0  0  0  0  0
   -4.1280    3.6970  -24.3580 C   0  0  0  0  0  0  0  0  0  0  0  0
   -3.3980    3.6600  -26.5640 C   0  0  0  0  0  0  0  0  0  0  0  0
    6.3750    2.8260  -21.3960 C   0  0  0  0  0  0  0  0  0  0  0  0
    6.2090    2.9210  -23.9460 C   0  0  0  0  0  0  0  0  0  0  0  0
   -4.3920    3.8040  -25.6930 C   0  0  0  0  0  0  0  0  0  0  0  0
    2.4370    3.5480  -23.9310 C   0  0  0  0  0  0  0  0  0  0  0  0
    1.6420    4.6790  -23.6450 C   0  0  0  0  0  0  0  0  0  0  0  0
    3.4730    5.8500  -23.0090 C   0  0  0  0  0  0  0  0  0  0  0  0
    3.8440    3.7150  -23.6380 C   0  0  0  0  0  0  0  0  0  0  0  0
    1.8600    2.4290  -24.5640 C   0  0  0  0  0  0  0  0  0  0  0  0
   -0.2490    3.2890  -24.4450 C   0  0  0  0  0  0  0  0  0  0  0  0
    0.3100    4.5100  -23.8770 C   0  0  0  0  0  0  0  0  0  0  0  0
   -1.7060    3.3180  -24.7830 C   0  0  0  0  0  0  0  0  0  0  0  0
    4.4010    1.2110  -23.3030 C   0  0  0  0  0  0  0  0  0  0  0  0
    5.3410    0.8590  -22.1600 C   0  0  2  0  0  0  0  0  0  0  0  0
    6.9590    2.3550  -22.7450 C   0  0  2  0  0  0  0  0  0  0  0  0
    5.3570    1.8830  -21.0130 C   0  0  0  0  0  0  0  0  0  0  0  0
   -2.0440    3.4570  -26.2100 C   0  0  0  0  0  0  0  0  0  0  0  0
   -1.2650    2.7680  -21.8320 C   0  0  0  0  0  0  0  0  0  0  0  0
   -0.2360    2.4080  -21.3310 C   0  0  0  0  0  0  0  0  0  0  0  0
   -0.5060    5.5790  -23.5440 F   0  0  0  0  0  0  0  0  0  0  0  0
   -3.4270    3.1320  -20.2850 F   0  0  0  0  0  0  0  0  0  0  0  0
    2.1500    5.8380  -23.1420 N   0  0  0  0  0  0  0  0  0  0  0  0
    4.3460    4.8640  -23.2200 N   0  0  0  0  0  0  0  0  0  0  0  0
    0.5480    2.3610  -24.8520 N   0  0  0  0  0  0  0  0  0  0  0  0
    4.7380    2.6450  -23.8040 N   0  0  0  0  0  0  0  0  0  0  0  0
    6.7430    0.8870  -22.6600 N   0  0  0  0  0  0  0  0  0  0  0  0
   -3.5870    3.6510  -27.9520 O   0  0  0  0  0  0  0  0  0  0  0  0
    7.2550    9.1520  -20.2320 N   0  0  0  0  0  0  0  0  0  0  0  0
    5.3990    7.4110  -22.3800 N   0  0  0  0  0  0  0  0  0  0  0  0
    4.3700    9.2810  -21.9600 N   0  0  0  0  0  0  0  0  0  0  0  0
    6.8880    9.3160  -21.6860 C   0  0  0  0  0  0  0  0  0  0  0  0
    5.5560    8.6670  -22.0090 C   0  0  0  0  0  0  0  0  0  0  0  0
    3.4470    8.3340  -22.3100 C   0  0  0  0  0  0  0  0  0  0  0  0
    4.0590    7.1730  -22.5780 C   0  0  0  0  0  0  0  0  0  0  0  0
  1  2  2  0
  1  3  1  0
  2  6  1  0
  3  5  2  0
  3 27  1  0
  4  5  1  0
  4  6  2  0
  4 18  1  0
  5 24  1  0
  6 10  1  0
  7 10  2  0
  7 23  1  0
  7 33  1  0
 21  8  1  1
  8 22  1  0
  9 21  1  0
  9 31  1  0
 11 12  1  0
 11 14  1  0
 11 15  2  0
 12 17  2  0
 12 28  1  0
 13 28  2  0
 13 29  1  0
 13 40  1  0
 14 29  2  0
 14 31  1  0
 15 30  1  0
 16 17  1  0
 16 18  1  0
 16 30  2  0
 17 26  1  0
 18 23  2  0
 20 19  1  6
 19 31  1  0
 20 22  1  0
 20 32  1  0
 21 32  1  0
 24 25  3  0
 34 37  1  0
 35 38  2  0
 35 40  1  0
 36 38  1  0
 36 39  1  0
 37 38  1  0
 39 40  2  0
M  CHG  1  34   1
M  END
>  <s_m_entry_id>  (197) 
773

>  <s_m_entry_name>  (197) 
000000615.1

>  <s_m_Source_Path>  (197) 
/Users/zaksoul/Documents/3r_UNI/2nd_SEMESTER/BSC/FRAG_RECON/RESULTS/2

>  <s_m_Source_File>  (197) 
000000615.mol2

>  <i_m_Source_File_Index>  (197) 
1

$$$$
No_0_637,No_0_638
     RDKit          3D

 40 46  0  0  1  0  0  0  0  0999 V2000
   -4.9530    3.5310  -21.9090 C   0  0  0  0  0  0  0  0  0  0  0  0
   -5.2270    3.7300  -23.2410 C   0  0  0  0  0  0  0  0  0  0  0  0
   -3.7140    3.2710  -21.5780 C   0  0  0  0  0  0  0  0  0  0  0  0
   -2.8360    3.4090  -23.7480 C   0  0  0  0  0  0  0  0  0  0  0  0
   -2.6670    3.1540  -22.3300 C   0  0  0  0  0  0  0  0  0  0  0  0
   -4.1860    3.6800  -24.2590 C   0  0  0  0  0  0  0  0  0  0  0  0
   -3.4450    3.7140  -26.4610 C   0  0  0  0  0  0  0  0  0  0  0  0
    6.3150    2.9090  -21.2630 C   0  0  0  0  0  0  0  0  0  0  0  0
    6.1610    3.0690  -23.8110 C   0  0  0  0  0  0  0  0  0  0  0  0
   -4.4450    3.8170  -25.5920 C   0  0  0  0  0  0  0  0  0  0  0  0
    2.3780    3.6310  -23.8000 C   0  0  0  0  0  0  0  0  0  0  0  0
    1.5630    4.7400  -23.4880 C   0  0  0  0  0  0  0  0  0  0  0  0
    3.3700    5.9250  -22.8120 C   0  0  0  0  0  0  0  0  0  0  0  0
    3.7810    3.8150  -23.4950 C   0  0  0  0  0  0  0  0  0  0  0  0
    1.8240    2.5200  -24.4660 C   0  0  0  0  0  0  0  0  0  0  0  0
   -0.3000    3.3400  -24.3360 C   0  0  0  0  0  0  0  0  0  0  0  0
    0.2350    4.5550  -23.7320 C   0  0  0  0  0  0  0  0  0  0  0  0
   -1.7550    3.3540  -24.6810 C   0  0  0  0  0  0  0  0  0  0  0  0
    4.3800    1.3130  -23.2240 C   0  0  0  0  0  0  0  0  0  0  0  0
    5.3190    0.9460  -22.0860 C   0  0  2  0  0  0  0  0  0  0  0  0
    6.9140    2.4840  -22.6220 C   0  0  2  0  0  0  0  0  0  0  0  0
    5.3120    1.9390  -20.9120 C   0  0  0  0  0  0  0  0  0  0  0  0
   -2.0890    3.5250  -26.1060 C   0  0  0  0  0  0  0  0  0  0  0  0
   -1.3200    2.7320  -21.7430 C   0  0  0  0  0  0  0  0  0  0  0  0
   -0.2880    2.3770  -21.2460 C   0  0  0  0  0  0  0  0  0  0  0  0
   -0.6010    5.6000  -23.3750 F   0  0  0  0  0  0  0  0  0  0  0  0
   -3.4950    3.0180  -20.1990 F   0  0  0  0  0  0  0  0  0  0  0  0
    2.0480    5.8940  -22.9520 N   0  0  0  0  0  0  0  0  0  0  0  0
    4.2610    4.9610  -23.0440 N   0  0  0  0  0  0  0  0  0  0  0  0
    0.5150    2.4380  -24.7630 N   0  0  0  0  0  0  0  0  0  0  0  0
    4.6940    2.7650  -23.6850 N   0  0  0  0  0  0  0  0  0  0  0  0
    6.7230    1.0110  -22.5770 N   0  0  0  0  0  0  0  0  0  0  0  0
   -3.6260    3.7390  -27.8500 O   0  0  0  0  0  0  0  0  0  0  0  0
    3.3810    8.4330  -22.6760 O   0  0  0  0  0  0  0  0  0  0  0  0
    7.3540    8.7460  -20.2170 N   0  0  0  0  0  0  0  0  0  0  0  0
    6.1920    9.6090  -20.6240 C   0  0  0  0  0  0  0  0  0  0  0  0
    5.0080    7.4440  -21.5750 C   0  0  0  0  0  0  0  0  0  0  0  0
    4.1330    9.3540  -22.1110 C   0  0  0  0  0  0  0  0  0  0  0  0
    5.1470    8.8400  -21.4130 C   0  0  0  0  0  0  0  0  0  0  0  0
    3.9310    7.2460  -22.3430 C   0  0  0  0  0  0  0  0  0  0  0  0
  1  2  2  0
  1  3  1  0
  2  6  1  0
  3  5  2  0
  3 27  1  0
  4  5  1  0
  4  6  2  0
  4 18  1  0
  5 24  1  0
  6 10  1  0
  7 10  2  0
  7 23  1  0
  7 33  1  0
 21  8  1  1
  8 22  1  0
  9 21  1  0
  9 31  1  0
 11 12  1  0
 11 14  1  0
 11 15  2  0
 12 17  2  0
 12 28  1  0
 13 28  2  0
 13 29  1  0
 13 40  1  0
 14 29  2  0
 14 31  1  0
 15 30  1  0
 16 17  1  0
 16 18  1  0
 16 30  2  0
 17 26  1  0
 18 23  2  0
 20 19  1  6
 19 31  1  0
 20 22  1  0
 20 32  1  0
 21 32  1  0
 24 25  3  0
 34 38  1  0
 34 40  1  0
 35 36  1  0
 36 39  1  0
 37 39  1  0
 37 40  2  0
 38 39  2  0
M  CHG  1  35   1
M  END
>  <s_m_entry_id>  (198) 
774

>  <s_m_entry_name>  (198) 
000000616.1

>  <s_m_Source_Path>  (198) 
/Users/zaksoul/Documents/3r_UNI/2nd_SEMESTER/BSC/FRAG_RECON/RESULTS/2

>  <s_m_Source_File>  (198) 
000000616.mol2

>  <i_m_Source_File_Index>  (198) 
1

$$$$
No_0_639,No_0_640
     RDKit          3D

 40 46  0  0  1  0  0  0  0  0999 V2000
   -4.9860    3.7420  -22.0780 C   0  0  0  0  0  0  0  0  0  0  0  0
   -5.2440    3.9130  -23.4180 C   0  0  0  0  0  0  0  0  0  0  0  0
   -3.7610    3.4400  -21.7310 C   0  0  0  0  0  0  0  0  0  0  0  0
   -2.8650    3.4780  -23.8980 C   0  0  0  0  0  0  0  0  0  0  0  0
   -2.7150    3.2580  -22.4730 C   0  0  0  0  0  0  0  0  0  0  0  0
   -4.2000    3.7900  -24.4260 C   0  0  0  0  0  0  0  0  0  0  0  0
   -3.4450    3.7290  -26.6240 C   0  0  0  0  0  0  0  0  0  0  0  0
    6.2420    2.6690  -21.3360 C   0  0  0  0  0  0  0  0  0  0  0  0
    6.1100    2.7620  -23.8880 C   0  0  0  0  0  0  0  0  0  0  0  0
   -4.4450    3.8990  -25.7640 C   0  0  0  0  0  0  0  0  0  0  0  0
    2.3540    3.4800  -23.9200 C   0  0  0  0  0  0  0  0  0  0  0  0
    1.5840    4.6320  -23.6460 C   0  0  0  0  0  0  0  0  0  0  0  0
    3.4350    5.7590  -22.9910 C   0  0  0  0  0  0  0  0  0  0  0  0
    3.7610    3.6140  -23.6100 C   0  0  0  0  0  0  0  0  0  0  0  0
    1.7570    2.3750  -24.5570 C   0  0  0  0  0  0  0  0  0  0  0  0
   -0.3310    3.2870  -24.4660 C   0  0  0  0  0  0  0  0  0  0  0  0
    0.2510    4.4950  -23.8940 C   0  0  0  0  0  0  0  0  0  0  0  0
   -1.7820    3.3510  -24.8220 C   0  0  0  0  0  0  0  0  0  0  0  0
    4.2530    1.0990  -23.2630 C   0  0  0  0  0  0  0  0  0  0  0  0
    5.1700    0.7260  -22.1080 C   0  0  2  0  0  0  0  0  0  0  0  0
    6.8310    2.1800  -22.6770 C   0  0  2  0  0  0  0  0  0  0  0  0
    5.1980    1.7520  -20.9630 C   0  0  0  0  0  0  0  0  0  0  0  0
   -2.1010    3.4940  -26.2530 C   0  0  0  0  0  0  0  0  0  0  0  0
   -1.3910    2.7970  -21.8640 C   0  0  0  0  0  0  0  0  0  0  0  0
   -0.3770    2.4140  -21.3500 C   0  0  0  0  0  0  0  0  0  0  0  0
   -0.5430    5.5840  -23.5730 F   0  0  0  0  0  0  0  0  0  0  0  0
   -3.5610    3.2190  -20.3440 F   0  0  0  0  0  0  0  0  0  0  0  0
    2.1130    5.7790  -23.1400 N   0  0  0  0  0  0  0  0  0  0  0  0
    4.2870    4.7520  -23.1900 N   0  0  0  0  0  0  0  0  0  0  0  0
    0.4480    2.3380  -24.8610 N   0  0  0  0  0  0  0  0  0  0  0  0
    4.6310    2.5220  -23.7640 N   0  0  0  0  0  0  0  0  0  0  0  0
    6.5780    0.7180  -22.5910 N   0  0  0  0  0  0  0  0  0  0  0  0
   -3.6170    3.7210  -28.0130 O   0  0  0  0  0  0  0  0  0  0  0  0
    4.4220    9.1880  -22.3130 O   0  0  0  0  0  0  0  0  0  0  0  0
    7.7480    9.2280  -21.4210 N   0  0  0  0  0  0  0  0  0  0  0  0
    3.5710    8.2290  -22.9130 N   0  0  0  0  0  0  0  0  0  0  0  0
    6.3940    9.2520  -20.7710 C   0  0  0  0  0  0  0  0  0  0  0  0
    5.1840    7.2310  -21.7240 C   0  0  0  0  0  0  0  0  0  0  0  0
    5.3470    8.5360  -21.6020 C   0  0  0  0  0  0  0  0  0  0  0  0
    4.0490    7.0680  -22.5570 C   0  0  0  0  0  0  0  0  0  0  0  0
  1  2  2  0
  1  3  1  0
  2  6  1  0
  3  5  2  0
  3 27  1  0
  4  5  1  0
  4  6  2  0
  4 18  1  0
  5 24  1  0
  6 10  1  0
  7 10  2  0
  7 23  1  0
  7 33  1  0
 21  8  1  1
  8 22  1  0
  9 21  1  0
  9 31  1  0
 11 12  1  0
 11 14  1  0
 11 15  2  0
 12 17  2  0
 12 28  1  0
 13 28  2  0
 13 29  1  0
 13 40  1  0
 14 29  2  0
 14 31  1  0
 15 30  1  0
 16 17  1  0
 16 18  1  0
 16 30  2  0
 17 26  1  0
 18 23  2  0
 20 19  1  6
 19 31  1  0
 20 22  1  0
 20 32  1  0
 21 32  1  0
 24 25  3  0
 34 36  1  0
 34 39  1  0
 35 37  1  0
 36 40  2  0
 37 39  1  0
 38 39  2  0
 38 40  1  0
M  CHG  1  35   1
M  END
>  <s_m_entry_id>  (199) 
776

>  <s_m_entry_name>  (199) 
000000618.1

>  <s_m_Source_Path>  (199) 
/Users/zaksoul/Documents/3r_UNI/2nd_SEMESTER/BSC/FRAG_RECON/RESULTS/2

>  <s_m_Source_File>  (199) 
000000618.mol2

>  <i_m_Source_File_Index>  (199) 
1

$$$$
No_0_642,No_0_643
     RDKit          3D

 40 46  0  0  1  0  0  0  0  0999 V2000
   -5.0920    3.4620  -21.9910 C   0  0  0  0  0  0  0  0  0  0  0  0
   -5.3630    3.6610  -23.3240 C   0  0  0  0  0  0  0  0  0  0  0  0
   -3.8540    3.2020  -21.6560 C   0  0  0  0  0  0  0  0  0  0  0  0
   -2.9710    3.3380  -23.8250 C   0  0  0  0  0  0  0  0  0  0  0  0
   -2.8050    3.0840  -22.4060 C   0  0  0  0  0  0  0  0  0  0  0  0
   -4.3190    3.6100  -24.3390 C   0  0  0  0  0  0  0  0  0  0  0  0
   -3.5730    3.6420  -26.5400 C   0  0  0  0  0  0  0  0  0  0  0  0
    6.1740    2.8340  -21.3190 C   0  0  0  0  0  0  0  0  0  0  0  0
    6.0260    2.9930  -23.8670 C   0  0  0  0  0  0  0  0  0  0  0  0
   -4.5750    3.7470  -25.6720 C   0  0  0  0  0  0  0  0  0  0  0  0
    2.2430    3.5570  -23.8650 C   0  0  0  0  0  0  0  0  0  0  0  0
    1.4280    4.6670  -23.5560 C   0  0  0  0  0  0  0  0  0  0  0  0
    3.2340    5.8510  -22.8760 C   0  0  0  0  0  0  0  0  0  0  0  0
    3.6460    3.7400  -23.5570 C   0  0  0  0  0  0  0  0  0  0  0  0
    1.6900    2.4460  -24.5310 C   0  0  0  0  0  0  0  0  0  0  0  0
   -0.4340    3.2680  -24.4070 C   0  0  0  0  0  0  0  0  0  0  0  0
    0.1010    4.4820  -23.8020 C   0  0  0  0  0  0  0  0  0  0  0  0
   -1.8880    3.2820  -24.7550 C   0  0  0  0  0  0  0  0  0  0  0  0
    4.2420    1.2380  -23.2830 C   0  0  0  0  0  0  0  0  0  0  0  0
    5.1790    0.8710  -22.1420 C   0  0  2  0  0  0  0  0  0  0  0  0
    6.7760    2.4090  -22.6760 C   0  0  2  0  0  0  0  0  0  0  0  0
    5.1700    1.8650  -20.9690 C   0  0  0  0  0  0  0  0  0  0  0  0
   -2.2190    3.4520  -26.1810 C   0  0  0  0  0  0  0  0  0  0  0  0
   -1.4600    2.6610  -21.8160 C   0  0  0  0  0  0  0  0  0  0  0  0
   -0.4290    2.3060  -21.3170 C   0  0  0  0  0  0  0  0  0  0  0  0
   -0.7350    5.5290  -23.4480 F   0  0  0  0  0  0  0  0  0  0  0  0
   -3.6390    2.9500  -20.2770 F   0  0  0  0  0  0  0  0  0  0  0  0
    1.9120    5.8210  -23.0190 N   0  0  0  0  0  0  0  0  0  0  0  0
    4.1260    4.8860  -23.1060 N   0  0  0  0  0  0  0  0  0  0  0  0
    0.3820    2.3640  -24.8320 N   0  0  0  0  0  0  0  0  0  0  0  0
    4.5590    2.6900  -23.7440 N   0  0  0  0  0  0  0  0  0  0  0  0
    6.5840    0.9350  -22.6300 N   0  0  0  0  0  0  0  0  0  0  0  0
   -3.7520    3.6670  -27.9290 O   0  0  0  0  0  0  0  0  0  0  0  0
    6.8560    8.2430  -19.8430 N   0  0  0  0  0  0  0  0  0  0  0  0
    4.8610    7.3650  -21.6300 N   0  0  0  0  0  0  0  0  0  0  0  0
    3.2340    8.3560  -22.7270 N   0  0  0  0  0  0  0  0  0  0  0  0
    6.0870    9.3210  -20.5590 C   0  0  0  0  0  0  0  0  0  0  0  0
    4.9930    8.7090  -21.4150 C   0  0  0  0  0  0  0  0  0  0  0  0
    4.0010    9.2930  -22.1000 C   0  0  0  0  0  0  0  0  0  0  0  0
    3.7960    7.1720  -22.4060 C   0  0  0  0  0  0  0  0  0  0  0  0
  1  2  2  0
  1  3  1  0
  2  6  1  0
  3  5  2  0
  3 27  1  0
  4  5  1  0
  4  6  2  0
  4 18  1  0
  5 24  1  0
  6 10  1  0
  7 10  2  0
  7 23  1  0
  7 33  1  0
 21  8  1  1
  8 22  1  0
  9 21  1  0
  9 31  1  0
 11 12  1  0
 11 14  1  0
 11 15  2  0
 12 17  2  0
 12 28  1  0
 13 28  2  0
 13 29  1  0
 13 40  1  0
 14 29  2  0
 14 31  1  0
 15 30  1  0
 16 17  1  0
 16 18  1  0
 16 30  2  0
 17 26  1  0
 18 23  2  0
 20 19  1  6
 19 31  1  0
 20 22  1  0
 20 32  1  0
 21 32  1  0
 24 25  3  0
 34 37  1  0
 35 38  1  0
 35 40  2  0
 36 39  1  0
 36 40  1  0
 37 38  1  0
 38 39  2  0
M  CHG  1  34   1
M  END
>  <s_m_entry_id>  (200) 
779

>  <s_m_entry_name>  (200) 
000000621.1

>  <s_m_Source_Path>  (200) 
/Users/zaksoul/Documents/3r_UNI/2nd_SEMESTER/BSC/FRAG_RECON/RESULTS/2

>  <s_m_Source_File>  (200) 
000000621.mol2

>  <i_m_Source_File_Index>  (200) 
1

$$$$
No_0_644
     RDKit          3D

 40 46  0  0  1  0  0  0  0  0999 V2000
   -5.1990    3.8370  -21.8630 C   0  0  0  0  0  0  0  0  0  0  0  0
   -5.4300    4.0040  -23.2080 C   0  0  0  0  0  0  0  0  0  0  0  0
   -3.9780    3.5460  -21.4900 C   0  0  0  0  0  0  0  0  0  0  0  0
   -3.0390    3.5880  -23.6380 C   0  0  0  0  0  0  0  0  0  0  0  0
   -2.9160    3.3710  -22.2100 C   0  0  0  0  0  0  0  0  0  0  0  0
   -4.3650    3.8880  -24.1940 C   0  0  0  0  0  0  0  0  0  0  0  0
   -3.5650    3.8290  -26.3750 C   0  0  0  0  0  0  0  0  0  0  0  0
    6.0210    2.8570  -20.8900 C   0  0  0  0  0  0  0  0  0  0  0  0
    5.9390    2.9440  -23.4440 C   0  0  0  0  0  0  0  0  0  0  0  0
   -4.5840    3.9930  -25.5370 C   0  0  0  0  0  0  0  0  0  0  0  0
    2.1790    3.6320  -23.5540 C   0  0  0  0  0  0  0  0  0  0  0  0
    1.3950    4.7780  -23.2980 C   0  0  0  0  0  0  0  0  0  0  0  0
    3.2230    5.9210  -22.6080 C   0  0  0  0  0  0  0  0  0  0  0  0
    3.5790    3.7780  -23.2160 C   0  0  0  0  0  0  0  0  0  0  0  0
    1.6050    2.5210  -24.2010 C   0  0  0  0  0  0  0  0  0  0  0  0
   -0.4920    3.4160  -24.1540 C   0  0  0  0  0  0  0  0  0  0  0  0
    0.0680    4.6290  -23.5720 C   0  0  0  0  0  0  0  0  0  0  0  0
   -1.9370    3.4680  -24.5390 C   0  0  0  0  0  0  0  0  0  0  0  0
    4.0840    1.2670  -22.8540 C   0  0  0  0  0  0  0  0  0  0  0  0
    4.9800    0.9040  -21.6800 C   0  0  2  0  0  0  0  0  0  0  0  0
    6.6400    2.3710  -22.2180 C   0  0  2  0  0  0  0  0  0  0  0  0
    4.9760    1.9330  -20.5360 C   0  0  0  0  0  0  0  0  0  0  0  0
   -2.2270    3.6050  -25.9770 C   0  0  0  0  0  0  0  0  0  0  0  0
   -1.6010    2.9220  -21.5730 C   0  0  0  0  0  0  0  0  0  0  0  0
   -0.5950    2.5490  -21.0380 C   0  0  0  0  0  0  0  0  0  0  0  0
   -0.7400    5.7130  -23.2700 F   0  0  0  0  0  0  0  0  0  0  0  0
   -3.8050    3.3290  -20.0980 F   0  0  0  0  0  0  0  0  0  0  0  0
    1.9050    5.9300  -22.7830 N   0  0  0  0  0  0  0  0  0  0  0  0
    4.0860    4.9210  -22.7870 N   0  0  0  0  0  0  0  0  0  0  0  0
    0.3020    2.4730  -24.5320 N   0  0  0  0  0  0  0  0  0  0  0  0
    4.4600    2.6930  -23.3490 N   0  0  0  0  0  0  0  0  0  0  0  0
    6.3970    0.9070  -22.1340 N   0  0  0  0  0  0  0  0  0  0  0  0
   -3.7090    3.8170  -27.7690 O   0  0  0  0  0  0  0  0  0  0  0  0
    3.3560    8.3980  -22.5170 O   0  0  0  0  0  0  0  0  0  0  0  0
    7.4430    9.6020  -21.3480 N   0  0  0  0  0  0  0  0  0  0  0  0
    4.8710    7.3730  -21.3810 N   0  0  0  0  0  0  0  0  0  0  0  0
    6.2710    9.2900  -20.4490 C   0  0  0  0  0  0  0  0  0  0  0  0
    5.1160    8.7050  -21.2380 C   0  0  0  0  0  0  0  0  0  0  0  0
    4.1580    9.3140  -21.9350 C   0  0  0  0  0  0  0  0  0  0  0  0
    3.8170    7.2360  -22.1630 C   0  0  0  0  0  0  0  0  0  0  0  0
  1  2  2  0
  1  3  1  0
  2  6  1  0
  3  5  2  0
  3 27  1  0
  4  5  1  0
  4  6  2  0
  4 18  1  0
  5 24  1  0
  6 10  1  0
  7 10  2  0
  7 23  1  0
  7 33  1  0
 21  8  1  1
  8 22  1  0
  9 21  1  0
  9 31  1  0
 11 12  1  0
 11 14  1  0
 11 15  2  0
 12 17  2  0
 12 28  1  0
 13 28  2  0
 13 29  1  0
 13 40  1  0
 14 29  2  0
 14 31  1  0
 15 30  1  0
 16 17  1  0
 16 18  1  0
 16 30  2  0
 17 26  1  0
 18 23  2  0
 20 19  1  6
 19 31  1  0
 20 22  1  0
 20 32  1  0
 21 32  1  0
 24 25  3  0
 34 39  1  0
 34 40  1  0
 35 37  1  0
 36 38  1  0
 36 40  2  0
 37 38  1  0
 38 39  2  0
M  CHG  1  35   1
M  END
>  <s_m_entry_id>  (201) 
781

>  <s_m_entry_name>  (201) 
000000623.1

>  <s_m_Source_Path>  (201) 
/Users/zaksoul/Documents/3r_UNI/2nd_SEMESTER/BSC/FRAG_RECON/RESULTS/2

>  <s_m_Source_File>  (201) 
000000623.mol2

>  <i_m_Source_File_Index>  (201) 
1

$$$$
No_0_645,No_0_646,No_0_647,No_0_648
     RDKit          3D

 39 44  0  0  1  0  0  0  0  0999 V2000
   -4.9190    3.7090  -22.2000 C   0  0  0  0  0  0  0  0  0  0  0  0
   -5.1700    3.8810  -23.5410 C   0  0  0  0  0  0  0  0  0  0  0  0
   -3.6900    3.4300  -21.8460 C   0  0  0  0  0  0  0  0  0  0  0  0
   -2.7800    3.4930  -24.0060 C   0  0  0  0  0  0  0  0  0  0  0  0
   -2.6360    3.2700  -22.5800 C   0  0  0  0  0  0  0  0  0  0  0  0
   -4.1170    3.7820  -24.5420 C   0  0  0  0  0  0  0  0  0  0  0  0
   -3.3450    3.7440  -26.7350 C   0  0  0  0  0  0  0  0  0  0  0  0
    6.3230    2.8490  -21.3820 C   0  0  0  0  0  0  0  0  0  0  0  0
    6.2060    2.9490  -23.9350 C   0  0  0  0  0  0  0  0  0  0  0  0
   -4.3550    3.8920  -25.8820 C   0  0  0  0  0  0  0  0  0  0  0  0
    2.4380    3.5960  -23.9910 C   0  0  0  0  0  0  0  0  0  0  0  0
    1.6440    4.7310  -23.7180 C   0  0  0  0  0  0  0  0  0  0  0  0
    3.4680    5.8910  -23.0460 C   0  0  0  0  0  0  0  0  0  0  0  0
    3.8400    3.7550  -23.6700 C   0  0  0  0  0  0  0  0  0  0  0  0
    1.8670    2.4820  -24.6360 C   0  0  0  0  0  0  0  0  0  0  0  0
   -0.2390    3.3530  -24.5570 C   0  0  0  0  0  0  0  0  0  0  0  0
    0.3150    4.5690  -23.9750 C   0  0  0  0  0  0  0  0  0  0  0  0
   -1.6890    3.3910  -24.9220 C   0  0  0  0  0  0  0  0  0  0  0  0
    4.3770    1.2480  -23.3290 C   0  0  0  0  0  0  0  0  0  0  0  0
    5.2930    0.8880  -22.1690 C   0  0  2  0  0  0  0  0  0  0  0  0
    6.9300    2.3770  -22.7210 C   0  0  2  0  0  0  0  0  0  0  0  0
    5.2930    1.9110  -21.0210 C   0  0  0  0  0  0  0  0  0  0  0  0
   -2.0000    3.5330  -26.3550 C   0  0  0  0  0  0  0  0  0  0  0  0
   -1.3080    2.8330  -21.9640 C   0  0  0  0  0  0  0  0  0  0  0  0
   -0.2900    2.4670  -21.4440 C   0  0  0  0  0  0  0  0  0  0  0  0
   -0.5010    5.6420  -23.6560 F   0  0  0  0  0  0  0  0  0  0  0  0
   -3.4960    3.2070  -20.4580 F   0  0  0  0  0  0  0  0  0  0  0  0
    2.1480    5.8860  -23.2030 N   0  0  0  0  0  0  0  0  0  0  0  0
    4.3410    4.9010  -23.2420 N   0  0  0  0  0  0  0  0  0  0  0  0
    0.5610    2.4210  -24.9500 N   0  0  0  0  0  0  0  0  0  0  0  0
    4.7310    2.6800  -23.8220 N   0  0  0  0  0  0  0  0  0  0  0  0
    6.7040    0.9100  -22.6420 N   0  0  0  0  0  0  0  0  0  0  0  0
   -3.5080    3.7380  -28.1260 O   0  0  0  0  0  0  0  0  0  0  0  0
    3.2710    8.1380  -22.4300 O   0  0  0  0  0  0  0  0  0  0  0  0
    7.9590    8.3900  -23.5410 N   0  0  0  0  0  0  0  0  0  0  0  0
    5.3860    7.2780  -22.4260 N   0  0  0  0  0  0  0  0  0  0  0  0
    6.0080    8.5350  -21.9840 C   0  0  0  0  0  0  0  0  0  0  0  0
    7.5410    8.5230  -22.1060 C   0  0  0  0  0  0  0  0  0  0  0  0
    4.0540    7.2100  -22.6010 C   0  0  0  0  0  0  0  0  0  0  0  0
  1  2  2  0
  1  3  1  0
  2  6  1  0
  3  5  2  0
  3 27  1  0
  4  5  1  0
  4  6  2  0
  4 18  1  0
  5 24  1  0
  6 10  1  0
  7 10  2  0
  7 23  1  0
  7 33  1  0
 21  8  1  1
  8 22  1  0
  9 21  1  0
  9 31  1  0
 11 12  2  0
 11 14  1  0
 11 15  1  0
 12 17  1  0
 12 28  1  0
 13 28  2  0
 13 29  1  0
 13 39  1  0
 14 29  2  0
 14 31  1  0
 15 30  2  0
 16 17  2  0
 16 18  1  0
 16 30  1  0
 17 26  1  0
 18 23  2  0
 20 19  1  6
 19 31  1  0
 20 22  1  0
 20 32  1  0
 21 32  1  0
 24 25  3  0
 34 39  2  0
 35 38  1  0
 36 37  1  0
 36 39  1  0
 37 38  1  0
M  CHG  1  35   1
M  END
>  <s_m_entry_id>  (202) 
782

>  <s_m_entry_name>  (202) 
000000624.1

>  <s_m_Source_Path>  (202) 
/Users/zaksoul/Documents/3r_UNI/2nd_SEMESTER/BSC/FRAG_RECON/RESULTS/2

>  <s_m_Source_File>  (202) 
000000624.mol2

>  <i_m_Source_File_Index>  (202) 
1

$$$$
No_0_649,No_0_650,No_0_651
     RDKit          3D

 39 44  0  0  1  0  0  0  0  0999 V2000
   -4.9060    3.6410  -21.6930 C   0  0  0  0  0  0  0  0  0  0  0  0
   -5.1900    3.8110  -23.0270 C   0  0  0  0  0  0  0  0  0  0  0  0
   -3.6730    3.3420  -21.3700 C   0  0  0  0  0  0  0  0  0  0  0  0
   -2.8210    3.3810  -23.5550 C   0  0  0  0  0  0  0  0  0  0  0  0
   -2.6420    3.1620  -22.1330 C   0  0  0  0  0  0  0  0  0  0  0  0
   -4.1660    3.6900  -24.0560 C   0  0  0  0  0  0  0  0  0  0  0  0
   -3.4560    3.6290  -26.2680 C   0  0  0  0  0  0  0  0  0  0  0  0
    6.3380    2.5910  -21.1760 C   0  0  0  0  0  0  0  0  0  0  0  0
    6.1540    2.6810  -23.7250 C   0  0  0  0  0  0  0  0  0  0  0  0
   -4.4390    3.7980  -25.3890 C   0  0  0  0  0  0  0  0  0  0  0  0
    2.3960    3.3930  -23.6820 C   0  0  0  0  0  0  0  0  0  0  0  0
    1.6300    4.5430  -23.3930 C   0  0  0  0  0  0  0  0  0  0  0  0
    3.4920    5.6740  -22.7760 C   0  0  0  0  0  0  0  0  0  0  0  0
    3.8100    3.5300  -23.4000 C   0  0  0  0  0  0  0  0  0  0  0  0
    1.7890    2.2860  -24.3060 C   0  0  0  0  0  0  0  0  0  0  0  0
   -0.2980    3.1940  -24.1740 C   0  0  0  0  0  0  0  0  0  0  0  0
    0.2930    4.4030  -23.6140 C   0  0  0  0  0  0  0  0  0  0  0  0
   -1.7570    3.2550  -24.5000 C   0  0  0  0  0  0  0  0  0  0  0  0
    4.3130    1.0150  -23.0620 C   0  0  0  0  0  0  0  0  0  0  0  0
    5.2540    0.6450  -21.9250 C   0  0  2  0  0  0  0  0  0  0  0  0
    6.9000    2.1020  -22.5290 C   0  0  2  0  0  0  0  0  0  0  0  0
    5.3020    1.6720  -20.7820 C   0  0  0  0  0  0  0  0  0  0  0  0
   -2.1040    3.3970  -25.9250 C   0  0  0  0  0  0  0  0  0  0  0  0
   -1.3050    2.7040  -21.5510 C   0  0  0  0  0  0  0  0  0  0  0  0
   -0.2800    2.3230  -21.0570 C   0  0  0  0  0  0  0  0  0  0  0  0
   -0.4960    5.4910  -23.2770 F   0  0  0  0  0  0  0  0  0  0  0  0
   -3.4450    3.1220  -19.9870 F   0  0  0  0  0  0  0  0  0  0  0  0
    2.1680    5.6920  -22.8980 N   0  0  0  0  0  0  0  0  0  0  0  0
    4.3410    4.6690  -22.9910 N   0  0  0  0  0  0  0  0  0  0  0  0
    0.4740    2.2470  -24.5840 N   0  0  0  0  0  0  0  0  0  0  0  0
    4.6780    2.4390  -23.5710 N   0  0  0  0  0  0  0  0  0  0  0  0
    6.6520    0.6400  -22.4360 N   0  0  0  0  0  0  0  0  0  0  0  0
   -3.6560    3.6200  -27.6540 O   0  0  0  0  0  0  0  0  0  0  0  0
    3.3610    7.8240  -21.9020 O   0  0  0  0  0  0  0  0  0  0  0  0
    6.0180    8.6000  -22.1740 N   0  0  0  0  0  0  0  0  0  0  0  0
    5.5970    7.2010  -22.5380 C   0  0  0  0  0  0  0  0  0  0  0  0
    7.3470    8.9610  -22.7780 C   0  0  0  0  0  0  0  0  0  0  0  0
    5.9890    8.8650  -20.6930 C   0  0  0  0  0  0  0  0  0  0  0  0
    4.1120    6.9850  -22.3540 C   0  0  0  0  0  0  0  0  0  0  0  0
  1  2  2  0
  1  3  1  0
  2  6  1  0
  3  5  2  0
  3 27  1  0
  4  5  1  0
  4  6  2  0
  4 18  1  0
  5 24  1  0
  6 10  1  0
  7 10  2  0
  7 23  1  0
  7 33  1  0
 21  8  1  1
  8 22  1  0
  9 21  1  0
  9 31  1  0
 11 12  2  0
 11 14  1  0
 11 15  1  0
 12 17  1  0
 12 28  1  0
 13 28  2  0
 13 29  1  0
 13 39  1  0
 14 29  2  0
 14 31  1  0
 15 30  2  0
 16 17  2  0
 16 18  1  0
 16 30  1  0
 17 26  1  0
 18 23  2  0
 20 19  1  6
 19 31  1  0
 20 22  1  0
 20 32  1  0
 21 32  1  0
 24 25  3  0
 34 39  2  0
 35 36  1  0
 35 37  1  0
 35 38  1  0
 36 39  1  0
M  END
>  <s_m_entry_id>  (203) 
786

>  <s_m_entry_name>  (203) 
000000628.1

>  <s_m_Source_Path>  (203) 
/Users/zaksoul/Documents/3r_UNI/2nd_SEMESTER/BSC/FRAG_RECON/RESULTS/2

>  <s_m_Source_File>  (203) 
000000628.mol2

>  <i_m_Source_File_Index>  (203) 
1

$$$$
No_0_652
     RDKit          3D

 39 44  0  0  1  0  0  0  0  0999 V2000
   -4.8980    3.6000  -21.8720 C   0  0  0  0  0  0  0  0  0  0  0  0
   -5.1920    3.7610  -23.2050 C   0  0  0  0  0  0  0  0  0  0  0  0
   -3.6570    3.3300  -21.5540 C   0  0  0  0  0  0  0  0  0  0  0  0
   -2.8150    3.3840  -23.7420 C   0  0  0  0  0  0  0  0  0  0  0  0
   -2.6260    3.1720  -22.3200 C   0  0  0  0  0  0  0  0  0  0  0  0
   -4.1690    3.6620  -24.2380 C   0  0  0  0  0  0  0  0  0  0  0  0
   -3.4660    3.6140  -26.4530 C   0  0  0  0  0  0  0  0  0  0  0  0
    6.3690    2.8080  -21.3980 C   0  0  0  0  0  0  0  0  0  0  0  0
    6.1720    2.8910  -23.9470 C   0  0  0  0  0  0  0  0  0  0  0  0
   -4.4490    3.7610  -25.5700 C   0  0  0  0  0  0  0  0  0  0  0  0
    2.4000    3.5160  -23.8900 C   0  0  0  0  0  0  0  0  0  0  0  0
    1.6090    4.6480  -23.6000 C   0  0  0  0  0  0  0  0  0  0  0  0
    3.4460    5.8230  -22.9920 C   0  0  0  0  0  0  0  0  0  0  0  0
    3.8110    3.6860  -23.6140 C   0  0  0  0  0  0  0  0  0  0  0  0
    1.8160    2.3950  -24.5100 C   0  0  0  0  0  0  0  0  0  0  0  0
   -0.2910    3.2540  -24.3700 C   0  0  0  0  0  0  0  0  0  0  0  0
    0.2740    4.4780  -23.8150 C   0  0  0  0  0  0  0  0  0  0  0  0
   -1.7520    3.2820  -24.6910 C   0  0  0  0  0  0  0  0  0  0  0  0
    4.3730    1.1840  -23.2740 C   0  0  0  0  0  0  0  0  0  0  0  0
    5.3260    0.8370  -22.1400 C   0  0  2  0  0  0  0  0  0  0  0  0
    6.9370    2.3310  -22.7520 C   0  0  2  0  0  0  0  0  0  0  0  0
    5.3560    1.8670  -20.9990 C   0  0  0  0  0  0  0  0  0  0  0  0
   -2.1080    3.4120  -26.1140 C   0  0  0  0  0  0  0  0  0  0  0  0
   -1.2760    2.7460  -21.7430 C   0  0  0  0  0  0  0  0  0  0  0  0
   -0.2410    2.3890  -21.2520 C   0  0  0  0  0  0  0  0  0  0  0  0
   -0.5380    5.5480  -23.4770 F   0  0  0  0  0  0  0  0  0  0  0  0
   -3.4190    3.1170  -20.1710 F   0  0  0  0  0  0  0  0  0  0  0  0
    2.1220    5.8100  -23.1090 N   0  0  0  0  0  0  0  0  0  0  0  0
    4.3180    4.8370  -23.2090 N   0  0  0  0  0  0  0  0  0  0  0  0
    0.5010    2.3250  -24.7820 N   0  0  0  0  0  0  0  0  0  0  0  0
    4.7030    2.6150  -23.7860 N   0  0  0  0  0  0  0  0  0  0  0  0
    6.7220    0.8630  -22.6570 N   0  0  0  0  0  0  0  0  0  0  0  0
   -3.6720    3.5970  -27.8380 O   0  0  0  0  0  0  0  0  0  0  0  0
    3.3450    8.1390  -22.7070 O   0  0  0  0  0  0  0  0  0  0  0  0
    6.1850    8.4620  -22.3040 N   0  0  0  0  0  0  0  0  0  0  0  0
    5.4860    7.1380  -22.1280 C   0  0  0  0  0  0  0  0  0  0  0  0
    5.5710    9.6200  -21.5710 C   0  0  0  0  0  0  0  0  0  0  0  0
    6.5520   10.7980  -21.5030 C   0  0  0  0  0  0  0  0  0  0  0  0
    4.0380    7.1480  -22.5750 C   0  0  0  0  0  0  0  0  0  0  0  0
  1  2  2  0
  1  3  1  0
  2  6  1  0
  3  5  2  0
  3 27  1  0
  4  5  1  0
  4  6  2  0
  4 18  1  0
  5 24  1  0
  6 10  1  0
  7 10  2  0
  7 23  1  0
  7 33  1  0
 21  8  1  1
  8 22  1  0
  9 21  1  0
  9 31  1  0
 11 12  2  0
 11 14  1  0
 11 15  1  0
 12 17  1  0
 12 28  1  0
 13 28  2  0
 13 29  1  0
 13 39  1  0
 14 29  2  0
 14 31  1  0
 15 30  2  0
 16 17  2  0
 16 18  1  0
 16 30  1  0
 17 26  1  0
 18 23  2  0
 20 19  1  6
 19 31  1  0
 20 22  1  0
 20 32  1  0
 21 32  1  0
 24 25  3  0
 34 39  2  0
 35 36  1  0
 35 37  1  0
 36 39  1  0
 37 38  1  0
M  END
>  <s_m_entry_id>  (204) 
789

>  <s_m_entry_name>  (204) 
000000631.1

>  <s_m_Source_Path>  (204) 
/Users/zaksoul/Documents/3r_UNI/2nd_SEMESTER/BSC/FRAG_RECON/RESULTS/2

>  <s_m_Source_File>  (204) 
000000631.mol2

>  <i_m_Source_File_Index>  (204) 
1

$$$$
No_0_653,No_0_654,No_0_655,No_0_656,No_0_657,No_0_658,No_0_659,No_0_660,No_0_661,No_0_662,No_0_663,No_0_664,No_0_665,No_0_666
     RDKit          3D

 39 44  0  0  1  0  0  0  0  0999 V2000
   -4.9520    3.8660  -21.9850 C   0  0  0  0  0  0  0  0  0  0  0  0
   -5.2120    4.0610  -23.3210 C   0  0  0  0  0  0  0  0  0  0  0  0
   -3.7210    3.5800  -21.6430 C   0  0  0  0  0  0  0  0  0  0  0  0
   -2.8260    3.6800  -23.8080 C   0  0  0  0  0  0  0  0  0  0  0  0
   -2.6720    3.4320  -22.3880 C   0  0  0  0  0  0  0  0  0  0  0  0
   -4.1650    3.9790  -24.3300 C   0  0  0  0  0  0  0  0  0  0  0  0
   -3.4080    3.9780  -26.5280 C   0  0  0  0  0  0  0  0  0  0  0  0
    6.2940    2.9830  -21.2570 C   0  0  0  0  0  0  0  0  0  0  0  0
    6.1610    3.1280  -23.8060 C   0  0  0  0  0  0  0  0  0  0  0  0
   -4.4120    4.1120  -25.6660 C   0  0  0  0  0  0  0  0  0  0  0  0
    2.3930    3.7780  -23.8260 C   0  0  0  0  0  0  0  0  0  0  0  0
    1.6020    4.9090  -23.5280 C   0  0  0  0  0  0  0  0  0  0  0  0
    3.4320    6.0560  -22.8480 C   0  0  0  0  0  0  0  0  0  0  0  0
    3.7970    3.9310  -23.5120 C   0  0  0  0  0  0  0  0  0  0  0  0
    1.8160    2.6760  -24.4870 C   0  0  0  0  0  0  0  0  0  0  0  0
   -0.2880    3.5470  -24.3780 C   0  0  0  0  0  0  0  0  0  0  0  0
    0.2710    4.7530  -23.7800 C   0  0  0  0  0  0  0  0  0  0  0  0
   -1.7400    3.5920  -24.7330 C   0  0  0  0  0  0  0  0  0  0  0  0
    4.3350    1.4180  -23.2180 C   0  0  0  0  0  0  0  0  0  0  0  0
    5.2580    1.0380  -22.0710 C   0  0  2  0  0  0  0  0  0  0  0  0
    6.8920    2.5340  -22.6070 C   0  0  2  0  0  0  0  0  0  0  0  0
    5.2660    2.0400  -20.9040 C   0  0  0  0  0  0  0  0  0  0  0  0
   -2.0600    3.7600  -26.1620 C   0  0  0  0  0  0  0  0  0  0  0  0
   -1.3400    2.9830  -21.7880 C   0  0  0  0  0  0  0  0  0  0  0  0
   -0.3190    2.6080  -21.2810 C   0  0  0  0  0  0  0  0  0  0  0  0
   -0.5420    5.8210  -23.4360 F   0  0  0  0  0  0  0  0  0  0  0  0
   -3.5180    3.3330  -20.2610 F   0  0  0  0  0  0  0  0  0  0  0  0
    2.1100    6.0550  -22.9970 N   0  0  0  0  0  0  0  0  0  0  0  0
    4.3020    5.0690  -23.0670 N   0  0  0  0  0  0  0  0  0  0  0  0
    0.5080    2.6220  -24.7930 N   0  0  0  0  0  0  0  0  0  0  0  0
    4.6870    2.8590  -23.6880 N   0  0  0  0  0  0  0  0  0  0  0  0
    6.6660    1.0660  -22.5520 N   0  0  0  0  0  0  0  0  0  0  0  0
   -3.5800    3.9970  -27.9180 O   0  0  0  0  0  0  0  0  0  0  0  0
    5.8750    8.8040  -20.0240 O   0  0  0  0  0  0  0  0  0  0  0  0
    3.4110    7.8170  -21.0790 N   0  0  0  0  0  0  0  0  0  0  0  0
    5.4760   10.7100  -21.1830 N   0  0  0  0  0  0  0  0  0  0  0  0
    3.6300    9.2670  -20.7500 C   0  0  0  0  0  0  0  0  0  0  0  0
    4.0270    7.3800  -22.3810 C   0  0  0  0  0  0  0  0  0  0  0  0
    5.1080    9.5580  -20.6030 C   0  0  0  0  0  0  0  0  0  0  0  0
  1  2  2  0
  1  3  1  0
  2  6  1  0
  3  5  2  0
  3 27  1  0
  4  5  1  0
  4  6  2  0
  4 18  1  0
  5 24  1  0
  6 10  1  0
  7 10  2  0
  7 23  1  0
  7 33  1  0
 21  8  1  1
  8 22  1  0
  9 21  1  0
  9 31  1  0
 11 12  2  0
 11 14  1  0
 11 15  1  0
 12 17  1  0
 12 28  1  0
 13 28  2  0
 13 29  1  0
 13 38  1  0
 14 29  2  0
 14 31  1  0
 15 30  2  0
 16 17  2  0
 16 18  1  0
 16 30  1  0
 17 26  1  0
 18 23  2  0
 20 19  1  6
 19 31  1  0
 20 22  1  0
 20 32  1  0
 21 32  1  0
 24 25  3  0
 34 39  2  0
 35 37  1  0
 35 38  1  0
 36 39  1  0
 37 39  1  0
M  END
>  <s_m_entry_id>  (205) 
790

>  <s_m_entry_name>  (205) 
000000632.1

>  <s_m_Source_Path>  (205) 
/Users/zaksoul/Documents/3r_UNI/2nd_SEMESTER/BSC/FRAG_RECON/RESULTS/2

>  <s_m_Source_File>  (205) 
000000632.mol2

>  <i_m_Source_File_Index>  (205) 
1

$$$$
No_0_667,No_0_668,No_0_669,No_0_670,No_0_671,No_0_672,No_0_673,No_0_674,No_0_675,No_0_676
     RDKit          3D

 39 44  0  0  1  0  0  0  0  0999 V2000
   -5.0340    3.6380  -22.1260 C   0  0  0  0  0  0  0  0  0  0  0  0
   -5.2910    3.8080  -23.4650 C   0  0  0  0  0  0  0  0  0  0  0  0
   -3.8020    3.3740  -21.7740 C   0  0  0  0  0  0  0  0  0  0  0  0
   -2.8970    3.4510  -23.9360 C   0  0  0  0  0  0  0  0  0  0  0  0
   -2.7470    3.2290  -22.5110 C   0  0  0  0  0  0  0  0  0  0  0  0
   -4.2380    3.7230  -24.4690 C   0  0  0  0  0  0  0  0  0  0  0  0
   -3.4720    3.6970  -26.6630 C   0  0  0  0  0  0  0  0  0  0  0  0
    6.2190    2.9190  -21.3330 C   0  0  0  0  0  0  0  0  0  0  0  0
    6.0960    3.0200  -23.8850 C   0  0  0  0  0  0  0  0  0  0  0  0
   -4.4810    3.8310  -25.8080 C   0  0  0  0  0  0  0  0  0  0  0  0
    2.3190    3.6190  -23.9330 C   0  0  0  0  0  0  0  0  0  0  0  0
    1.5120    4.7440  -23.6570 C   0  0  0  0  0  0  0  0  0  0  0  0
    3.3230    5.9260  -22.9870 C   0  0  0  0  0  0  0  0  0  0  0  0
    3.7200    3.7960  -23.6150 C   0  0  0  0  0  0  0  0  0  0  0  0
    1.7610    2.4990  -24.5780 C   0  0  0  0  0  0  0  0  0  0  0  0
   -0.3560    3.3430  -24.4920 C   0  0  0  0  0  0  0  0  0  0  0  0
    0.1850    4.5660  -23.9110 C   0  0  0  0  0  0  0  0  0  0  0  0
   -1.8070    3.3630  -24.8550 C   0  0  0  0  0  0  0  0  0  0  0  0
    4.2900    1.2960  -23.2780 C   0  0  0  0  0  0  0  0  0  0  0  0
    5.2120    0.9470  -22.1200 C   0  0  2  0  0  0  0  0  0  0  0  0
    6.8290    2.4560  -22.6740 C   0  0  2  0  0  0  0  0  0  0  0  0
    5.2020    1.9680  -20.9700 C   0  0  0  0  0  0  0  0  0  0  0  0
   -2.1220    3.5030  -26.2870 C   0  0  0  0  0  0  0  0  0  0  0  0
   -1.4120    2.8070  -21.8980 C   0  0  0  0  0  0  0  0  0  0  0  0
   -0.3890    2.4540  -21.3810 C   0  0  0  0  0  0  0  0  0  0  0  0
   -0.6440    5.6280  -23.5890 F   0  0  0  0  0  0  0  0  0  0  0  0
   -3.6020    3.1520  -20.3870 F   0  0  0  0  0  0  0  0  0  0  0  0
    2.0020    5.9050  -23.1420 N   0  0  0  0  0  0  0  0  0  0  0  0
    4.2070    4.9480  -23.1860 N   0  0  0  0  0  0  0  0  0  0  0  0
    0.4550    2.4220  -24.8880 N   0  0  0  0  0  0  0  0  0  0  0  0
    4.6250    2.7330  -23.7690 N   0  0  0  0  0  0  0  0  0  0  0  0
    6.6220    0.9860  -22.5960 N   0  0  0  0  0  0  0  0  0  0  0  0
   -3.6370    3.6910  -28.0540 O   0  0  0  0  0  0  0  0  0  0  0  0
    6.1570    7.4870  -20.5920 O   0  0  0  0  0  0  0  0  0  0  0  0
    6.2680    9.6050  -19.7490 O   0  0  0  0  0  0  0  0  0  0  0  0
    3.5610    7.5490  -21.0980 N   0  0  0  0  0  0  0  0  0  0  0  0
    3.8980    7.2650  -22.5390 C   0  0  0  0  0  0  0  0  0  0  0  0
    4.1680    8.8010  -20.5290 C   0  0  0  0  0  0  0  0  0  0  0  0
    5.6450    8.6170  -20.2730 C   0  0  0  0  0  0  0  0  0  0  0  0
  1  2  2  0
  1  3  1  0
  2  6  1  0
  3  5  2  0
  3 27  1  0
  4  5  1  0
  4  6  2  0
  4 18  1  0
  5 24  1  0
  6 10  1  0
  7 10  2  0
  7 23  1  0
  7 33  1  0
 21  8  1  1
  8 22  1  0
  9 21  1  0
  9 31  1  0
 11 12  2  0
 11 14  1  0
 11 15  1  0
 12 17  1  0
 12 28  1  0
 13 28  2  0
 13 29  1  0
 13 37  1  0
 14 29  2  0
 14 31  1  0
 15 30  2  0
 16 17  2  0
 16 18  1  0
 16 30  1  0
 17 26  1  0
 18 23  2  0
 20 19  1  6
 19 31  1  0
 20 22  1  0
 20 32  1  0
 21 32  1  0
 24 25  3  0
 34 39  1  0
 35 39  2  0
 36 37  1  0
 36 38  1  0
 38 39  1  0
M  CHG  2  34  -1  36   1
M  END
>  <s_m_entry_id>  (206) 
804

>  <s_m_entry_name>  (206) 
000000646.1

>  <s_m_Source_Path>  (206) 
/Users/zaksoul/Documents/3r_UNI/2nd_SEMESTER/BSC/FRAG_RECON/RESULTS/2

>  <s_m_Source_File>  (206) 
000000646.mol2

>  <i_m_Source_File_Index>  (206) 
1

$$$$
No_0_677,No_0_678,No_0_679,No_0_680,No_0_681,No_0_682,No_0_683,No_0_684
     RDKit          3D

 38 43  0  0  1  0  0  0  0  0999 V2000
   -4.9850    3.4600  -21.7830 C   0  0  0  0  0  0  0  0  0  0  0  0
   -5.2990    3.6170  -23.1120 C   0  0  0  0  0  0  0  0  0  0  0  0
   -3.7290    3.2510  -21.4780 C   0  0  0  0  0  0  0  0  0  0  0  0
   -2.9120    3.3660  -23.6730 C   0  0  0  0  0  0  0  0  0  0  0  0
   -2.6980    3.1520  -22.2550 C   0  0  0  0  0  0  0  0  0  0  0  0
   -4.2830    3.5780  -24.1550 C   0  0  0  0  0  0  0  0  0  0  0  0
   -3.5990    3.5840  -26.3760 C   0  0  0  0  0  0  0  0  0  0  0  0
    6.3110    3.2410  -21.4180 C   0  0  0  0  0  0  0  0  0  0  0  0
    6.0870    3.3340  -23.9640 C   0  0  0  0  0  0  0  0  0  0  0  0
   -4.5800    3.6740  -25.4830 C   0  0  0  0  0  0  0  0  0  0  0  0
    2.2880    3.7660  -23.8670 C   0  0  0  0  0  0  0  0  0  0  0  0
    1.4430    4.8540  -23.5600 C   0  0  0  0  0  0  0  0  0  0  0  0
    3.2240    6.1160  -22.9590 C   0  0  0  0  0  0  0  0  0  0  0  0
    3.6910    4.0050  -23.6030 C   0  0  0  0  0  0  0  0  0  0  0  0
    1.7560    2.6210  -24.4920 C   0  0  0  0  0  0  0  0  0  0  0  0
   -0.3910    3.3700  -24.3260 C   0  0  0  0  0  0  0  0  0  0  0  0
    0.1170    4.6170  -23.7650 C   0  0  0  0  0  0  0  0  0  0  0  0
   -1.8540    3.3260  -24.6330 C   0  0  0  0  0  0  0  0  0  0  0  0
    4.3840    1.5320  -23.2900 C   0  0  0  0  0  0  0  0  0  0  0  0
    5.3640    1.2250  -22.1680 C   0  0  2  0  0  0  0  0  0  0  0  0
    6.8900    2.8040  -22.7820 C   0  0  2  0  0  0  0  0  0  0  0  0
    5.3520    2.2460  -21.0180 C   0  0  0  0  0  0  0  0  0  0  0  0
   -2.2300    3.4500  -26.0520 C   0  0  0  0  0  0  0  0  0  0  0  0
   -1.3230    2.7900  -21.6940 C   0  0  0  0  0  0  0  0  0  0  0  0
   -0.2660    2.4830  -21.2160 C   0  0  0  0  0  0  0  0  0  0  0  0
   -0.7460    5.6410  -23.4100 F   0  0  0  0  0  0  0  0  0  0  0  0
   -3.4670    3.0390  -20.1000 F   0  0  0  0  0  0  0  0  0  0  0  0
    1.9010    6.0360  -23.0640 N   0  0  0  0  0  0  0  0  0  0  0  0
    4.1420    5.1770  -23.1920 N   0  0  0  0  0  0  0  0  0  0  0  0
    0.4440    2.4860  -24.7530 N   0  0  0  0  0  0  0  0  0  0  0  0
    4.6360    2.9820  -23.7930 N   0  0  0  0  0  0  0  0  0  0  0  0
    6.7520    1.3270  -22.6970 N   0  0  0  0  0  0  0  0  0  0  0  0
   -3.8170    3.5690  -27.7600 O   0  0  0  0  0  0  0  0  0  0  0  0
    6.5890    8.6140  -21.0910 O   0  0  0  0  0  0  0  0  0  0  0  0
    3.7910    7.5940  -21.0310 N   0  0  0  0  0  0  0  0  0  0  0  0
    4.2160    8.9390  -20.5010 C   0  0  0  0  0  0  0  0  0  0  0  0
    3.7560    7.4790  -22.5320 C   0  0  0  0  0  0  0  0  0  0  0  0
    5.6810    8.9450  -20.0300 C   0  0  0  0  0  0  0  0  0  0  0  0
  1  2  2  0
  1  3  1  0
  2  6  1  0
  3  5  2  0
  3 27  1  0
  4  5  1  0
  4  6  2  0
  4 18  1  0
  5 24  1  0
  6 10  1  0
  7 10  2  0
  7 23  1  0
  7 33  1  0
 21  8  1  1
  8 22  1  0
  9 21  1  0
  9 31  1  0
 11 12  2  0
 11 14  1  0
 11 15  1  0
 12 17  1  0
 12 28  1  0
 13 28  2  0
 13 29  1  0
 13 37  1  0
 14 29  2  0
 14 31  1  0
 15 30  2  0
 16 17  2  0
 16 18  1  0
 16 30  1  0
 17 26  1  0
 18 23  2  0
 20 19  1  6
 19 31  1  0
 20 22  1  0
 20 32  1  0
 21 32  1  0
 24 25  3  0
 34 38  1  0
 35 36  1  0
 35 37  1  0
 36 38  1  0
M  CHG  1  35   1
M  END
>  <s_m_entry_id>  (207) 
814

>  <s_m_entry_name>  (207) 
000000656.1

>  <s_m_Source_Path>  (207) 
/Users/zaksoul/Documents/3r_UNI/2nd_SEMESTER/BSC/FRAG_RECON/RESULTS/2

>  <s_m_Source_File>  (207) 
000000656.mol2

>  <i_m_Source_File_Index>  (207) 
1

$$$$
No_0_685,No_0_686,No_0_687,No_0_688,No_0_689,No_0_690,No_0_691
     RDKit          3D

 38 43  0  0  1  0  0  0  0  0999 V2000
   -5.0940    3.6350  -22.1230 C   0  0  0  0  0  0  0  0  0  0  0  0
   -5.3560    3.7750  -23.4650 C   0  0  0  0  0  0  0  0  0  0  0  0
   -3.8580    3.3880  -21.7700 C   0  0  0  0  0  0  0  0  0  0  0  0
   -2.9610    3.4290  -23.9360 C   0  0  0  0  0  0  0  0  0  0  0  0
   -2.8050    3.2370  -22.5070 C   0  0  0  0  0  0  0  0  0  0  0  0
   -4.3050    3.6790  -24.4700 C   0  0  0  0  0  0  0  0  0  0  0  0
   -3.5440    3.6160  -26.6650 C   0  0  0  0  0  0  0  0  0  0  0  0
    6.1670    3.0260  -21.3490 C   0  0  0  0  0  0  0  0  0  0  0  0
    6.0360    3.0740  -23.9030 C   0  0  0  0  0  0  0  0  0  0  0  0
   -4.5520    3.7580  -25.8100 C   0  0  0  0  0  0  0  0  0  0  0  0
    2.2540    3.6410  -23.9510 C   0  0  0  0  0  0  0  0  0  0  0  0
    1.4380    4.7640  -23.6950 C   0  0  0  0  0  0  0  0  0  0  0  0
    3.2410    5.9750  -23.0550 C   0  0  0  0  0  0  0  0  0  0  0  0
    3.6550    3.8360  -23.6410 C   0  0  0  0  0  0  0  0  0  0  0  0
    1.7030    2.5030  -24.5720 C   0  0  0  0  0  0  0  0  0  0  0  0
   -0.4200    3.3310  -24.4970 C   0  0  0  0  0  0  0  0  0  0  0  0
    0.1120    4.5700  -23.9420 C   0  0  0  0  0  0  0  0  0  0  0  0
   -1.8720    3.3320  -24.8560 C   0  0  0  0  0  0  0  0  0  0  0  0
    4.2460    1.3480  -23.2550 C   0  0  0  0  0  0  0  0  0  0  0  0
    5.1750    1.0300  -22.0930 C   0  0  2  0  0  0  0  0  0  0  0  0
    6.7770    2.5410  -22.6820 C   0  0  2  0  0  0  0  0  0  0  0  0
    5.1590    2.0740  -20.9640 C   0  0  0  0  0  0  0  0  0  0  0  0
   -2.1930    3.4400  -26.2890 C   0  0  0  0  0  0  0  0  0  0  0  0
   -1.4640    2.8390  -21.8900 C   0  0  0  0  0  0  0  0  0  0  0  0
   -0.4370    2.5050  -21.3680 C   0  0  0  0  0  0  0  0  0  0  0  0
   -0.7250    5.6320  -23.6390 F   0  0  0  0  0  0  0  0  0  0  0  0
   -3.6530    3.1960  -20.3790 F   0  0  0  0  0  0  0  0  0  0  0  0
    1.9200    5.9400  -23.2060 N   0  0  0  0  0  0  0  0  0  0  0  0
    4.1330    5.0000  -23.2370 N   0  0  0  0  0  0  0  0  0  0  0  0
    0.3970    2.4090  -24.8770 N   0  0  0  0  0  0  0  0  0  0  0  0
    4.5680    2.7780  -23.7770 N   0  0  0  0  0  0  0  0  0  0  0  0
    6.5830    1.0720  -22.5740 N   0  0  0  0  0  0  0  0  0  0  0  0
   -3.7140    3.5800  -28.0550 O   0  0  0  0  0  0  0  0  0  0  0  0
    5.7890   10.3130  -20.0090 F   0  0  0  0  0  0  0  0  0  0  0  0
    3.4770    7.6470  -21.2020 N   0  0  0  0  0  0  0  0  0  0  0  0
    3.9140    9.0040  -20.7160 C   0  0  0  0  0  0  0  0  0  0  0  0
    3.8060    7.3280  -22.6350 C   0  0  0  0  0  0  0  0  0  0  0  0
    5.4470    9.1440  -20.6800 C   0  0  0  0  0  0  0  0  0  0  0  0
  1  2  2  0
  1  3  1  0
  2  6  1  0
  3  5  2  0
  3 27  1  0
  4  5  1  0
  4  6  2  0
  4 18  1  0
  5 24  1  0
  6 10  1  0
  7 10  2  0
  7 23  1  0
  7 33  1  0
 21  8  1  1
  8 22  1  0
  9 21  1  0
  9 31  1  0
 11 12  2  0
 11 14  1  0
 11 15  1  0
 12 17  1  0
 12 28  1  0
 13 28  2  0
 13 29  1  0
 13 37  1  0
 14 29  2  0
 14 31  1  0
 15 30  2  0
 16 17  2  0
 16 18  1  0
 16 30  1  0
 17 26  1  0
 18 23  2  0
 20 19  1  6
 19 31  1  0
 20 22  1  0
 20 32  1  0
 21 32  1  0
 24 25  3  0
 34 38  1  0
 35 36  1  0
 35 37  1  0
 36 38  1  0
M  CHG  1  35   1
M  END
>  <s_m_entry_id>  (208) 
822

>  <s_m_entry_name>  (208) 
000000664.1

>  <s_m_Source_Path>  (208) 
/Users/zaksoul/Documents/3r_UNI/2nd_SEMESTER/BSC/FRAG_RECON/RESULTS/2

>  <s_m_Source_File>  (208) 
000000664.mol2

>  <i_m_Source_File_Index>  (208) 
1

$$$$
No_0_692,No_0_693,No_0_694,No_0_695,No_0_696
     RDKit          3D

 39 44  0  0  1  0  0  0  0  0999 V2000
   -5.3980    3.2840  -21.9540 C   0  0  0  0  0  0  0  0  0  0  0  0
   -5.6730    3.4760  -23.2870 C   0  0  0  0  0  0  0  0  0  0  0  0
   -4.1570    3.0300  -21.6220 C   0  0  0  0  0  0  0  0  0  0  0  0
   -3.2810    3.1630  -23.7930 C   0  0  0  0  0  0  0  0  0  0  0  0
   -3.1100    2.9150  -22.3740 C   0  0  0  0  0  0  0  0  0  0  0  0
   -4.6320    3.4260  -24.3040 C   0  0  0  0  0  0  0  0  0  0  0  0
   -3.8920    3.4540  -26.5080 C   0  0  0  0  0  0  0  0  0  0  0  0
    5.8730    2.7090  -21.3110 C   0  0  0  0  0  0  0  0  0  0  0  0
    5.7170    2.8580  -23.8590 C   0  0  0  0  0  0  0  0  0  0  0  0
   -4.8930    3.5570  -25.6380 C   0  0  0  0  0  0  0  0  0  0  0  0
    1.9320    3.4050  -23.8490 C   0  0  0  0  0  0  0  0  0  0  0  0
    1.1130    4.5120  -23.5410 C   0  0  0  0  0  0  0  0  0  0  0  0
    2.9150    5.7070  -22.8700 C   0  0  0  0  0  0  0  0  0  0  0  0
    3.3350    3.5950  -23.5450 C   0  0  0  0  0  0  0  0  0  0  0  0
    1.3820    2.2890  -24.5090 C   0  0  0  0  0  0  0  0  0  0  0  0
   -0.7450    3.1020  -24.3820 C   0  0  0  0  0  0  0  0  0  0  0  0
   -0.2150    4.3210  -23.7830 C   0  0  0  0  0  0  0  0  0  0  0  0
   -2.2010    3.1080  -24.7260 C   0  0  0  0  0  0  0  0  0  0  0  0
    3.9430    1.0970  -23.2640 C   0  0  0  0  0  0  0  0  0  0  0  0
    4.8840    0.7380  -22.1250 C   0  0  2  0  0  0  0  0  0  0  0  0
    6.4730    2.2810  -22.6680 C   0  0  2  0  0  0  0  0  0  0  0  0
    4.8740    1.7360  -20.9550 C   0  0  0  0  0  0  0  0  0  0  0  0
   -2.5360    3.2720  -26.1520 C   0  0  0  0  0  0  0  0  0  0  0  0
   -1.7620    2.5000  -21.7860 C   0  0  0  0  0  0  0  0  0  0  0  0
   -0.7280    2.1510  -21.2890 C   0  0  0  0  0  0  0  0  0  0  0  0
   -1.0540    5.3640  -23.4300 F   0  0  0  0  0  0  0  0  0  0  0  0
   -3.9370    2.7840  -20.2420 F   0  0  0  0  0  0  0  0  0  0  0  0
    1.5930    5.6700  -23.0090 N   0  0  0  0  0  0  0  0  0  0  0  0
    3.8100    4.7450  -23.0990 N   0  0  0  0  0  0  0  0  0  0  0  0
    0.0730    2.2000  -24.8060 N   0  0  0  0  0  0  0  0  0  0  0  0
    4.2520    2.5480  -23.7310 N   0  0  0  0  0  0  0  0  0  0  0  0
    6.2880    0.8070  -22.6170 N   0  0  0  0  0  0  0  0  0  0  0  0
   -4.0740    3.4730  -27.8960 O   0  0  0  0  0  0  0  0  0  0  0  0
    7.5720    9.4820  -19.9530 F   0  0  0  0  0  0  0  0  0  0  0  0
    4.5040    6.8410  -21.3180 N   0  0  0  0  0  0  0  0  0  0  0  0
    6.1660    8.7130  -21.7330 C   0  0  0  0  0  0  0  0  0  0  0  0
    3.4780    7.0450  -22.4020 C   0  0  0  0  0  0  0  0  0  0  0  0
    5.1240    8.0990  -20.7700 C   0  0  0  0  0  0  0  0  0  0  0  0
    7.5690    8.6990  -21.1030 C   0  0  0  0  0  0  0  0  0  0  0  0
  1  2  2  0
  1  3  1  0
  2  6  1  0
  3  5  2  0
  3 27  1  0
  4  5  1  0
  4  6  2  0
  4 18  1  0
  5 24  1  0
  6 10  1  0
  7 10  2  0
  7 23  1  0
  7 33  1  0
 21  8  1  1
  8 22  1  0
  9 21  1  0
  9 31  1  0
 11 12  2  0
 11 14  1  0
 11 15  1  0
 12 17  1  0
 12 28  1  0
 13 28  2  0
 13 29  1  0
 13 37  1  0
 14 29  2  0
 14 31  1  0
 15 30  2  0
 16 17  2  0
 16 18  1  0
 16 30  1  0
 17 26  1  0
 18 23  2  0
 20 19  1  6
 19 31  1  0
 20 22  1  0
 20 32  1  0
 21 32  1  0
 24 25  3  0
 34 39  1  0
 35 37  1  0
 35 38  1  0
 36 38  1  0
 36 39  1  0
M  CHG  1  35   1
M  END
>  <s_m_entry_id>  (209) 
829

>  <s_m_entry_name>  (209) 
000000671.1

>  <s_m_Source_Path>  (209) 
/Users/zaksoul/Documents/3r_UNI/2nd_SEMESTER/BSC/FRAG_RECON/RESULTS/2

>  <s_m_Source_File>  (209) 
000000671.mol2

>  <i_m_Source_File_Index>  (209) 
1

$$$$
No_0_697,No_0_698,No_0_699,No_0_700,No_0_701,No_0_702
     RDKit          3D

 38 43  0  0  1  0  0  0  0  0999 V2000
   -5.1810    3.6090  -21.8530 C   0  0  0  0  0  0  0  0  0  0  0  0
   -5.4520    3.8050  -23.1860 C   0  0  0  0  0  0  0  0  0  0  0  0
   -3.9420    3.3510  -21.5190 C   0  0  0  0  0  0  0  0  0  0  0  0
   -3.0590    3.4860  -23.6870 C   0  0  0  0  0  0  0  0  0  0  0  0
   -2.8930    3.2340  -22.2690 C   0  0  0  0  0  0  0  0  0  0  0  0
   -4.4090    3.7540  -24.2010 C   0  0  0  0  0  0  0  0  0  0  0  0
   -3.6630    3.7850  -26.4030 C   0  0  0  0  0  0  0  0  0  0  0  0
    6.0870    3.0010  -21.1820 C   0  0  0  0  0  0  0  0  0  0  0  0
    5.9380    3.1560  -23.7310 C   0  0  0  0  0  0  0  0  0  0  0  0
   -4.6650    3.8890  -25.5350 C   0  0  0  0  0  0  0  0  0  0  0  0
    2.1540    3.7130  -23.7290 C   0  0  0  0  0  0  0  0  0  0  0  0
    1.3370    4.8230  -23.4210 C   0  0  0  0  0  0  0  0  0  0  0  0
    3.1410    6.0110  -22.7430 C   0  0  0  0  0  0  0  0  0  0  0  0
    3.5570    3.8990  -23.4210 C   0  0  0  0  0  0  0  0  0  0  0  0
    1.6030    2.6010  -24.3930 C   0  0  0  0  0  0  0  0  0  0  0  0
   -0.5220    3.4190  -24.2700 C   0  0  0  0  0  0  0  0  0  0  0  0
    0.0100    4.6350  -23.6670 C   0  0  0  0  0  0  0  0  0  0  0  0
   -1.9770    3.4300  -24.6180 C   0  0  0  0  0  0  0  0  0  0  0  0
    4.1570    1.3990  -23.1440 C   0  0  0  0  0  0  0  0  0  0  0  0
    5.0950    1.0350  -22.0030 C   0  0  2  0  0  0  0  0  0  0  0  0
    6.6890    2.5740  -22.5390 C   0  0  2  0  0  0  0  0  0  0  0  0
    5.0840    2.0310  -20.8310 C   0  0  0  0  0  0  0  0  0  0  0  0
   -2.3080    3.5970  -26.0440 C   0  0  0  0  0  0  0  0  0  0  0  0
   -1.5470    2.8150  -21.6780 C   0  0  0  0  0  0  0  0  0  0  0  0
   -0.5150    2.4620  -21.1780 C   0  0  0  0  0  0  0  0  0  0  0  0
   -0.8280    5.6800  -23.3140 F   0  0  0  0  0  0  0  0  0  0  0  0
   -3.7260    3.1020  -20.1390 F   0  0  0  0  0  0  0  0  0  0  0  0
    1.8200    5.9780  -22.8860 N   0  0  0  0  0  0  0  0  0  0  0  0
    4.0350    5.0470  -22.9720 N   0  0  0  0  0  0  0  0  0  0  0  0
    0.2950    2.5160  -24.6930 N   0  0  0  0  0  0  0  0  0  0  0  0
    4.4710    2.8500  -23.6070 N   0  0  0  0  0  0  0  0  0  0  0  0
    6.5000    1.1010  -22.4910 N   0  0  0  0  0  0  0  0  0  0  0  0
   -3.8410    3.8060  -27.7920 O   0  0  0  0  0  0  0  0  0  0  0  0
    3.7160    7.4580  -20.7680 N   0  0  0  0  0  0  0  0  0  0  0  0
    4.4250    9.8960  -20.8240 C   0  0  0  0  0  0  0  0  0  0  0  0
    3.7060    7.3460  -22.2710 C   0  0  0  0  0  0  0  0  0  0  0  0
    4.6450    8.5040  -20.2040 C   0  0  0  0  0  0  0  0  0  0  0  0
    5.4180   10.8900  -20.2030 C   0  0  0  0  0  0  0  0  0  0  0  0
  1  2  2  0
  1  3  1  0
  2  6  1  0
  3  5  2  0
  3 27  1  0
  4  5  1  0
  4  6  2  0
  4 18  1  0
  5 24  1  0
  6 10  1  0
  7 10  2  0
  7 23  1  0
  7 33  1  0
 21  8  1  1
  8 22  1  0
  9 21  1  0
  9 31  1  0
 11 12  2  0
 11 14  1  0
 11 15  1  0
 12 17  1  0
 12 28  1  0
 13 28  2  0
 13 29  1  0
 13 36  1  0
 14 29  2  0
 14 31  1  0
 15 30  2  0
 16 17  2  0
 16 18  1  0
 16 30  1  0
 17 26  1  0
 18 23  2  0
 20 19  1  6
 19 31  1  0
 20 22  1  0
 20 32  1  0
 21 32  1  0
 24 25  3  0
 34 36  1  0
 34 37  1  0
 35 37  1  0
 35 38  1  0
M  CHG  1  34   1
M  END
>  <s_m_entry_id>  (210) 
834

>  <s_m_entry_name>  (210) 
000000676.1

>  <s_m_Source_Path>  (210) 
/Users/zaksoul/Documents/3r_UNI/2nd_SEMESTER/BSC/FRAG_RECON/RESULTS/2

>  <s_m_Source_File>  (210) 
000000676.mol2

>  <i_m_Source_File_Index>  (210) 
1

$$$$
No_0_703,No_0_704,No_0_705,No_0_706,No_0_707,No_0_708,No_0_709
     RDKit          3D

 37 42  0  0  1  0  0  0  0  0999 V2000
   -5.1810    3.6090  -21.8530 C   0  0  0  0  0  0  0  0  0  0  0  0
   -5.4520    3.8050  -23.1860 C   0  0  0  0  0  0  0  0  0  0  0  0
   -3.9420    3.3510  -21.5190 C   0  0  0  0  0  0  0  0  0  0  0  0
   -3.0590    3.4860  -23.6870 C   0  0  0  0  0  0  0  0  0  0  0  0
   -2.8930    3.2340  -22.2690 C   0  0  0  0  0  0  0  0  0  0  0  0
   -4.4090    3.7540  -24.2010 C   0  0  0  0  0  0  0  0  0  0  0  0
   -3.6630    3.7850  -26.4030 C   0  0  0  0  0  0  0  0  0  0  0  0
    6.0870    3.0010  -21.1820 C   0  0  0  0  0  0  0  0  0  0  0  0
    5.9380    3.1560  -23.7310 C   0  0  0  0  0  0  0  0  0  0  0  0
   -4.6650    3.8890  -25.5350 C   0  0  0  0  0  0  0  0  0  0  0  0
    2.1540    3.7130  -23.7290 C   0  0  0  0  0  0  0  0  0  0  0  0
    1.3370    4.8230  -23.4210 C   0  0  0  0  0  0  0  0  0  0  0  0
    3.1410    6.0110  -22.7430 C   0  0  0  0  0  0  0  0  0  0  0  0
    3.5570    3.8990  -23.4210 C   0  0  0  0  0  0  0  0  0  0  0  0
    1.6030    2.6010  -24.3930 C   0  0  0  0  0  0  0  0  0  0  0  0
   -0.5220    3.4190  -24.2700 C   0  0  0  0  0  0  0  0  0  0  0  0
    0.0100    4.6350  -23.6670 C   0  0  0  0  0  0  0  0  0  0  0  0
   -1.9770    3.4300  -24.6180 C   0  0  0  0  0  0  0  0  0  0  0  0
    4.1570    1.3990  -23.1440 C   0  0  0  0  0  0  0  0  0  0  0  0
    5.0950    1.0350  -22.0030 C   0  0  2  0  0  0  0  0  0  0  0  0
    6.6890    2.5740  -22.5390 C   0  0  2  0  0  0  0  0  0  0  0  0
    5.0840    2.0310  -20.8310 C   0  0  0  0  0  0  0  0  0  0  0  0
   -2.3080    3.5970  -26.0440 C   0  0  0  0  0  0  0  0  0  0  0  0
   -1.5470    2.8150  -21.6780 C   0  0  0  0  0  0  0  0  0  0  0  0
   -0.5150    2.4620  -21.1780 C   0  0  0  0  0  0  0  0  0  0  0  0
   -0.8280    5.6800  -23.3140 F   0  0  0  0  0  0  0  0  0  0  0  0
   -3.7260    3.1020  -20.1390 F   0  0  0  0  0  0  0  0  0  0  0  0
    1.8200    5.9780  -22.8860 N   0  0  0  0  0  0  0  0  0  0  0  0
    4.0350    5.0470  -22.9720 N   0  0  0  0  0  0  0  0  0  0  0  0
    0.2950    2.5160  -24.6930 N   0  0  0  0  0  0  0  0  0  0  0  0
    4.4710    2.8500  -23.6070 N   0  0  0  0  0  0  0  0  0  0  0  0
    6.5000    1.1010  -22.4910 N   0  0  0  0  0  0  0  0  0  0  0  0
   -3.8410    3.8060  -27.7920 O   0  0  0  0  0  0  0  0  0  0  0  0
    3.3820    7.5990  -20.8210 N   0  0  0  0  0  0  0  0  0  0  0  0
    3.7060    7.3460  -22.2710 C   0  0  0  0  0  0  0  0  0  0  0  0
    3.9410    8.8700  -20.2360 C   0  0  0  0  0  0  0  0  0  0  0  0
    5.4670    8.8010  -20.0420 C   0  0  0  0  0  0  0  0  0  0  0  0
  1  2  2  0
  1  3  1  0
  2  6  1  0
  3  5  2  0
  3 27  1  0
  4  5  1  0
  4  6  2  0
  4 18  1  0
  5 24  1  0
  6 10  1  0
  7 10  2  0
  7 23  1  0
  7 33  1  0
 21  8  1  1
  8 22  1  0
  9 21  1  0
  9 31  1  0
 11 12  2  0
 11 14  1  0
 11 15  1  0
 12 17  1  0
 12 28  1  0
 13 28  2  0
 13 29  1  0
 13 35  1  0
 14 29  2  0
 14 31  1  0
 15 30  2  0
 16 17  2  0
 16 18  1  0
 16 30  1  0
 17 26  1  0
 18 23  2  0
 20 19  1  6
 19 31  1  0
 20 22  1  0
 20 32  1  0
 21 32  1  0
 24 25  3  0
 34 35  1  0
 34 36  1  0
 36 37  1  0
M  CHG  1  34   1
M  END
>  <s_m_entry_id>  (211) 
840

>  <s_m_entry_name>  (211) 
000000682.1

>  <s_m_Source_Path>  (211) 
/Users/zaksoul/Documents/3r_UNI/2nd_SEMESTER/BSC/FRAG_RECON/RESULTS/2

>  <s_m_Source_File>  (211) 
000000682.mol2

>  <i_m_Source_File_Index>  (211) 
1

$$$$
No_0_710,No_0_711,No_0_712,No_0_713,No_0_714,No_0_715
     RDKit          3D

 36 41  0  0  1  0  0  0  0  0999 V2000
   -5.3420    3.6710  -21.9810 C   0  0  0  0  0  0  0  0  0  0  0  0
   -5.5790    3.8200  -23.3270 C   0  0  0  0  0  0  0  0  0  0  0  0
   -4.1160    3.4070  -21.6070 C   0  0  0  0  0  0  0  0  0  0  0  0
   -3.1810    3.4450  -23.7580 C   0  0  0  0  0  0  0  0  0  0  0  0
   -3.0520    3.2440  -22.3270 C   0  0  0  0  0  0  0  0  0  0  0  0
   -4.5130    3.7150  -24.3140 C   0  0  0  0  0  0  0  0  0  0  0  0
   -3.7150    3.6490  -26.4960 C   0  0  0  0  0  0  0  0  0  0  0  0
    5.8950    2.9110  -21.0170 C   0  0  0  0  0  0  0  0  0  0  0  0
    5.8080    2.9720  -23.5720 C   0  0  0  0  0  0  0  0  0  0  0  0
   -4.7360    3.8020  -25.6570 C   0  0  0  0  0  0  0  0  0  0  0  0
    2.0360    3.5880  -23.6820 C   0  0  0  0  0  0  0  0  0  0  0  0
    1.2300    4.7210  -23.4360 C   0  0  0  0  0  0  0  0  0  0  0  0
    3.0370    5.9050  -22.7600 C   0  0  0  0  0  0  0  0  0  0  0  0
    3.4330    3.7640  -23.3480 C   0  0  0  0  0  0  0  0  0  0  0  0
    1.4810    2.4600  -24.3170 C   0  0  0  0  0  0  0  0  0  0  0  0
   -0.6320    3.3160  -24.2760 C   0  0  0  0  0  0  0  0  0  0  0  0
   -0.0940    4.5450  -23.7070 C   0  0  0  0  0  0  0  0  0  0  0  0
   -2.0780    3.3370  -24.6590 C   0  0  0  0  0  0  0  0  0  0  0  0
    3.9850    1.2660  -22.9620 C   0  0  0  0  0  0  0  0  0  0  0  0
    4.8900    0.9310  -21.7860 C   0  0  2  0  0  0  0  0  0  0  0  0
    6.5220    2.4240  -22.3410 C   0  0  2  0  0  0  0  0  0  0  0  0
    4.8680    1.9710  -20.6530 C   0  0  0  0  0  0  0  0  0  0  0  0
   -2.3730    3.4550  -26.0980 C   0  0  0  0  0  0  0  0  0  0  0  0
   -1.7280    2.8270  -21.6890 C   0  0  0  0  0  0  0  0  0  0  0  0
   -0.7140    2.4770  -21.1510 C   0  0  0  0  0  0  0  0  0  0  0  0
   -0.9220    5.6160  -23.4130 F   0  0  0  0  0  0  0  0  0  0  0  0
   -3.9370    3.2060  -20.2140 F   0  0  0  0  0  0  0  0  0  0  0  0
    1.7190    5.8880  -22.9330 N   0  0  0  0  0  0  0  0  0  0  0  0
    3.9190    4.9200  -22.9310 N   0  0  0  0  0  0  0  0  0  0  0  0
    0.1790    2.3840  -24.6450 N   0  0  0  0  0  0  0  0  0  0  0  0
    4.3340    2.6940  -23.4720 N   0  0  0  0  0  0  0  0  0  0  0  0
    6.3060    0.9560  -22.2430 N   0  0  0  0  0  0  0  0  0  0  0  0
   -3.8610    3.6210  -27.8880 O   0  0  0  0  0  0  0  0  0  0  0  0
    3.5660    7.3660  -20.8240 N   0  0  0  0  0  0  0  0  0  0  0  0
    3.6130    7.2490  -22.3250 C   0  0  0  0  0  0  0  0  0  0  0  0
    4.3410    8.5180  -20.2500 C   0  0  0  0  0  0  0  0  0  0  0  0
  1  2  2  0
  1  3  1  0
  2  6  1  0
  3  5  2  0
  3 27  1  0
  4  5  1  0
  4  6  2  0
  4 18  1  0
  5 24  1  0
  6 10  1  0
  7 10  2  0
  7 23  1  0
  7 33  1  0
 21  8  1  1
  8 22  1  0
  9 21  1  0
  9 31  1  0
 11 12  2  0
 11 14  1  0
 11 15  1  0
 12 17  1  0
 12 28  1  0
 13 28  2  0
 13 29  1  0
 13 35  1  0
 14 29  2  0
 14 31  1  0
 15 30  2  0
 16 17  2  0
 16 18  1  0
 16 30  1  0
 17 26  1  0
 18 23  2  0
 20 19  1  6
 19 31  1  0
 20 22  1  0
 20 32  1  0
 21 32  1  0
 24 25  3  0
 34 35  1  0
 34 36  1  0
M  CHG  1  34   1
M  END
>  <s_m_entry_id>  (212) 
847

>  <s_m_entry_name>  (212) 
000000689.1

>  <s_m_Source_Path>  (212) 
/Users/zaksoul/Documents/3r_UNI/2nd_SEMESTER/BSC/FRAG_RECON/RESULTS/2

>  <s_m_Source_File>  (212) 
000000689.mol2

>  <i_m_Source_File_Index>  (212) 
1

$$$$
No_0_716,No_0_717,No_0_718,No_0_719,No_0_720,No_0_721,No_0_722,No_0_723,No_0_724
     RDKit          3D

 39 45  0  0  1  0  0  0  0  0999 V2000
   -5.3880    3.2770  -22.1740 C   0  0  0  0  0  0  0  0  0  0  0  0
   -5.6350    3.4320  -23.5180 C   0  0  0  0  0  0  0  0  0  0  0  0
   -4.1510    3.0570  -21.8070 C   0  0  0  0  0  0  0  0  0  0  0  0
   -3.2250    3.1550  -23.9600 C   0  0  0  0  0  0  0  0  0  0  0  0
   -3.0840    2.9450  -22.5320 C   0  0  0  0  0  0  0  0  0  0  0  0
   -4.5680    3.3790  -24.5090 C   0  0  0  0  0  0  0  0  0  0  0  0
   -3.7760    3.3690  -26.6940 C   0  0  0  0  0  0  0  0  0  0  0  0
    5.8730    2.9490  -21.2500 C   0  0  0  0  0  0  0  0  0  0  0  0
    5.7760    3.0340  -23.8040 C   0  0  0  0  0  0  0  0  0  0  0  0
   -4.7990    3.4720  -25.8510 C   0  0  0  0  0  0  0  0  0  0  0  0
    1.9820    3.5030  -23.8970 C   0  0  0  0  0  0  0  0  0  0  0  0
    1.1330    4.6000  -23.6360 C   0  0  0  0  0  0  0  0  0  0  0  0
    2.8950    5.8470  -22.9520 C   0  0  0  0  0  0  0  0  0  0  0  0
    3.3720    3.7290  -23.5650 C   0  0  0  0  0  0  0  0  0  0  0  0
    1.4700    2.3610  -24.5430 C   0  0  0  0  0  0  0  0  0  0  0  0
   -0.6750    3.1320  -24.4860 C   0  0  0  0  0  0  0  0  0  0  0  0
   -0.1840    4.3760  -23.9050 C   0  0  0  0  0  0  0  0  0  0  0  0
   -2.1220    3.1010  -24.8650 C   0  0  0  0  0  0  0  0  0  0  0  0
    4.0230    1.2510  -23.2090 C   0  0  0  0  0  0  0  0  0  0  0  0
    4.9440    0.9390  -22.0390 C   0  0  2  0  0  0  0  0  0  0  0  0
    6.5150    2.5010  -22.5820 C   0  0  2  0  0  0  0  0  0  0  0  0
    4.8860    1.9650  -20.8940 C   0  0  0  0  0  0  0  0  0  0  0  0
   -2.4250    3.2230  -26.3020 C   0  0  0  0  0  0  0  0  0  0  0  0
   -1.7420    2.5720  -21.9020 C   0  0  0  0  0  0  0  0  0  0  0  0
   -0.7140    2.2570  -21.3710 C   0  0  0  0  0  0  0  0  0  0  0  0
   -1.0520    5.4100  -23.5980 F   0  0  0  0  0  0  0  0  0  0  0  0
   -3.9600    2.8480  -20.4170 F   0  0  0  0  0  0  0  0  0  0  0  0
    1.5780    5.7800  -23.1220 N   0  0  0  0  0  0  0  0  0  0  0  0
    3.8140    4.8990  -23.1360 N   0  0  0  0  0  0  0  0  0  0  0  0
    0.1710    2.2380  -24.8690 N   0  0  0  0  0  0  0  0  0  0  0  0
    4.3150    2.6970  -23.7040 N   0  0  0  0  0  0  0  0  0  0  0  0
    6.3570    1.0250  -22.4990 N   0  0  0  0  0  0  0  0  0  0  0  0
   -3.9250    3.3510  -28.0870 O   0  0  0  0  0  0  0  0  0  0  0  0
    6.3800    8.6360  -19.8630 N   0  0  0  0  0  0  0  0  0  0  0  0
    4.7950    7.0480  -22.0160 N   0  0  0  0  0  0  0  0  0  0  0  0
    6.8220    8.2330  -21.2320 C   0  0  0  0  0  0  0  0  0  0  0  0
    4.9230    8.7590  -20.1740 C   0  0  0  0  0  0  0  0  0  0  0  0
    5.3290    8.3540  -21.6120 C   0  0  0  0  0  0  0  0  0  0  0  0
    3.4190    7.2070  -22.5040 C   0  0  0  0  0  0  0  0  0  0  0  0
  1  2  2  0
  1  3  1  0
  2  6  1  0
  3  5  2  0
  3 27  1  0
  4  5  1  0
  4  6  2  0
  4 18  1  0
  5 24  1  0
  6 10  1  0
  7 10  2  0
  7 23  1  0
  7 33  1  0
 21  8  1  1
  8 22  1  0
  9 21  1  0
  9 31  1  0
 11 12  1  0
 11 14  1  0
 11 15  2  0
 12 17  2  0
 12 28  1  0
 13 28  2  0
 13 29  1  0
 13 39  1  0
 14 29  2  0
 14 31  1  0
 15 30  1  0
 16 17  1  0
 16 18  1  0
 16 30  2  0
 17 26  1  0
 18 23  2  0
 20 19  1  6
 19 31  1  0
 20 22  1  0
 20 32  1  0
 21 32  1  0
 24 25  3  0
 34 36  1  0
 34 37  1  0
 35 38  1  0
 35 39  1  0
 36 38  1  0
 37 38  1  0
M  CHG  1  34   1
M  END
>  <s_m_entry_id>  (213) 
853

>  <s_m_entry_name>  (213) 
000000695.1

>  <s_m_Source_Path>  (213) 
/Users/zaksoul/Documents/3r_UNI/2nd_SEMESTER/BSC/FRAG_RECON/RESULTS/2

>  <s_m_Source_File>  (213) 
000000695.mol2

>  <i_m_Source_File_Index>  (213) 
1

$$$$
No_0_725,No_0_726,No_0_727,No_0_728,No_0_729,No_0_730,No_0_731,No_0_732,No_0_733
     RDKit          3D

 37 42  0  0  1  0  0  0  0  0999 V2000
   -5.0390    3.7580  -22.0100 C   0  0  0  0  0  0  0  0  0  0  0  0
   -5.3010    3.9620  -23.3440 C   0  0  0  0  0  0  0  0  0  0  0  0
   -3.8100    3.4600  -21.6720 C   0  0  0  0  0  0  0  0  0  0  0  0
   -2.9180    3.5660  -23.8390 C   0  0  0  0  0  0  0  0  0  0  0  0
   -2.7640    3.3100  -22.4200 C   0  0  0  0  0  0  0  0  0  0  0  0
   -4.2570    3.8780  -24.3560 C   0  0  0  0  0  0  0  0  0  0  0  0
   -3.5050    3.8840  -26.5560 C   0  0  0  0  0  0  0  0  0  0  0  0
    6.2010    2.7900  -21.3100 C   0  0  0  0  0  0  0  0  0  0  0  0
    6.0640    2.9490  -23.8590 C   0  0  0  0  0  0  0  0  0  0  0  0
   -4.5060    4.0200  -25.6910 C   0  0  0  0  0  0  0  0  0  0  0  0
    2.3000    3.6270  -23.8670 C   0  0  0  0  0  0  0  0  0  0  0  0
    1.5180    4.7620  -23.5610 C   0  0  0  0  0  0  0  0  0  0  0  0
    3.3580    5.8920  -22.8790 C   0  0  0  0  0  0  0  0  0  0  0  0
    3.7070    3.7680  -23.5560 C   0  0  0  0  0  0  0  0  0  0  0  0
    1.7150    2.5330  -24.5330 C   0  0  0  0  0  0  0  0  0  0  0  0
   -0.3830    3.4180  -24.4150 C   0  0  0  0  0  0  0  0  0  0  0  0
    0.1860    4.6170  -23.8110 C   0  0  0  0  0  0  0  0  0  0  0  0
   -1.8360    3.4760  -24.7670 C   0  0  0  0  0  0  0  0  0  0  0  0
    4.2260    1.2500  -23.2770 C   0  0  0  0  0  0  0  0  0  0  0  0
    5.1490    0.8560  -22.1330 C   0  0  2  0  0  0  0  0  0  0  0  0
    6.7930    2.3440  -22.6650 C   0  0  2  0  0  0  0  0  0  0  0  0
    5.1670    1.8520  -20.9610 C   0  0  0  0  0  0  0  0  0  0  0  0
   -2.1580    3.6540  -26.1930 C   0  0  0  0  0  0  0  0  0  0  0  0
   -1.4340    2.8480  -21.8260 C   0  0  0  0  0  0  0  0  0  0  0  0
   -0.4150    2.4620  -21.3230 C   0  0  0  0  0  0  0  0  0  0  0  0
   -0.6190    5.6890  -23.4600 F   0  0  0  0  0  0  0  0  0  0  0  0
   -3.6060    3.2040  -20.2920 F   0  0  0  0  0  0  0  0  0  0  0  0
    2.0360    5.9010  -23.0250 N   0  0  0  0  0  0  0  0  0  0  0  0
    4.2200    4.9000  -23.1050 N   0  0  0  0  0  0  0  0  0  0  0  0
    0.4060    2.4900  -24.8360 N   0  0  0  0  0  0  0  0  0  0  0  0
    4.5880    2.6900  -23.7390 N   0  0  0  0  0  0  0  0  0  0  0  0
    6.5570    0.8770  -22.6180 N   0  0  0  0  0  0  0  0  0  0  0  0
   -3.6790    3.9110  -27.9450 O   0  0  0  0  0  0  0  0  0  0  0  0
    3.9760    8.9850  -20.5940 N   0  0  0  0  0  0  0  0  0  0  0  0
    3.3700    7.6970  -21.0690 C   0  0  0  0  0  0  0  0  0  0  0  0
    3.4380    9.4360  -19.2670 C   0  0  0  0  0  0  0  0  0  0  0  0
    3.9640    7.2090  -22.4050 C   0  0  0  0  0  0  0  0  0  0  0  0
  1  2  2  0
  1  3  1  0
  2  6  1  0
  3  5  2  0
  3 27  1  0
  4  5  1  0
  4  6  2  0
  4 18  1  0
  5 24  1  0
  6 10  1  0
  7 10  2  0
  7 23  1  0
  7 33  1  0
 21  8  1  1
  8 22  1  0
  9 21  1  0
  9 31  1  0
 11 12  2  0
 11 14  1  0
 11 15  1  0
 12 17  1  0
 12 28  1  0
 13 28  2  0
 13 29  1  0
 13 37  1  0
 14 29  2  0
 14 31  1  0
 15 30  2  0
 16 17  2  0
 16 18  1  0
 16 30  1  0
 17 26  1  0
 18 23  2  0
 20 19  1  6
 19 31  1  0
 20 22  1  0
 20 32  1  0
 21 32  1  0
 24 25  3  0
 34 35  1  0
 34 36  1  0
 35 37  1  0
M  CHG  1  34   1
M  END
>  <s_m_entry_id>  (214) 
862

>  <s_m_entry_name>  (214) 
000000704.1

>  <s_m_Source_Path>  (214) 
/Users/zaksoul/Documents/3r_UNI/2nd_SEMESTER/BSC/FRAG_RECON/RESULTS/2

>  <s_m_Source_File>  (214) 
000000704.mol2

>  <i_m_Source_File_Index>  (214) 
1

$$$$
No_0_734,No_0_735,No_0_736,No_0_737,No_0_738,No_0_739,No_0_740,No_0_741,No_0_742
     RDKit          3D

 39 45  0  0  1  0  0  0  0  0999 V2000
   -5.2890    3.4800  -21.9110 C   0  0  0  0  0  0  0  0  0  0  0  0
   -5.5760    3.6290  -23.2470 C   0  0  0  0  0  0  0  0  0  0  0  0
   -4.0430    3.2530  -21.5810 C   0  0  0  0  0  0  0  0  0  0  0  0
   -3.1840    3.3300  -23.7620 C   0  0  0  0  0  0  0  0  0  0  0  0
   -3.0000    3.1270  -22.3380 C   0  0  0  0  0  0  0  0  0  0  0  0
   -4.5420    3.5610  -24.2710 C   0  0  0  0  0  0  0  0  0  0  0  0
   -3.8180    3.5320  -26.4790 C   0  0  0  0  0  0  0  0  0  0  0  0
    5.9930    3.0670  -21.3360 C   0  0  0  0  0  0  0  0  0  0  0  0
    5.8170    3.1380  -23.8860 C   0  0  0  0  0  0  0  0  0  0  0  0
   -4.8130    3.6490  -25.6050 C   0  0  0  0  0  0  0  0  0  0  0  0
    2.0250    3.6370  -23.8640 C   0  0  0  0  0  0  0  0  0  0  0  0
    1.1940    4.7420  -23.5840 C   0  0  0  0  0  0  0  0  0  0  0  0
    2.9860    5.9790  -22.9630 C   0  0  0  0  0  0  0  0  0  0  0  0
    3.4270    3.8540  -23.5770 C   0  0  0  0  0  0  0  0  0  0  0  0
    1.4840    2.4950  -24.4870 C   0  0  0  0  0  0  0  0  0  0  0  0
   -0.6520    3.2840  -24.3680 C   0  0  0  0  0  0  0  0  0  0  0  0
   -0.1330    4.5270  -23.8100 C   0  0  0  0  0  0  0  0  0  0  0  0
   -2.1090    3.2610  -24.7010 C   0  0  0  0  0  0  0  0  0  0  0  0
    4.0700    1.3730  -23.2250 C   0  0  0  0  0  0  0  0  0  0  0  0
    5.0240    1.0610  -22.0830 C   0  0  2  0  0  0  0  0  0  0  0  0
    6.5890    2.6060  -22.6840 C   0  0  2  0  0  0  0  0  0  0  0  0
    5.0090    2.0940  -20.9430 C   0  0  0  0  0  0  0  0  0  0  0  0
   -2.4570    3.3770  -26.1280 C   0  0  0  0  0  0  0  0  0  0  0  0
   -1.6420    2.7480  -21.7480 C   0  0  0  0  0  0  0  0  0  0  0  0
   -0.6000    2.4270  -21.2470 C   0  0  0  0  0  0  0  0  0  0  0  0
   -0.9830    5.5700  -23.4820 F   0  0  0  0  0  0  0  0  0  0  0  0
   -3.8100    3.0510  -20.1960 F   0  0  0  0  0  0  0  0  0  0  0  0
    1.6630    5.9220  -23.0910 N   0  0  0  0  0  0  0  0  0  0  0  0
    3.8920    5.0220  -23.1690 N   0  0  0  0  0  0  0  0  0  0  0  0
    0.1750    2.3800  -24.7700 N   0  0  0  0  0  0  0  0  0  0  0  0
    4.3570    2.8130  -23.7380 N   0  0  0  0  0  0  0  0  0  0  0  0
    6.4230    1.1320  -22.5870 N   0  0  0  0  0  0  0  0  0  0  0  0
   -4.0100    3.5060  -27.8660 O   0  0  0  0  0  0  0  0  0  0  0  0
    6.0180    9.0900  -21.4720 N   0  0  0  0  0  0  0  0  0  0  0  0
    6.8290   10.1600  -20.8570 C   0  0  0  0  0  0  0  0  0  0  0  0
    7.3140    8.6460  -20.9190 C   0  0  0  0  0  0  0  0  0  0  0  0
    4.7630    8.6960  -20.7450 C   0  0  0  0  0  0  0  0  0  0  0  0
    4.2480    7.3090  -21.1730 C   0  0  0  0  0  0  0  0  0  0  0  0
    3.5340    7.3380  -22.5400 C   0  0  0  0  0  0  0  0  0  0  0  0
  1  2  2  0
  1  3  1  0
  2  6  1  0
  3  5  2  0
  3 27  1  0
  4  5  1  0
  4  6  2  0
  4 18  1  0
  5 24  1  0
  6 10  1  0
  7 10  2  0
  7 23  1  0
  7 33  1  0
 21  8  1  1
  8 22  1  0
  9 21  1  0
  9 31  1  0
 11 12  1  0
 11 14  1  0
 11 15  2  0
 12 17  2  0
 12 28  1  0
 13 28  2  0
 13 29  1  0
 13 39  1  0
 14 29  2  0
 14 31  1  0
 15 30  1  0
 16 17  1  0
 16 18  1  0
 16 30  2  0
 17 26  1  0
 18 23  2  0
 20 19  1  6
 19 31  1  0
 20 22  1  0
 20 32  1  0
 21 32  1  0
 24 25  3  0
 34 35  1  0
 34 36  1  0
 34 37  1  0
 35 36  1  0
 37 38  1  0
 38 39  1  0
M  CHG  1  34   1
M  END
>  <s_m_entry_id>  (215) 
871

>  <s_m_entry_name>  (215) 
000000713.1

>  <s_m_Source_Path>  (215) 
/Users/zaksoul/Documents/3r_UNI/2nd_SEMESTER/BSC/FRAG_RECON/RESULTS/2

>  <s_m_Source_File>  (215) 
000000713.mol2

>  <i_m_Source_File_Index>  (215) 
1

$$$$
No_0_743,No_0_744,No_0_745
     RDKit          3D

 36 41  0  0  1  0  0  0  0  0999 V2000
   -4.9290    3.7560  -21.5370 C   0  0  0  0  0  0  0  0  0  0  0  0
   -5.2340    3.9570  -22.8620 C   0  0  0  0  0  0  0  0  0  0  0  0
   -3.6880    3.4690  -21.2380 C   0  0  0  0  0  0  0  0  0  0  0  0
   -2.8650    3.5810  -23.4310 C   0  0  0  0  0  0  0  0  0  0  0  0
   -2.6640    3.3260  -22.0180 C   0  0  0  0  0  0  0  0  0  0  0  0
   -4.2210    3.8810  -23.9070 C   0  0  0  0  0  0  0  0  0  0  0  0
   -3.5390    3.8910  -26.1290 C   0  0  0  0  0  0  0  0  0  0  0  0
    6.3350    2.8800  -21.1880 C   0  0  0  0  0  0  0  0  0  0  0  0
    6.1170    3.0370  -23.7310 C   0  0  0  0  0  0  0  0  0  0  0  0
   -4.5130    4.0200  -25.2330 C   0  0  0  0  0  0  0  0  0  0  0  0
    2.3490    3.6840  -23.6230 C   0  0  0  0  0  0  0  0  0  0  0  0
    1.5680    4.8120  -23.2930 C   0  0  0  0  0  0  0  0  0  0  0  0
    3.4190    5.9580  -22.6690 C   0  0  0  0  0  0  0  0  0  0  0  0
    3.7640    3.8370  -23.3550 C   0  0  0  0  0  0  0  0  0  0  0  0
    1.7520    2.5840  -24.2690 C   0  0  0  0  0  0  0  0  0  0  0  0
   -0.3480    3.4530  -24.0860 C   0  0  0  0  0  0  0  0  0  0  0  0
    0.2300    4.6560  -23.5010 C   0  0  0  0  0  0  0  0  0  0  0  0
   -1.8110    3.4980  -24.3920 C   0  0  0  0  0  0  0  0  0  0  0  0
    4.3130    1.3230  -23.0910 C   0  0  0  0  0  0  0  0  0  0  0  0
    5.2740    0.9380  -21.9770 C   0  0  2  0  0  0  0  0  0  0  0  0
    6.8880    2.4380  -22.5610 C   0  0  2  0  0  0  0  0  0  0  0  0
    5.3200    1.9340  -20.8070 C   0  0  0  0  0  0  0  0  0  0  0  0
   -2.1790    3.6720  -25.8080 C   0  0  0  0  0  0  0  0  0  0  0  0
   -1.3120    2.8760  -21.4650 C   0  0  0  0  0  0  0  0  0  0  0  0
   -0.2750    2.4990  -20.9940 C   0  0  0  0  0  0  0  0  0  0  0  0
   -0.5720    5.7220  -23.1250 F   0  0  0  0  0  0  0  0  0  0  0  0
   -3.4390    3.2160  -19.8640 F   0  0  0  0  0  0  0  0  0  0  0  0
    2.0930    5.9560  -22.7740 N   0  0  0  0  0  0  0  0  0  0  0  0
    4.2820    4.9730  -22.9220 N   0  0  0  0  0  0  0  0  0  0  0  0
    0.4350    2.5300  -24.5310 N   0  0  0  0  0  0  0  0  0  0  0  0
    4.6480    2.7660  -23.5660 N   0  0  0  0  0  0  0  0  0  0  0  0
    6.6650    0.9700  -22.5050 N   0  0  0  0  0  0  0  0  0  0  0  0
   -3.7560    3.9160  -27.5120 O   0  0  0  0  0  0  0  0  0  0  0  0
    3.3480    8.0000  -21.4720 O   0  0  0  0  0  0  0  0  0  0  0  0
    4.0220    7.2670  -22.2200 C   0  0  0  0  0  0  0  0  0  0  0  0
    5.2000    7.5630  -22.5220 O   0  0  0  0  0  0  0  0  0  0  0  0
  1  2  2  0
  1  3  1  0
  2  6  1  0
  3  5  2  0
  3 27  1  0
  4  5  1  0
  4  6  2  0
  4 18  1  0
  5 24  1  0
  6 10  1  0
  7 10  2  0
  7 23  1  0
  7 33  1  0
 21  8  1  1
  8 22  1  0
  9 21  1  0
  9 31  1  0
 11 12  2  0
 11 14  1  0
 11 15  1  0
 12 17  1  0
 12 28  1  0
 13 28  2  0
 13 29  1  0
 13 35  1  0
 14 29  2  0
 14 31  1  0
 15 30  2  0
 16 17  2  0
 16 18  1  0
 16 30  1  0
 17 26  1  0
 18 23  2  0
 20 19  1  6
 19 31  1  0
 20 22  1  0
 20 32  1  0
 21 32  1  0
 24 25  3  0
 34 35  2  0
 35 36  1  0
M  CHG  1  36  -1
M  END
>  <s_m_entry_id>  (216) 
880

>  <s_m_entry_name>  (216) 
000000722.1

>  <s_m_Source_Path>  (216) 
/Users/zaksoul/Documents/3r_UNI/2nd_SEMESTER/BSC/FRAG_RECON/RESULTS/2

>  <s_m_Source_File>  (216) 
000000722.mol2

>  <i_m_Source_File_Index>  (216) 
1

$$$$
No_0_746,No_0_747,No_0_748,No_0_749,No_0_750,No_0_751
     RDKit          3D

 36 41  0  0  1  0  0  0  0  0999 V2000
   -5.1810    3.6090  -21.8530 C   0  0  0  0  0  0  0  0  0  0  0  0
   -5.4520    3.8050  -23.1860 C   0  0  0  0  0  0  0  0  0  0  0  0
   -3.9420    3.3510  -21.5190 C   0  0  0  0  0  0  0  0  0  0  0  0
   -3.0590    3.4860  -23.6870 C   0  0  0  0  0  0  0  0  0  0  0  0
   -2.8930    3.2340  -22.2690 C   0  0  0  0  0  0  0  0  0  0  0  0
   -4.4090    3.7540  -24.2010 C   0  0  0  0  0  0  0  0  0  0  0  0
   -3.6630    3.7850  -26.4030 C   0  0  0  0  0  0  0  0  0  0  0  0
    6.0870    3.0010  -21.1820 C   0  0  0  0  0  0  0  0  0  0  0  0
    5.9380    3.1560  -23.7310 C   0  0  0  0  0  0  0  0  0  0  0  0
   -4.6650    3.8890  -25.5350 C   0  0  0  0  0  0  0  0  0  0  0  0
    2.1540    3.7130  -23.7290 C   0  0  0  0  0  0  0  0  0  0  0  0
    1.3370    4.8230  -23.4210 C   0  0  0  0  0  0  0  0  0  0  0  0
    3.1410    6.0110  -22.7430 C   0  0  0  0  0  0  0  0  0  0  0  0
    3.5570    3.8990  -23.4210 C   0  0  0  0  0  0  0  0  0  0  0  0
    1.6030    2.6010  -24.3930 C   0  0  0  0  0  0  0  0  0  0  0  0
   -0.5220    3.4190  -24.2700 C   0  0  0  0  0  0  0  0  0  0  0  0
    0.0100    4.6350  -23.6670 C   0  0  0  0  0  0  0  0  0  0  0  0
   -1.9770    3.4300  -24.6180 C   0  0  0  0  0  0  0  0  0  0  0  0
    4.1570    1.3990  -23.1440 C   0  0  0  0  0  0  0  0  0  0  0  0
    5.0950    1.0350  -22.0030 C   0  0  2  0  0  0  0  0  0  0  0  0
    6.6890    2.5740  -22.5390 C   0  0  2  0  0  0  0  0  0  0  0  0
    5.0840    2.0310  -20.8310 C   0  0  0  0  0  0  0  0  0  0  0  0
   -2.3080    3.5970  -26.0440 C   0  0  0  0  0  0  0  0  0  0  0  0
   -1.5470    2.8150  -21.6780 C   0  0  0  0  0  0  0  0  0  0  0  0
   -0.5150    2.4620  -21.1780 C   0  0  0  0  0  0  0  0  0  0  0  0
   -0.8280    5.6800  -23.3140 F   0  0  0  0  0  0  0  0  0  0  0  0
   -3.7260    3.1020  -20.1390 F   0  0  0  0  0  0  0  0  0  0  0  0
    1.8200    5.9780  -22.8860 N   0  0  0  0  0  0  0  0  0  0  0  0
    4.0350    5.0470  -22.9720 N   0  0  0  0  0  0  0  0  0  0  0  0
    0.2950    2.5160  -24.6930 N   0  0  0  0  0  0  0  0  0  0  0  0
    4.4710    2.8500  -23.6070 N   0  0  0  0  0  0  0  0  0  0  0  0
    6.5000    1.1010  -22.4910 N   0  0  0  0  0  0  0  0  0  0  0  0
   -3.8410    3.8060  -27.7920 O   0  0  0  0  0  0  0  0  0  0  0  0
    4.5620    8.5530  -20.4270 C   0  0  0  0  0  0  0  0  0  0  0  0
    4.0320    7.3230  -20.8890 O   0  0  0  0  0  0  0  0  0  0  0  0
    3.7060    7.3460  -22.2710 C   0  0  0  0  0  0  0  0  0  0  0  0
  1  2  2  0
  1  3  1  0
  2  6  1  0
  3  5  2  0
  3 27  1  0
  4  5  1  0
  4  6  2  0
  4 18  1  0
  5 24  1  0
  6 10  1  0
  7 10  2  0
  7 23  1  0
  7 33  1  0
 21  8  1  1
  8 22  1  0
  9 21  1  0
  9 31  1  0
 11 12  2  0
 11 14  1  0
 11 15  1  0
 12 17  1  0
 12 28  1  0
 13 28  2  0
 13 29  1  0
 13 36  1  0
 14 29  2  0
 14 31  1  0
 15 30  2  0
 16 17  2  0
 16 18  1  0
 16 30  1  0
 17 26  1  0
 18 23  2  0
 20 19  1  6
 19 31  1  0
 20 22  1  0
 20 32  1  0
 21 32  1  0
 24 25  3  0
 34 35  1  0
 35 36  1  0
M  END
>  <s_m_entry_id>  (217) 
883

>  <s_m_entry_name>  (217) 
000000725.1

>  <s_m_Source_Path>  (217) 
/Users/zaksoul/Documents/3r_UNI/2nd_SEMESTER/BSC/FRAG_RECON/RESULTS/2

>  <s_m_Source_File>  (217) 
000000725.mol2

>  <i_m_Source_File_Index>  (217) 
1

$$$$
No_0_752,No_0_753,No_0_754
     RDKit          3D

 36 41  0  0  1  0  0  0  0  0999 V2000
   -4.9220    3.6460  -22.0590 C   0  0  0  0  0  0  0  0  0  0  0  0
   -5.1840    3.8450  -23.3930 C   0  0  0  0  0  0  0  0  0  0  0  0
   -3.6850    3.3900  -21.7160 C   0  0  0  0  0  0  0  0  0  0  0  0
   -2.7860    3.5340  -23.8770 C   0  0  0  0  0  0  0  0  0  0  0  0
   -2.6300    3.2790  -22.4580 C   0  0  0  0  0  0  0  0  0  0  0  0
   -4.1320    3.8000  -24.4010 C   0  0  0  0  0  0  0  0  0  0  0  0
   -3.3690    3.8400  -26.5960 C   0  0  0  0  0  0  0  0  0  0  0  0
    6.3420    3.0700  -21.3030 C   0  0  0  0  0  0  0  0  0  0  0  0
    6.2120    3.2320  -23.8520 C   0  0  0  0  0  0  0  0  0  0  0  0
   -4.3790    3.9380  -25.7360 C   0  0  0  0  0  0  0  0  0  0  0  0
    2.4270    3.7780  -23.8780 C   0  0  0  0  0  0  0  0  0  0  0  0
    1.6050    4.8840  -23.5730 C   0  0  0  0  0  0  0  0  0  0  0  0
    3.4000    6.0750  -22.8770 C   0  0  0  0  0  0  0  0  0  0  0  0
    3.8260    3.9670  -23.5580 C   0  0  0  0  0  0  0  0  0  0  0  0
    1.8840    2.6660  -24.5500 C   0  0  0  0  0  0  0  0  0  0  0  0
   -0.2440    3.4770  -24.4400 C   0  0  0  0  0  0  0  0  0  0  0  0
    0.2800    4.6930  -23.8300 C   0  0  0  0  0  0  0  0  0  0  0  0
   -1.6960    3.4850  -24.7990 C   0  0  0  0  0  0  0  0  0  0  0  0
    4.4330    1.4670  -23.2840 C   0  0  0  0  0  0  0  0  0  0  0  0
    5.3630    1.1030  -22.1370 C   0  0  2  0  0  0  0  0  0  0  0  0
    6.9560    2.6490  -22.6560 C   0  0  2  0  0  0  0  0  0  0  0  0
    5.3400    2.0950  -20.9620 C   0  0  0  0  0  0  0  0  0  0  0  0
   -2.0170    3.6550  -26.2270 C   0  0  0  0  0  0  0  0  0  0  0  0
   -1.2880    2.8620  -21.8580 C   0  0  0  0  0  0  0  0  0  0  0  0
   -0.2580    2.5110  -21.3510 C   0  0  0  0  0  0  0  0  0  0  0  0
   -0.5640    5.7350  -23.4800 F   0  0  0  0  0  0  0  0  0  0  0  0
   -3.4790    3.1370  -20.3350 F   0  0  0  0  0  0  0  0  0  0  0  0
    2.0790    6.0390  -23.0310 N   0  0  0  0  0  0  0  0  0  0  0  0
    4.2970    5.1150  -23.1020 N   0  0  0  0  0  0  0  0  0  0  0  0
    0.5790    2.5780  -24.8600 N   0  0  0  0  0  0  0  0  0  0  0  0
    4.7460    2.9210  -23.7410 N   0  0  0  0  0  0  0  0  0  0  0  0
    6.7710    1.1750  -22.6140 N   0  0  0  0  0  0  0  0  0  0  0  0
   -3.5370    3.8650  -27.9860 O   0  0  0  0  0  0  0  0  0  0  0  0
    5.0330    7.4740  -21.8110 O   0  0  0  0  0  0  0  0  0  0  0  0
    3.9510    7.3980  -22.4020 C   0  0  0  0  0  0  0  0  0  0  0  0
    3.2460    8.4890  -22.7280 N   0  0  0  0  0  0  0  0  0  0  0  0
  1  2  2  0
  1  3  1  0
  2  6  1  0
  3  5  2  0
  3 27  1  0
  4  5  1  0
  4  6  2  0
  4 18  1  0
  5 24  1  0
  6 10  1  0
  7 10  2  0
  7 23  1  0
  7 33  1  0
 21  8  1  1
  8 22  1  0
  9 21  1  0
  9 31  1  0
 11 12  2  0
 11 14  1  0
 11 15  1  0
 12 17  1  0
 12 28  1  0
 13 28  2  0
 13 29  1  0
 13 35  1  0
 14 29  2  0
 14 31  1  0
 15 30  2  0
 16 17  2  0
 16 18  1  0
 16 30  1  0
 17 26  1  0
 18 23  2  0
 20 19  1  6
 19 31  1  0
 20 22  1  0
 20 32  1  0
 21 32  1  0
 24 25  3  0
 34 35  2  0
 35 36  1  0
M  END
>  <s_m_entry_id>  (218) 
889

>  <s_m_entry_name>  (218) 
000000731.1

>  <s_m_Source_Path>  (218) 
/Users/zaksoul/Documents/3r_UNI/2nd_SEMESTER/BSC/FRAG_RECON/RESULTS/2

>  <s_m_Source_File>  (218) 
000000731.mol2

>  <i_m_Source_File_Index>  (218) 
1

$$$$
