No_0_3,No_1_119,No_0_1,No_0_2,No_1_120,No_1_118
     RDKit          3D

 40 45  0  0  1  0  0  0  0  0999 V2000
   -5.0530    3.4550  -22.0680 C   0  0  0  0  0  0  0  0  0  0  0  0
   -5.3120    3.6430  -23.4050 C   0  0  0  0  0  0  0  0  0  0  0  0
   -3.8130    3.2240  -21.7180 C   0  0  0  0  0  0  0  0  0  0  0  0
   -2.9070    3.3740  -23.8760 C   0  0  0  0  0  0  0  0  0  0  0  0
   -2.7530    3.1280  -22.4550 C   0  0  0  0  0  0  0  0  0  0  0  0
   -4.2550    3.6130  -24.4070 C   0  0  0  0  0  0  0  0  0  0  0  0
   -3.4830    3.6560  -26.5990 C   0  0  0  0  0  0  0  0  0  0  0  0
    6.2160    3.0870  -21.2580 C   0  0  0  0  0  0  0  0  0  0  0  0
    6.0950    3.2350  -23.8080 C   0  0  0  0  0  0  0  0  0  0  0  0
   -4.4980    3.7400  -25.7440 C   0  0  0  0  0  0  0  0  0  0  0  0
    2.3010    3.7120  -23.8540 C   0  0  0  0  0  0  0  0  0  0  0  0
    1.4570    4.8040  -23.5580 C   0  0  0  0  0  0  0  0  0  0  0  0
    3.2270    6.0310  -22.8600 C   0  0  0  0  0  0  0  0  0  0  0  0
    3.6950    3.9280  -23.5290 C   0  0  0  0  0  0  0  0  0  0  0  0
    1.7810    2.5870  -24.5230 C   0  0  0  0  0  0  0  0  0  0  0  0
   -0.3620    3.3600  -24.4270 C   0  0  0  0  0  0  0  0  0  0  0  0
    0.1370    4.5880  -23.8200 C   0  0  0  0  0  0  0  0  0  0  0  0
   -1.8120    3.3400  -24.7930 C   0  0  0  0  0  0  0  0  0  0  0  0
    4.3450    1.4410  -23.2400 C   0  0  0  0  0  0  0  0  0  0  0  0
    5.2760    1.0990  -22.0870 C   0  0  2  0  0  0  0  0  0  0  0  0
    6.8440    2.6710  -22.6060 C   0  0  2  0  0  0  0  0  0  0  0  0
    5.2300    2.0960  -20.9170 C   0  0  0  0  0  0  0  0  0  0  0  0
   -2.1290    3.4980  -26.2230 C   0  0  0  0  0  0  0  0  0  0  0  0
   -1.4060    2.7380  -21.8470 C   0  0  0  0  0  0  0  0  0  0  0  0
   -0.3730    2.4080  -21.3340 C   0  0  0  0  0  0  0  0  0  0  0  0
   -0.7270    5.6160  -23.4790 F   0  0  0  0  0  0  0  0  0  0  0  0
   -3.6090    2.9810  -20.3350 F   0  0  0  0  0  0  0  0  0  0  0  0
    1.9080    5.9700  -23.0190 N   0  0  0  0  0  0  0  0  0  0  0  0
    4.1430    5.0860  -23.0760 N   0  0  0  0  0  0  0  0  0  0  0  0
    0.4790    2.4740  -24.8390 N   0  0  0  0  0  0  0  0  0  0  0  0
    4.6340    2.8980  -23.7020 N   0  0  0  0  0  0  0  0  0  0  0  0
    6.6850    1.1940  -22.5580 N   0  0  0  0  0  0  0  0  0  0  0  0
   -3.6450    3.6720  -27.9900 O   0  0  0  0  0  0  0  0  0  0  0  0
    8.9500    8.3800  -20.7600 N   0  0  0  0  0  0  0  0  0  0  0  0
    7.5690    8.3080  -20.1720 C   0  0  0  0  0  0  0  0  0  0  0  0
    5.0900    8.6800  -20.6430 C   0  0  0  0  0  0  0  0  0  0  0  0
    4.4450    7.3260  -21.0030 C   0  0  0  0  0  0  0  0  0  0  0  0
    6.5270    8.8020  -21.1930 C   0  0  0  0  0  0  0  0  0  0  0  0
   10.0550    8.0920  -19.7840 C   0  0  0  0  0  0  0  0  0  0  0  0
    3.7570    7.3790  -22.3830 C   0  0  0  0  0  0  0  0  0  0  0  0
  1  2  2  0
  1  3  1  0
  2  6  1  0
  3  5  2  0
  3 27  1  0
  4  5  1  0
  4  6  2  0
  4 18  1  0
  5 24  1  0
  6 10  1  0
  7 10  2  0
  7 23  1  0
  7 33  1  0
 21  8  1  1
  8 22  1  0
  9 21  1  0
  9 31  1  0
 11 12  2  0
 11 14  1  0
 11 15  1  0
 12 17  1  0
 12 28  1  0
 13 28  2  0
 13 29  1  0
 13 40  1  0
 14 29  2  0
 14 31  1  0
 15 30  2  0
 16 17  2  0
 16 18  1  0
 16 30  1  0
 17 26  1  0
 18 23  2  0
 20 19  1  6
 19 31  1  0
 20 22  1  0
 20 32  1  0
 21 32  1  0
 24 25  3  0
 34 35  1  0
 34 39  1  0
 35 38  1  0
 36 37  1  0
 36 38  1  0
 37 40  1  0
M  CHG  1  34   1
M  END
>  <s_m_entry_id>  (1) 
143

>  <s_m_entry_name>  (1) 
000000001.1

>  <s_m_Source_Path>  (1) 
/Users/zaksoul/Documents/1

>  <s_m_Source_File>  (1) 
000000001.mol2

>  <i_m_Source_File_Index>  (1) 
1

$$$$
No_0_4,No_0_5,No_1_91,No_1_109,No_0_4,No_0_5,No_1_91,No_1_109,No_0_4,No_0_5,No_1_91,No_1_109,No_0_4,No_0_5,No_1_91,No_1_109,No_0_4,No_0_5,No_1_91,No_1_109
     RDKit          3D

 40 45  0  0  1  0  0  0  0  0999 V2000
   -5.0530    3.4550  -22.0680 C   0  0  0  0  0  0  0  0  0  0  0  0
   -5.3120    3.6430  -23.4050 C   0  0  0  0  0  0  0  0  0  0  0  0
   -3.8130    3.2240  -21.7180 C   0  0  0  0  0  0  0  0  0  0  0  0
   -2.9070    3.3740  -23.8760 C   0  0  0  0  0  0  0  0  0  0  0  0
   -2.7530    3.1280  -22.4550 C   0  0  0  0  0  0  0  0  0  0  0  0
   -4.2550    3.6130  -24.4070 C   0  0  0  0  0  0  0  0  0  0  0  0
   -3.4830    3.6560  -26.5990 C   0  0  0  0  0  0  0  0  0  0  0  0
    6.2160    3.0870  -21.2580 C   0  0  0  0  0  0  0  0  0  0  0  0
    6.0950    3.2350  -23.8080 C   0  0  0  0  0  0  0  0  0  0  0  0
   -4.4980    3.7400  -25.7440 C   0  0  0  0  0  0  0  0  0  0  0  0
    2.3010    3.7120  -23.8540 C   0  0  0  0  0  0  0  0  0  0  0  0
    1.4570    4.8040  -23.5580 C   0  0  0  0  0  0  0  0  0  0  0  0
    3.2270    6.0310  -22.8600 C   0  0  0  0  0  0  0  0  0  0  0  0
    3.6950    3.9280  -23.5290 C   0  0  0  0  0  0  0  0  0  0  0  0
    1.7810    2.5870  -24.5230 C   0  0  0  0  0  0  0  0  0  0  0  0
   -0.3620    3.3600  -24.4270 C   0  0  0  0  0  0  0  0  0  0  0  0
    0.1370    4.5880  -23.8200 C   0  0  0  0  0  0  0  0  0  0  0  0
   -1.8120    3.3400  -24.7930 C   0  0  0  0  0  0  0  0  0  0  0  0
    4.3450    1.4410  -23.2400 C   0  0  0  0  0  0  0  0  0  0  0  0
    5.2760    1.0990  -22.0870 C   0  0  2  0  0  0  0  0  0  0  0  0
    6.8440    2.6710  -22.6060 C   0  0  2  0  0  0  0  0  0  0  0  0
    5.2300    2.0960  -20.9170 C   0  0  0  0  0  0  0  0  0  0  0  0
   -2.1290    3.4980  -26.2230 C   0  0  0  0  0  0  0  0  0  0  0  0
   -1.4060    2.7380  -21.8470 C   0  0  0  0  0  0  0  0  0  0  0  0
   -0.3730    2.4080  -21.3340 C   0  0  0  0  0  0  0  0  0  0  0  0
   -0.7270    5.6160  -23.4790 F   0  0  0  0  0  0  0  0  0  0  0  0
   -3.6090    2.9810  -20.3350 F   0  0  0  0  0  0  0  0  0  0  0  0
    1.9080    5.9700  -23.0190 N   0  0  0  0  0  0  0  0  0  0  0  0
    4.1430    5.0860  -23.0760 N   0  0  0  0  0  0  0  0  0  0  0  0
    0.4790    2.4740  -24.8390 N   0  0  0  0  0  0  0  0  0  0  0  0
    4.6340    2.8980  -23.7020 N   0  0  0  0  0  0  0  0  0  0  0  0
    6.6850    1.1940  -22.5580 N   0  0  0  0  0  0  0  0  0  0  0  0
   -3.6450    3.6720  -27.9900 O   0  0  0  0  0  0  0  0  0  0  0  0
    6.7260    7.9570  -21.6680 O   0  0  0  0  0  0  0  0  0  0  0  0
    6.3340   11.2910  -21.4030 N   0  0  0  0  0  0  0  0  0  0  0  0
    3.7570    7.3790  -22.3830 C   0  0  0  0  0  0  0  0  0  0  0  0
    4.1040    7.4010  -20.8830 C   0  0  0  0  0  0  0  0  0  0  0  0
    4.7760    8.7320  -20.5110 C   0  0  0  0  0  0  0  0  0  0  0  0
    6.1910    8.8400  -21.0380 C   0  0  0  0  0  0  0  0  0  0  0  0
    6.9470   10.1060  -20.7130 C   0  0  0  0  0  0  0  0  0  0  0  0
  1  2  2  0
  1  3  1  0
  2  6  1  0
  3  5  2  0
  3 27  1  0
  4  5  1  0
  4  6  2  0
  4 18  1  0
  5 24  1  0
  6 10  1  0
  7 10  2  0
  7 23  1  0
  7 33  1  0
 21  8  1  1
  8 22  1  0
  9 21  1  0
  9 31  1  0
 11 12  2  0
 11 14  1  0
 11 15  1  0
 12 17  1  0
 12 28  1  0
 13 28  2  0
 13 29  1  0
 13 36  1  0
 14 29  2  0
 14 31  1  0
 15 30  2  0
 16 17  2  0
 16 18  1  0
 16 30  1  0
 17 26  1  0
 18 23  2  0
 20 19  1  6
 19 31  1  0
 20 22  1  0
 20 32  1  0
 21 32  1  0
 24 25  3  0
 34 39  2  0
 35 40  1  0
 36 37  1  0
 37 38  1  0
 38 39  1  0
 39 40  1  0
M  CHG  1  35   1
M  END
>  <s_m_entry_id>  (2) 
146

>  <s_m_entry_name>  (2) 
000000004.1

>  <s_m_Source_Path>  (2) 
/Users/zaksoul/Documents/1

>  <s_m_Source_File>  (2) 
000000004.mol2

>  <i_m_Source_File_Index>  (2) 
1

$$$$
No_0_6,No_0_7,No_1_102,No_1_107,No_0_6,No_0_7,No_1_102,No_1_107,No_0_6,No_0_7,No_1_102,No_1_107,No_0_6,No_0_7,No_1_102,No_1_107,No_0_6,No_0_7,No_1_102,No_1_107
     RDKit          3D

 42 47  0  0  1  0  0  0  0  0999 V2000
   -5.0530    3.4550  -22.0680 C   0  0  0  0  0  0  0  0  0  0  0  0
   -5.3120    3.6430  -23.4050 C   0  0  0  0  0  0  0  0  0  0  0  0
   -3.8130    3.2240  -21.7180 C   0  0  0  0  0  0  0  0  0  0  0  0
   -2.9070    3.3740  -23.8760 C   0  0  0  0  0  0  0  0  0  0  0  0
   -2.7530    3.1280  -22.4550 C   0  0  0  0  0  0  0  0  0  0  0  0
   -4.2550    3.6130  -24.4070 C   0  0  0  0  0  0  0  0  0  0  0  0
   -3.4830    3.6560  -26.5990 C   0  0  0  0  0  0  0  0  0  0  0  0
    6.2160    3.0870  -21.2580 C   0  0  0  0  0  0  0  0  0  0  0  0
    6.0950    3.2350  -23.8080 C   0  0  0  0  0  0  0  0  0  0  0  0
   -4.4980    3.7400  -25.7440 C   0  0  0  0  0  0  0  0  0  0  0  0
    2.3010    3.7120  -23.8540 C   0  0  0  0  0  0  0  0  0  0  0  0
    1.4570    4.8040  -23.5580 C   0  0  0  0  0  0  0  0  0  0  0  0
    3.2270    6.0310  -22.8600 C   0  0  0  0  0  0  0  0  0  0  0  0
    3.6950    3.9280  -23.5290 C   0  0  0  0  0  0  0  0  0  0  0  0
    1.7810    2.5870  -24.5230 C   0  0  0  0  0  0  0  0  0  0  0  0
   -0.3620    3.3600  -24.4270 C   0  0  0  0  0  0  0  0  0  0  0  0
    0.1370    4.5880  -23.8200 C   0  0  0  0  0  0  0  0  0  0  0  0
   -1.8120    3.3400  -24.7930 C   0  0  0  0  0  0  0  0  0  0  0  0
    4.3450    1.4410  -23.2400 C   0  0  0  0  0  0  0  0  0  0  0  0
    5.2760    1.0990  -22.0870 C   0  0  2  0  0  0  0  0  0  0  0  0
    6.8440    2.6710  -22.6060 C   0  0  2  0  0  0  0  0  0  0  0  0
    5.2300    2.0960  -20.9170 C   0  0  0  0  0  0  0  0  0  0  0  0
   -2.1290    3.4980  -26.2230 C   0  0  0  0  0  0  0  0  0  0  0  0
   -1.4060    2.7380  -21.8470 C   0  0  0  0  0  0  0  0  0  0  0  0
   -0.3730    2.4080  -21.3340 C   0  0  0  0  0  0  0  0  0  0  0  0
   -0.7270    5.6160  -23.4790 F   0  0  0  0  0  0  0  0  0  0  0  0
   -3.6090    2.9810  -20.3350 F   0  0  0  0  0  0  0  0  0  0  0  0
    1.9080    5.9700  -23.0190 N   0  0  0  0  0  0  0  0  0  0  0  0
    4.1430    5.0860  -23.0760 N   0  0  0  0  0  0  0  0  0  0  0  0
    0.4790    2.4740  -24.8390 N   0  0  0  0  0  0  0  0  0  0  0  0
    4.6340    2.8980  -23.7020 N   0  0  0  0  0  0  0  0  0  0  0  0
    6.6850    1.1940  -22.5580 N   0  0  0  0  0  0  0  0  0  0  0  0
   -3.6450    3.6720  -27.9900 O   0  0  0  0  0  0  0  0  0  0  0  0
    8.3470    8.8980  -22.0090 N   0  0  0  0  0  0  0  0  0  0  0  0
    6.0950    9.0620  -21.3320 N   0  0  0  0  0  0  0  0  0  0  0  0
    7.5800    7.6280  -20.1770 N   0  0  0  0  0  0  0  0  0  0  0  0
    4.3740    7.3170  -20.9710 C   0  0  0  0  0  0  0  0  0  0  0  0
    3.7570    7.3790  -22.3830 C   0  0  0  0  0  0  0  0  0  0  0  0
    4.9360    8.6810  -20.5320 C   0  0  0  0  0  0  0  0  0  0  0  0
    7.3380    8.5260  -21.1680 C   0  0  0  0  0  0  0  0  0  0  0  0
    9.7330    8.4870  -21.7880 C   0  0  0  0  0  0  0  0  0  0  0  0
    8.1080    9.7300  -23.1870 C   0  0  0  0  0  0  0  0  0  0  0  0
  1  2  2  0
  1  3  1  0
  2  6  1  0
  3  5  2  0
  3 27  1  0
  4  5  1  0
  4  6  2  0
  4 18  1  0
  5 24  1  0
  6 10  1  0
  7 10  2  0
  7 23  1  0
  7 33  1  0
 21  8  1  1
  8 22  1  0
  9 21  1  0
  9 31  1  0
 11 12  2  0
 11 14  1  0
 11 15  1  0
 12 17  1  0
 12 28  1  0
 13 28  2  0
 13 29  1  0
 13 38  1  0
 14 29  2  0
 14 31  1  0
 15 30  2  0
 16 17  2  0
 16 18  1  0
 16 30  1  0
 17 26  1  0
 18 23  2  0
 20 19  1  6
 19 31  1  0
 20 22  1  0
 20 32  1  0
 21 32  1  0
 24 25  3  0
 34 40  2  3
 34 41  1  0
 34 42  1  0
 35 39  1  0
 35 40  1  0
 36 40  1  0
 37 38  1  0
 37 39  1  0
M  CHG  1  34   1
M  END
>  <s_m_entry_id>  (3) 
148

>  <s_m_entry_name>  (3) 
000000006.1

>  <s_m_Source_Path>  (3) 
/Users/zaksoul/Documents/1

>  <s_m_Source_File>  (3) 
000000006.mol2

>  <i_m_Source_File_Index>  (3) 
1

$$$$
No_0_8,No_0_9,No_0_10,No_1_111,No_1_114,No_1_117,No_0_8,No_0_9,No_0_10,No_1_111,No_1_114,No_1_117,No_0_8,No_0_9,No_0_10,No_1_111,No_1_114,No_1_117,No_0_8,No_0_9,No_0_10,No_1_111,No_1_114,No_1_117,No_0_8,No_0_9,No_0_10,No_1_111,No_1_114,No_1_117
     RDKit          3D

 41 46  0  0  1  0  0  0  0  0999 V2000
   -5.0530    3.4550  -22.0680 C   0  0  0  0  0  0  0  0  0  0  0  0
   -5.3120    3.6430  -23.4050 C   0  0  0  0  0  0  0  0  0  0  0  0
   -3.8130    3.2240  -21.7180 C   0  0  0  0  0  0  0  0  0  0  0  0
   -2.9070    3.3740  -23.8760 C   0  0  0  0  0  0  0  0  0  0  0  0
   -2.7530    3.1280  -22.4550 C   0  0  0  0  0  0  0  0  0  0  0  0
   -4.2550    3.6130  -24.4070 C   0  0  0  0  0  0  0  0  0  0  0  0
   -3.4830    3.6560  -26.5990 C   0  0  0  0  0  0  0  0  0  0  0  0
    6.2160    3.0870  -21.2580 C   0  0  0  0  0  0  0  0  0  0  0  0
    6.0950    3.2350  -23.8080 C   0  0  0  0  0  0  0  0  0  0  0  0
   -4.4980    3.7400  -25.7440 C   0  0  0  0  0  0  0  0  0  0  0  0
    2.3010    3.7120  -23.8540 C   0  0  0  0  0  0  0  0  0  0  0  0
    1.4570    4.8040  -23.5580 C   0  0  0  0  0  0  0  0  0  0  0  0
    3.2270    6.0310  -22.8600 C   0  0  0  0  0  0  0  0  0  0  0  0
    3.6950    3.9280  -23.5290 C   0  0  0  0  0  0  0  0  0  0  0  0
    1.7810    2.5870  -24.5230 C   0  0  0  0  0  0  0  0  0  0  0  0
   -0.3620    3.3600  -24.4270 C   0  0  0  0  0  0  0  0  0  0  0  0
    0.1370    4.5880  -23.8200 C   0  0  0  0  0  0  0  0  0  0  0  0
   -1.8120    3.3400  -24.7930 C   0  0  0  0  0  0  0  0  0  0  0  0
    4.3450    1.4410  -23.2400 C   0  0  0  0  0  0  0  0  0  0  0  0
    5.2760    1.0990  -22.0870 C   0  0  2  0  0  0  0  0  0  0  0  0
    6.8440    2.6710  -22.6060 C   0  0  2  0  0  0  0  0  0  0  0  0
    5.2300    2.0960  -20.9170 C   0  0  0  0  0  0  0  0  0  0  0  0
   -2.1290    3.4980  -26.2230 C   0  0  0  0  0  0  0  0  0  0  0  0
   -1.4060    2.7380  -21.8470 C   0  0  0  0  0  0  0  0  0  0  0  0
   -0.3730    2.4080  -21.3340 C   0  0  0  0  0  0  0  0  0  0  0  0
   -0.7270    5.6160  -23.4790 F   0  0  0  0  0  0  0  0  0  0  0  0
   -3.6090    2.9810  -20.3350 F   0  0  0  0  0  0  0  0  0  0  0  0
    1.9080    5.9700  -23.0190 N   0  0  0  0  0  0  0  0  0  0  0  0
    4.1430    5.0860  -23.0760 N   0  0  0  0  0  0  0  0  0  0  0  0
    0.4790    2.4740  -24.8390 N   0  0  0  0  0  0  0  0  0  0  0  0
    4.6340    2.8980  -23.7020 N   0  0  0  0  0  0  0  0  0  0  0  0
    6.6850    1.1940  -22.5580 N   0  0  0  0  0  0  0  0  0  0  0  0
   -3.6450    3.6720  -27.9900 O   0  0  0  0  0  0  0  0  0  0  0  0
    6.3960    8.7030  -21.1790 N   0  0  0  0  0  0  0  0  0  0  0  0
    8.6330    8.1650  -21.4580 N   0  0  0  0  0  0  0  0  0  0  0  0
    7.3890    7.0580  -19.7810 N   0  0  0  0  0  0  0  0  0  0  0  0
    4.3680    7.2890  -20.9710 C   0  0  0  0  0  0  0  0  0  0  0  0
    3.7570    7.3790  -22.3830 C   0  0  0  0  0  0  0  0  0  0  0  0
    5.0770    8.5920  -20.5630 C   0  0  0  0  0  0  0  0  0  0  0  0
    7.4670    7.9620  -20.7910 C   0  0  0  0  0  0  0  0  0  0  0  0
    9.8600    7.4460  -21.1390 C   0  0  0  0  0  0  0  0  0  0  0  0
  1  2  2  0
  1  3  1  0
  2  6  1  0
  3  5  2  0
  3 27  1  0
  4  5  1  0
  4  6  2  0
  4 18  1  0
  5 24  1  0
  6 10  1  0
  7 10  2  0
  7 23  1  0
  7 33  1  0
 21  8  1  1
  8 22  1  0
  9 21  1  0
  9 31  1  0
 11 12  2  0
 11 14  1  0
 11 15  1  0
 12 17  1  0
 12 28  1  0
 13 28  2  0
 13 29  1  0
 13 38  1  0
 14 29  2  0
 14 31  1  0
 15 30  2  0
 16 17  2  0
 16 18  1  0
 16 30  1  0
 17 26  1  0
 18 23  2  0
 20 19  1  6
 19 31  1  0
 20 22  1  0
 20 32  1  0
 21 32  1  0
 24 25  3  0
 34 39  1  0
 34 40  2  0
 35 40  1  0
 35 41  1  0
 36 40  1  0
 37 38  1  0
 37 39  1  0
M  CHG  1  34   1
M  END
>  <s_m_entry_id>  (4) 
150

>  <s_m_entry_name>  (4) 
000000008.1

>  <s_m_Source_Path>  (4) 
/Users/zaksoul/Documents/1

>  <s_m_Source_File>  (4) 
000000008.mol2

>  <i_m_Source_File_Index>  (4) 
1

$$$$
No_0_11,No_0_12,No_1_110,No_1_112,No_0_11,No_0_12,No_1_110,No_1_112,No_0_11,No_0_12,No_1_110,No_1_112,No_0_11,No_0_12,No_1_110,No_1_112,No_0_11,No_0_12,No_1_110,No_1_112
     RDKit          3D

 40 45  0  0  1  0  0  0  0  0999 V2000
   -5.0530    3.4550  -22.0680 C   0  0  0  0  0  0  0  0  0  0  0  0
   -5.3120    3.6430  -23.4050 C   0  0  0  0  0  0  0  0  0  0  0  0
   -3.8130    3.2240  -21.7180 C   0  0  0  0  0  0  0  0  0  0  0  0
   -2.9070    3.3740  -23.8760 C   0  0  0  0  0  0  0  0  0  0  0  0
   -2.7530    3.1280  -22.4550 C   0  0  0  0  0  0  0  0  0  0  0  0
   -4.2550    3.6130  -24.4070 C   0  0  0  0  0  0  0  0  0  0  0  0
   -3.4830    3.6560  -26.5990 C   0  0  0  0  0  0  0  0  0  0  0  0
    6.2160    3.0870  -21.2580 C   0  0  0  0  0  0  0  0  0  0  0  0
    6.0950    3.2350  -23.8080 C   0  0  0  0  0  0  0  0  0  0  0  0
   -4.4980    3.7400  -25.7440 C   0  0  0  0  0  0  0  0  0  0  0  0
    2.3010    3.7120  -23.8540 C   0  0  0  0  0  0  0  0  0  0  0  0
    1.4570    4.8040  -23.5580 C   0  0  0  0  0  0  0  0  0  0  0  0
    3.2270    6.0310  -22.8600 C   0  0  0  0  0  0  0  0  0  0  0  0
    3.6950    3.9280  -23.5290 C   0  0  0  0  0  0  0  0  0  0  0  0
    1.7810    2.5870  -24.5230 C   0  0  0  0  0  0  0  0  0  0  0  0
   -0.3620    3.3600  -24.4270 C   0  0  0  0  0  0  0  0  0  0  0  0
    0.1370    4.5880  -23.8200 C   0  0  0  0  0  0  0  0  0  0  0  0
   -1.8120    3.3400  -24.7930 C   0  0  0  0  0  0  0  0  0  0  0  0
    4.3450    1.4410  -23.2400 C   0  0  0  0  0  0  0  0  0  0  0  0
    5.2760    1.0990  -22.0870 C   0  0  2  0  0  0  0  0  0  0  0  0
    6.8440    2.6710  -22.6060 C   0  0  2  0  0  0  0  0  0  0  0  0
    5.2300    2.0960  -20.9170 C   0  0  0  0  0  0  0  0  0  0  0  0
   -2.1290    3.4980  -26.2230 C   0  0  0  0  0  0  0  0  0  0  0  0
   -1.4060    2.7380  -21.8470 C   0  0  0  0  0  0  0  0  0  0  0  0
   -0.3730    2.4080  -21.3340 C   0  0  0  0  0  0  0  0  0  0  0  0
   -0.7270    5.6160  -23.4790 F   0  0  0  0  0  0  0  0  0  0  0  0
   -3.6090    2.9810  -20.3350 F   0  0  0  0  0  0  0  0  0  0  0  0
    1.9080    5.9700  -23.0190 N   0  0  0  0  0  0  0  0  0  0  0  0
    4.1430    5.0860  -23.0760 N   0  0  0  0  0  0  0  0  0  0  0  0
    0.4790    2.4740  -24.8390 N   0  0  0  0  0  0  0  0  0  0  0  0
    4.6340    2.8980  -23.7020 N   0  0  0  0  0  0  0  0  0  0  0  0
    6.6850    1.1940  -22.5580 N   0  0  0  0  0  0  0  0  0  0  0  0
   -3.6450    3.6720  -27.9900 O   0  0  0  0  0  0  0  0  0  0  0  0
    8.1520   10.4410  -21.6610 F   0  0  0  0  0  0  0  0  0  0  0  0
    6.7280    8.4990  -20.1520 N   0  0  0  0  0  0  0  0  0  0  0  0
    5.4700    8.6150  -20.9780 C   0  0  0  0  0  0  0  0  0  0  0  0
    8.0090    8.1650  -20.8810 C   0  0  0  0  0  0  0  0  0  0  0  0
    3.7570    7.3790  -22.3830 C   0  0  0  0  0  0  0  0  0  0  0  0
    5.0370    7.2520  -21.5410 C   0  0  0  0  0  0  0  0  0  0  0  0
    8.3210    9.1160  -22.0530 C   0  0  0  0  0  0  0  0  0  0  0  0
  1  2  2  0
  1  3  1  0
  2  6  1  0
  3  5  2  0
  3 27  1  0
  4  5  1  0
  4  6  2  0
  4 18  1  0
  5 24  1  0
  6 10  1  0
  7 10  2  0
  7 23  1  0
  7 33  1  0
 21  8  1  1
  8 22  1  0
  9 21  1  0
  9 31  1  0
 11 12  2  0
 11 14  1  0
 11 15  1  0
 12 17  1  0
 12 28  1  0
 13 28  2  0
 13 29  1  0
 13 38  1  0
 14 29  2  0
 14 31  1  0
 15 30  2  0
 16 17  2  0
 16 18  1  0
 16 30  1  0
 17 26  1  0
 18 23  2  0
 20 19  1  6
 19 31  1  0
 20 22  1  0
 20 32  1  0
 21 32  1  0
 24 25  3  0
 34 40  1  0
 35 36  1  0
 35 37  1  0
 36 39  1  0
 37 40  1  0
 38 39  1  0
M  CHG  1  35   1
M  END
>  <s_m_entry_id>  (5) 
153

>  <s_m_entry_name>  (5) 
000000011.1

>  <s_m_Source_Path>  (5) 
/Users/zaksoul/Documents/1

>  <s_m_Source_File>  (5) 
000000011.mol2

>  <i_m_Source_File_Index>  (5) 
1

$$$$
No_0_13,No_0_14,No_1_77,No_1_78,No_0_13,No_0_14,No_1_77,No_1_78,No_0_13,No_0_14,No_1_77,No_1_78,No_0_13,No_0_14,No_1_77,No_1_78,No_0_13,No_0_14,No_1_77,No_1_78
     RDKit          3D

 41 46  0  0  1  0  0  0  0  0999 V2000
   -5.0530    3.4550  -22.0680 C   0  0  0  0  0  0  0  0  0  0  0  0
   -5.3120    3.6430  -23.4050 C   0  0  0  0  0  0  0  0  0  0  0  0
   -3.8130    3.2240  -21.7180 C   0  0  0  0  0  0  0  0  0  0  0  0
   -2.9070    3.3740  -23.8760 C   0  0  0  0  0  0  0  0  0  0  0  0
   -2.7530    3.1280  -22.4550 C   0  0  0  0  0  0  0  0  0  0  0  0
   -4.2550    3.6130  -24.4070 C   0  0  0  0  0  0  0  0  0  0  0  0
   -3.4830    3.6560  -26.5990 C   0  0  0  0  0  0  0  0  0  0  0  0
    6.2160    3.0870  -21.2580 C   0  0  0  0  0  0  0  0  0  0  0  0
    6.0950    3.2350  -23.8080 C   0  0  0  0  0  0  0  0  0  0  0  0
   -4.4980    3.7400  -25.7440 C   0  0  0  0  0  0  0  0  0  0  0  0
    2.3010    3.7120  -23.8540 C   0  0  0  0  0  0  0  0  0  0  0  0
    1.4570    4.8040  -23.5580 C   0  0  0  0  0  0  0  0  0  0  0  0
    3.2270    6.0310  -22.8600 C   0  0  0  0  0  0  0  0  0  0  0  0
    3.6950    3.9280  -23.5290 C   0  0  0  0  0  0  0  0  0  0  0  0
    1.7810    2.5870  -24.5230 C   0  0  0  0  0  0  0  0  0  0  0  0
   -0.3620    3.3600  -24.4270 C   0  0  0  0  0  0  0  0  0  0  0  0
    0.1370    4.5880  -23.8200 C   0  0  0  0  0  0  0  0  0  0  0  0
   -1.8120    3.3400  -24.7930 C   0  0  0  0  0  0  0  0  0  0  0  0
    4.3450    1.4410  -23.2400 C   0  0  0  0  0  0  0  0  0  0  0  0
    5.2760    1.0990  -22.0870 C   0  0  2  0  0  0  0  0  0  0  0  0
    6.8440    2.6710  -22.6060 C   0  0  2  0  0  0  0  0  0  0  0  0
    5.2300    2.0960  -20.9170 C   0  0  0  0  0  0  0  0  0  0  0  0
   -2.1290    3.4980  -26.2230 C   0  0  0  0  0  0  0  0  0  0  0  0
   -1.4060    2.7380  -21.8470 C   0  0  0  0  0  0  0  0  0  0  0  0
   -0.3730    2.4080  -21.3340 C   0  0  0  0  0  0  0  0  0  0  0  0
   -0.7270    5.6160  -23.4790 F   0  0  0  0  0  0  0  0  0  0  0  0
   -3.6090    2.9810  -20.3350 F   0  0  0  0  0  0  0  0  0  0  0  0
    1.9080    5.9700  -23.0190 N   0  0  0  0  0  0  0  0  0  0  0  0
    4.1430    5.0860  -23.0760 N   0  0  0  0  0  0  0  0  0  0  0  0
    0.4790    2.4740  -24.8390 N   0  0  0  0  0  0  0  0  0  0  0  0
    4.6340    2.8980  -23.7020 N   0  0  0  0  0  0  0  0  0  0  0  0
    6.6850    1.1940  -22.5580 N   0  0  0  0  0  0  0  0  0  0  0  0
   -3.6450    3.6720  -27.9900 O   0  0  0  0  0  0  0  0  0  0  0  0
    8.3860   10.8150  -20.8300 O   0  0  0  0  0  0  0  0  0  0  0  0
    9.3240    9.8650  -22.6820 O   0  0  0  0  0  0  0  0  0  0  0  0
    6.0910    9.3800  -21.4340 N   0  0  0  0  0  0  0  0  0  0  0  0
    5.1650    8.5500  -20.5900 C   0  0  0  0  0  0  0  0  0  0  0  0
    3.7570    7.3790  -22.3830 C   0  0  0  0  0  0  0  0  0  0  0  0
    4.7970    7.2150  -21.2580 C   0  0  0  0  0  0  0  0  0  0  0  0
    7.4580    8.7920  -21.6670 C   0  0  0  0  0  0  0  0  0  0  0  0
    8.4670    9.9090  -21.7330 C   0  0  0  0  0  0  0  0  0  0  0  0
  1  2  2  0
  1  3  1  0
  2  6  1  0
  3  5  2  0
  3 27  1  0
  4  5  1  0
  4  6  2  0
  4 18  1  0
  5 24  1  0
  6 10  1  0
  7 10  2  0
  7 23  1  0
  7 33  1  0
 21  8  1  1
  8 22  1  0
  9 21  1  0
  9 31  1  0
 11 12  2  0
 11 14  1  0
 11 15  1  0
 12 17  1  0
 12 28  1  0
 13 28  2  0
 13 29  1  0
 13 38  1  0
 14 29  2  0
 14 31  1  0
 15 30  2  0
 16 17  2  0
 16 18  1  0
 16 30  1  0
 17 26  1  0
 18 23  2  0
 20 19  1  6
 19 31  1  0
 20 22  1  0
 20 32  1  0
 21 32  1  0
 24 25  3  0
 34 41  1  0
 35 41  2  0
 36 37  1  0
 36 40  1  0
 37 39  1  0
 38 39  1  0
 40 41  1  0
M  CHG  2  34  -1  36   1
M  END
>  <s_m_entry_id>  (6) 
155

>  <s_m_entry_name>  (6) 
000000013.1

>  <s_m_Source_Path>  (6) 
/Users/zaksoul/Documents/1

>  <s_m_Source_File>  (6) 
000000013.mol2

>  <i_m_Source_File_Index>  (6) 
1

$$$$
No_0_15,No_0_16,No_1_90,No_1_105,No_0_15,No_0_16,No_1_90,No_1_105,No_0_15,No_0_16,No_1_90,No_1_105,No_0_15,No_0_16,No_1_90,No_1_105,No_0_15,No_0_16,No_1_90,No_1_105
     RDKit          3D

 41 46  0  0  1  0  0  0  0  0999 V2000
   -5.0530    3.4550  -22.0680 C   0  0  0  0  0  0  0  0  0  0  0  0
   -5.3120    3.6430  -23.4050 C   0  0  0  0  0  0  0  0  0  0  0  0
   -3.8130    3.2240  -21.7180 C   0  0  0  0  0  0  0  0  0  0  0  0
   -2.9070    3.3740  -23.8760 C   0  0  0  0  0  0  0  0  0  0  0  0
   -2.7530    3.1280  -22.4550 C   0  0  0  0  0  0  0  0  0  0  0  0
   -4.2550    3.6130  -24.4070 C   0  0  0  0  0  0  0  0  0  0  0  0
   -3.4830    3.6560  -26.5990 C   0  0  0  0  0  0  0  0  0  0  0  0
    6.2160    3.0870  -21.2580 C   0  0  0  0  0  0  0  0  0  0  0  0
    6.0950    3.2350  -23.8080 C   0  0  0  0  0  0  0  0  0  0  0  0
   -4.4980    3.7400  -25.7440 C   0  0  0  0  0  0  0  0  0  0  0  0
    2.3010    3.7120  -23.8540 C   0  0  0  0  0  0  0  0  0  0  0  0
    1.4570    4.8040  -23.5580 C   0  0  0  0  0  0  0  0  0  0  0  0
    3.2270    6.0310  -22.8600 C   0  0  0  0  0  0  0  0  0  0  0  0
    3.6950    3.9280  -23.5290 C   0  0  0  0  0  0  0  0  0  0  0  0
    1.7810    2.5870  -24.5230 C   0  0  0  0  0  0  0  0  0  0  0  0
   -0.3620    3.3600  -24.4270 C   0  0  0  0  0  0  0  0  0  0  0  0
    0.1370    4.5880  -23.8200 C   0  0  0  0  0  0  0  0  0  0  0  0
   -1.8120    3.3400  -24.7930 C   0  0  0  0  0  0  0  0  0  0  0  0
    4.3450    1.4410  -23.2400 C   0  0  0  0  0  0  0  0  0  0  0  0
    5.2760    1.0990  -22.0870 C   0  0  2  0  0  0  0  0  0  0  0  0
    6.8440    2.6710  -22.6060 C   0  0  2  0  0  0  0  0  0  0  0  0
    5.2300    2.0960  -20.9170 C   0  0  0  0  0  0  0  0  0  0  0  0
   -2.1290    3.4980  -26.2230 C   0  0  0  0  0  0  0  0  0  0  0  0
   -1.4060    2.7380  -21.8470 C   0  0  0  0  0  0  0  0  0  0  0  0
   -0.3730    2.4080  -21.3340 C   0  0  0  0  0  0  0  0  0  0  0  0
   -0.7270    5.6160  -23.4790 F   0  0  0  0  0  0  0  0  0  0  0  0
   -3.6090    2.9810  -20.3350 F   0  0  0  0  0  0  0  0  0  0  0  0
    1.9080    5.9700  -23.0190 N   0  0  0  0  0  0  0  0  0  0  0  0
    4.1430    5.0860  -23.0760 N   0  0  0  0  0  0  0  0  0  0  0  0
    0.4790    2.4740  -24.8390 N   0  0  0  0  0  0  0  0  0  0  0  0
    4.6340    2.8980  -23.7020 N   0  0  0  0  0  0  0  0  0  0  0  0
    6.6850    1.1940  -22.5580 N   0  0  0  0  0  0  0  0  0  0  0  0
   -3.6450    3.6720  -27.9900 O   0  0  0  0  0  0  0  0  0  0  0  0
    5.9620    8.5570  -20.4420 N   0  0  0  0  0  0  0  0  0  0  0  0
    6.3090    9.8640  -22.4260 N   0  0  0  0  0  0  0  0  0  0  0  0
    3.7560    7.5210  -20.8470 C   0  0  0  0  0  0  0  0  0  0  0  0
    8.1930    8.7420  -21.4070 C   0  0  0  0  0  0  0  0  0  0  0  0
    3.7570    7.3790  -22.3830 C   0  0  0  0  0  0  0  0  0  0  0  0
    4.5200    8.7620  -20.3490 C   0  0  0  0  0  0  0  0  0  0  0  0
    6.7180    9.0810  -21.4200 C   0  0  0  0  0  0  0  0  0  0  0  0
    9.0200    9.9330  -20.8960 C   0  0  0  0  0  0  0  0  0  0  0  0
  1  2  2  0
  1  3  1  0
  2  6  1  0
  3  5  2  0
  3 27  1  0
  4  5  1  0
  4  6  2  0
  4 18  1  0
  5 24  1  0
  6 10  1  0
  7 10  2  0
  7 23  1  0
  7 33  1  0
 21  8  1  1
  8 22  1  0
  9 21  1  0
  9 31  1  0
 11 12  2  0
 11 14  1  0
 11 15  1  0
 12 17  1  0
 12 28  1  0
 13 28  2  0
 13 29  1  0
 13 38  1  0
 14 29  2  0
 14 31  1  0
 15 30  2  0
 16 17  2  0
 16 18  1  0
 16 30  1  0
 17 26  1  0
 18 23  2  0
 20 19  1  6
 19 31  1  0
 20 22  1  0
 20 32  1  0
 21 32  1  0
 24 25  3  0
 34 39  1  0
 34 40  2  0
 35 40  1  0
 36 38  1  0
 36 39  1  0
 37 40  1  0
 37 41  1  0
M  CHG  1  34   1
M  END
>  <s_m_entry_id>  (7) 
157

>  <s_m_entry_name>  (7) 
000000015.1

>  <s_m_Source_Path>  (7) 
/Users/zaksoul/Documents/1

>  <s_m_Source_File>  (7) 
000000015.mol2

>  <i_m_Source_File_Index>  (7) 
1

$$$$
No_0_17,No_0_18,No_0_19,No_0_20,No_1_93,No_1_100,No_1_101,No_1_103,No_0_17,No_0_18,No_0_19,No_0_20,No_1_93,No_1_100,No_1_101,No_1_103,No_0_17,No_0_18,No_0_19,No_0_20,No_1_93,No_1_100,No_1_101,No_1_103,No_0_17,No_0_18,No_0_19,No_0_20,No_1_93,No_1_100,No_1_101,No_1_103,No_0_17,No_0_18,No_0_19,No_0_20,No_1_93,No_1_100,No_1_101,No_1_103
     RDKit          3D

 40 45  0  0  1  0  0  0  0  0999 V2000
   -5.0530    3.4550  -22.0680 C   0  0  0  0  0  0  0  0  0  0  0  0
   -5.3120    3.6430  -23.4050 C   0  0  0  0  0  0  0  0  0  0  0  0
   -3.8130    3.2240  -21.7180 C   0  0  0  0  0  0  0  0  0  0  0  0
   -2.9070    3.3740  -23.8760 C   0  0  0  0  0  0  0  0  0  0  0  0
   -2.7530    3.1280  -22.4550 C   0  0  0  0  0  0  0  0  0  0  0  0
   -4.2550    3.6130  -24.4070 C   0  0  0  0  0  0  0  0  0  0  0  0
   -3.4830    3.6560  -26.5990 C   0  0  0  0  0  0  0  0  0  0  0  0
    6.2160    3.0870  -21.2580 C   0  0  0  0  0  0  0  0  0  0  0  0
    6.0950    3.2350  -23.8080 C   0  0  0  0  0  0  0  0  0  0  0  0
   -4.4980    3.7400  -25.7440 C   0  0  0  0  0  0  0  0  0  0  0  0
    2.3010    3.7120  -23.8540 C   0  0  0  0  0  0  0  0  0  0  0  0
    1.4570    4.8040  -23.5580 C   0  0  0  0  0  0  0  0  0  0  0  0
    3.2270    6.0310  -22.8600 C   0  0  0  0  0  0  0  0  0  0  0  0
    3.6950    3.9280  -23.5290 C   0  0  0  0  0  0  0  0  0  0  0  0
    1.7810    2.5870  -24.5230 C   0  0  0  0  0  0  0  0  0  0  0  0
   -0.3620    3.3600  -24.4270 C   0  0  0  0  0  0  0  0  0  0  0  0
    0.1370    4.5880  -23.8200 C   0  0  0  0  0  0  0  0  0  0  0  0
   -1.8120    3.3400  -24.7930 C   0  0  0  0  0  0  0  0  0  0  0  0
    4.3450    1.4410  -23.2400 C   0  0  0  0  0  0  0  0  0  0  0  0
    5.2760    1.0990  -22.0870 C   0  0  2  0  0  0  0  0  0  0  0  0
    6.8440    2.6710  -22.6060 C   0  0  2  0  0  0  0  0  0  0  0  0
    5.2300    2.0960  -20.9170 C   0  0  0  0  0  0  0  0  0  0  0  0
   -2.1290    3.4980  -26.2230 C   0  0  0  0  0  0  0  0  0  0  0  0
   -1.4060    2.7380  -21.8470 C   0  0  0  0  0  0  0  0  0  0  0  0
   -0.3730    2.4080  -21.3340 C   0  0  0  0  0  0  0  0  0  0  0  0
   -0.7270    5.6160  -23.4790 F   0  0  0  0  0  0  0  0  0  0  0  0
   -3.6090    2.9810  -20.3350 F   0  0  0  0  0  0  0  0  0  0  0  0
    1.9080    5.9700  -23.0190 N   0  0  0  0  0  0  0  0  0  0  0  0
    4.1430    5.0860  -23.0760 N   0  0  0  0  0  0  0  0  0  0  0  0
    0.4790    2.4740  -24.8390 N   0  0  0  0  0  0  0  0  0  0  0  0
    4.6340    2.8980  -23.7020 N   0  0  0  0  0  0  0  0  0  0  0  0
    6.6850    1.1940  -22.5580 N   0  0  0  0  0  0  0  0  0  0  0  0
   -3.6450    3.6720  -27.9900 O   0  0  0  0  0  0  0  0  0  0  0  0
    6.1130    8.8280  -21.2010 N   0  0  0  0  0  0  0  0  0  0  0  0
    7.3340    7.2540  -19.8680 N   0  0  0  0  0  0  0  0  0  0  0  0
    4.1050    7.4030  -20.8810 C   0  0  0  0  0  0  0  0  0  0  0  0
    4.8490    8.6930  -20.4870 C   0  0  0  0  0  0  0  0  0  0  0  0
    3.7570    7.3790  -22.3830 C   0  0  0  0  0  0  0  0  0  0  0  0
    7.2080    8.1300  -20.8720 C   0  0  0  0  0  0  0  0  0  0  0  0
    8.4120    8.3820  -21.7510 C   0  0  0  0  0  0  0  0  0  0  0  0
  1  2  2  0
  1  3  1  0
  2  6  1  0
  3  5  2  0
  3 27  1  0
  4  5  1  0
  4  6  2  0
  4 18  1  0
  5 24  1  0
  6 10  1  0
  7 10  2  0
  7 23  1  0
  7 33  1  0
 21  8  1  1
  8 22  1  0
  9 21  1  0
  9 31  1  0
 11 12  2  0
 11 14  1  0
 11 15  1  0
 12 17  1  0
 12 28  1  0
 13 28  2  0
 13 29  1  0
 13 38  1  0
 14 29  2  0
 14 31  1  0
 15 30  2  0
 16 17  2  0
 16 18  1  0
 16 30  1  0
 17 26  1  0
 18 23  2  0
 20 19  1  6
 19 31  1  0
 20 22  1  0
 20 32  1  0
 21 32  1  0
 24 25  3  0
 34 37  1  0
 34 39  2  0
 35 39  1  0
 36 37  1  0
 36 38  1  0
 39 40  1  0
M  CHG  1  34   1
M  END
>  <s_m_entry_id>  (8) 
159

>  <s_m_entry_name>  (8) 
000000017.1

>  <s_m_Source_Path>  (8) 
/Users/zaksoul/Documents/1

>  <s_m_Source_File>  (8) 
000000017.mol2

>  <i_m_Source_File_Index>  (8) 
1

$$$$
No_0_21,No_0_22,No_0_23,No_0_24,No_0_25,No_0_26,No_0_27,No_1_87,No_1_89,No_1_92,No_1_94,No_1_95,No_1_99,No_1_108,No_0_21,No_0_22,No_0_23,No_0_24,No_0_25,No_0_26,No_0_27,No_1_87,No_1_89,No_1_92,No_1_94,No_1_95,No_1_99,No_1_108,No_0_21,No_0_22,No_0_23,No_0_24,No_0_25,No_0_26,No_0_27,No_1_87,No_1_89,No_1_92,No_1_94,No_1_95,No_1_99,No_1_108,No_0_21,No_0_22,No_0_23,No_0_24,No_0_25,No_0_26,No_0_27,No_1_87,No_1_89,No_1_92,No_1_94,No_1_95,No_1_99,No_1_108,No_0_21,No_0_22,No_0_23,No_0_24,No_0_25,No_0_26,No_0_27,No_1_87,No_1_89,No_1_92,No_1_94,No_1_95,No_1_99,No_1_108
     RDKit          3D

 40 45  0  0  1  0  0  0  0  0999 V2000
   -5.0530    3.4550  -22.0680 C   0  0  0  0  0  0  0  0  0  0  0  0
   -5.3120    3.6430  -23.4050 C   0  0  0  0  0  0  0  0  0  0  0  0
   -3.8130    3.2240  -21.7180 C   0  0  0  0  0  0  0  0  0  0  0  0
   -2.9070    3.3740  -23.8760 C   0  0  0  0  0  0  0  0  0  0  0  0
   -2.7530    3.1280  -22.4550 C   0  0  0  0  0  0  0  0  0  0  0  0
   -4.2550    3.6130  -24.4070 C   0  0  0  0  0  0  0  0  0  0  0  0
   -3.4830    3.6560  -26.5990 C   0  0  0  0  0  0  0  0  0  0  0  0
    6.2160    3.0870  -21.2580 C   0  0  0  0  0  0  0  0  0  0  0  0
    6.0950    3.2350  -23.8080 C   0  0  0  0  0  0  0  0  0  0  0  0
   -4.4980    3.7400  -25.7440 C   0  0  0  0  0  0  0  0  0  0  0  0
    2.3010    3.7120  -23.8540 C   0  0  0  0  0  0  0  0  0  0  0  0
    1.4570    4.8040  -23.5580 C   0  0  0  0  0  0  0  0  0  0  0  0
    3.2270    6.0310  -22.8600 C   0  0  0  0  0  0  0  0  0  0  0  0
    3.6950    3.9280  -23.5290 C   0  0  0  0  0  0  0  0  0  0  0  0
    1.7810    2.5870  -24.5230 C   0  0  0  0  0  0  0  0  0  0  0  0
   -0.3620    3.3600  -24.4270 C   0  0  0  0  0  0  0  0  0  0  0  0
    0.1370    4.5880  -23.8200 C   0  0  0  0  0  0  0  0  0  0  0  0
   -1.8120    3.3400  -24.7930 C   0  0  0  0  0  0  0  0  0  0  0  0
    4.3450    1.4410  -23.2400 C   0  0  0  0  0  0  0  0  0  0  0  0
    5.2760    1.0990  -22.0870 C   0  0  2  0  0  0  0  0  0  0  0  0
    6.8440    2.6710  -22.6060 C   0  0  2  0  0  0  0  0  0  0  0  0
    5.2300    2.0960  -20.9170 C   0  0  0  0  0  0  0  0  0  0  0  0
   -2.1290    3.4980  -26.2230 C   0  0  0  0  0  0  0  0  0  0  0  0
   -1.4060    2.7380  -21.8470 C   0  0  0  0  0  0  0  0  0  0  0  0
   -0.3730    2.4080  -21.3340 C   0  0  0  0  0  0  0  0  0  0  0  0
   -0.7270    5.6160  -23.4790 F   0  0  0  0  0  0  0  0  0  0  0  0
   -3.6090    2.9810  -20.3350 F   0  0  0  0  0  0  0  0  0  0  0  0
    1.9080    5.9700  -23.0190 N   0  0  0  0  0  0  0  0  0  0  0  0
    4.1430    5.0860  -23.0760 N   0  0  0  0  0  0  0  0  0  0  0  0
    0.4790    2.4740  -24.8390 N   0  0  0  0  0  0  0  0  0  0  0  0
    4.6340    2.8980  -23.7020 N   0  0  0  0  0  0  0  0  0  0  0  0
    6.6850    1.1940  -22.5580 N   0  0  0  0  0  0  0  0  0  0  0  0
   -3.6450    3.6720  -27.9900 O   0  0  0  0  0  0  0  0  0  0  0  0
    6.8970    8.5610  -22.0630 O   0  0  0  0  0  0  0  0  0  0  0  0
    4.0170    8.9130  -20.3410 N   0  0  0  0  0  0  0  0  0  0  0  0
    6.0570   10.6270  -21.6580 N   0  0  0  0  0  0  0  0  0  0  0  0
    3.4130    7.6530  -20.9050 C   0  0  0  0  0  0  0  0  0  0  0  0
    5.5080    8.9060  -20.1280 C   0  0  0  0  0  0  0  0  0  0  0  0
    3.7570    7.3790  -22.3830 C   0  0  0  0  0  0  0  0  0  0  0  0
    6.2250    9.3260  -21.3870 C   0  0  0  0  0  0  0  0  0  0  0  0
  1  2  2  0
  1  3  1  0
  2  6  1  0
  3  5  2  0
  3 27  1  0
  4  5  1  0
  4  6  2  0
  4 18  1  0
  5 24  1  0
  6 10  1  0
  7 10  2  0
  7 23  1  0
  7 33  1  0
 21  8  1  1
  8 22  1  0
  9 21  1  0
  9 31  1  0
 11 12  2  0
 11 14  1  0
 11 15  1  0
 12 17  1  0
 12 28  1  0
 13 28  2  0
 13 29  1  0
 13 39  1  0
 14 29  2  0
 14 31  1  0
 15 30  2  0
 16 17  2  0
 16 18  1  0
 16 30  1  0
 17 26  1  0
 18 23  2  0
 20 19  1  6
 19 31  1  0
 20 22  1  0
 20 32  1  0
 21 32  1  0
 24 25  3  0
 34 40  2  0
 35 37  1  0
 35 38  1  0
 36 40  1  0
 37 39  1  0
 38 40  1  0
M  CHG  1  35   1
M  END
>  <s_m_entry_id>  (9) 
163

>  <s_m_entry_name>  (9) 
000000021.1

>  <s_m_Source_Path>  (9) 
/Users/zaksoul/Documents/1

>  <s_m_Source_File>  (9) 
000000021.mol2

>  <i_m_Source_File_Index>  (9) 
1

$$$$
No_0_28,No_0_29,No_0_30,No_0_31,No_0_32,No_1_37,No_1_62,No_1_71,No_1_115,No_1_116,No_0_28,No_0_29,No_0_30,No_0_31,No_0_32,No_1_37,No_1_62,No_1_71,No_1_115,No_1_116,No_0_28,No_0_29,No_0_30,No_0_31,No_0_32,No_1_37,No_1_62,No_1_71,No_1_115,No_1_116,No_0_28,No_0_29,No_0_30,No_0_31,No_0_32,No_1_37,No_1_62,No_1_71,No_1_115,No_1_116,No_0_28,No_0_29,No_0_30,No_0_31,No_0_32,No_1_37,No_1_62,No_1_71,No_1_115,No_1_116
     RDKit          3D

 41 46  0  0  1  0  0  0  0  0999 V2000
   -5.0530    3.4550  -22.0680 C   0  0  0  0  0  0  0  0  0  0  0  0
   -5.3120    3.6430  -23.4050 C   0  0  0  0  0  0  0  0  0  0  0  0
   -3.8130    3.2240  -21.7180 C   0  0  0  0  0  0  0  0  0  0  0  0
   -2.9070    3.3740  -23.8760 C   0  0  0  0  0  0  0  0  0  0  0  0
   -2.7530    3.1280  -22.4550 C   0  0  0  0  0  0  0  0  0  0  0  0
   -4.2550    3.6130  -24.4070 C   0  0  0  0  0  0  0  0  0  0  0  0
   -3.4830    3.6560  -26.5990 C   0  0  0  0  0  0  0  0  0  0  0  0
    6.2160    3.0870  -21.2580 C   0  0  0  0  0  0  0  0  0  0  0  0
    6.0950    3.2350  -23.8080 C   0  0  0  0  0  0  0  0  0  0  0  0
   -4.4980    3.7400  -25.7440 C   0  0  0  0  0  0  0  0  0  0  0  0
    2.3010    3.7120  -23.8540 C   0  0  0  0  0  0  0  0  0  0  0  0
    1.4570    4.8040  -23.5580 C   0  0  0  0  0  0  0  0  0  0  0  0
    3.2270    6.0310  -22.8600 C   0  0  0  0  0  0  0  0  0  0  0  0
    3.6950    3.9280  -23.5290 C   0  0  0  0  0  0  0  0  0  0  0  0
    1.7810    2.5870  -24.5230 C   0  0  0  0  0  0  0  0  0  0  0  0
   -0.3620    3.3600  -24.4270 C   0  0  0  0  0  0  0  0  0  0  0  0
    0.1370    4.5880  -23.8200 C   0  0  0  0  0  0  0  0  0  0  0  0
   -1.8120    3.3400  -24.7930 C   0  0  0  0  0  0  0  0  0  0  0  0
    4.3450    1.4410  -23.2400 C   0  0  0  0  0  0  0  0  0  0  0  0
    5.2760    1.0990  -22.0870 C   0  0  2  0  0  0  0  0  0  0  0  0
    6.8440    2.6710  -22.6060 C   0  0  2  0  0  0  0  0  0  0  0  0
    5.2300    2.0960  -20.9170 C   0  0  0  0  0  0  0  0  0  0  0  0
   -2.1290    3.4980  -26.2230 C   0  0  0  0  0  0  0  0  0  0  0  0
   -1.4060    2.7380  -21.8470 C   0  0  0  0  0  0  0  0  0  0  0  0
   -0.3730    2.4080  -21.3340 C   0  0  0  0  0  0  0  0  0  0  0  0
   -0.7270    5.6160  -23.4790 F   0  0  0  0  0  0  0  0  0  0  0  0
   -3.6090    2.9810  -20.3350 F   0  0  0  0  0  0  0  0  0  0  0  0
    1.9080    5.9700  -23.0190 N   0  0  0  0  0  0  0  0  0  0  0  0
    4.1430    5.0860  -23.0760 N   0  0  0  0  0  0  0  0  0  0  0  0
    0.4790    2.4740  -24.8390 N   0  0  0  0  0  0  0  0  0  0  0  0
    4.6340    2.8980  -23.7020 N   0  0  0  0  0  0  0  0  0  0  0  0
    6.6850    1.1940  -22.5580 N   0  0  0  0  0  0  0  0  0  0  0  0
   -3.6450    3.6720  -27.9900 O   0  0  0  0  0  0  0  0  0  0  0  0
    7.7820   10.8950  -21.2380 O   0  0  0  0  0  0  0  0  0  0  0  0
    9.1580    9.1320  -20.7760 O   0  0  0  0  0  0  0  0  0  0  0  0
    4.0820    7.3530  -20.9130 N   0  0  0  0  0  0  0  0  0  0  0  0
    4.2870    8.7000  -20.2680 C   0  0  0  0  0  0  0  0  0  0  0  0
    3.7570    7.3790  -22.3830 C   0  0  0  0  0  0  0  0  0  0  0  0
    5.4970    9.4920  -20.8020 C   0  0  0  0  0  0  0  0  0  0  0  0
    6.8350    8.9080  -20.3100 C   0  0  0  0  0  0  0  0  0  0  0  0
    8.0150    9.7090  -20.8120 C   0  0  0  0  0  0  0  0  0  0  0  0
  1  2  2  0
  1  3  1  0
  2  6  1  0
  3  5  2  0
  3 27  1  0
  4  5  1  0
  4  6  2  0
  4 18  1  0
  5 24  1  0
  6 10  1  0
  7 10  2  0
  7 23  1  0
  7 33  1  0
 21  8  1  1
  8 22  1  0
  9 21  1  0
  9 31  1  0
 11 12  2  0
 11 14  1  0
 11 15  1  0
 12 17  1  0
 12 28  1  0
 13 28  2  0
 13 29  1  0
 13 38  1  0
 14 29  2  0
 14 31  1  0
 15 30  2  0
 16 17  2  0
 16 18  1  0
 16 30  1  0
 17 26  1  0
 18 23  2  0
 20 19  1  6
 19 31  1  0
 20 22  1  0
 20 32  1  0
 21 32  1  0
 24 25  3  0
 34 41  1  0
 35 41  2  0
 36 37  1  0
 36 38  1  0
 37 39  1  0
 39 40  1  0
 40 41  1  0
M  CHG  2  34  -1  36   1
M  END
>  <s_m_entry_id>  (10) 
170

>  <s_m_entry_name>  (10) 
000000028.1

>  <s_m_Source_Path>  (10) 
/Users/zaksoul/Documents/1

>  <s_m_Source_File>  (10) 
000000028.mol2

>  <i_m_Source_File_Index>  (10) 
1

$$$$
No_0_33,No_0_34,No_0_35,No_1_56,No_1_74,No_1_80,No_0_33,No_0_34,No_0_35,No_1_56,No_1_74,No_1_80,No_0_33,No_0_34,No_0_35,No_1_56,No_1_74,No_1_80,No_0_33,No_0_34,No_0_35,No_1_56,No_1_74,No_1_80,No_0_33,No_0_34,No_0_35,No_1_56,No_1_74,No_1_80
     RDKit          3D

 40 45  0  0  1  0  0  0  0  0999 V2000
   -5.0530    3.4550  -22.0680 C   0  0  0  0  0  0  0  0  0  0  0  0
   -5.3120    3.6430  -23.4050 C   0  0  0  0  0  0  0  0  0  0  0  0
   -3.8130    3.2240  -21.7180 C   0  0  0  0  0  0  0  0  0  0  0  0
   -2.9070    3.3740  -23.8760 C   0  0  0  0  0  0  0  0  0  0  0  0
   -2.7530    3.1280  -22.4550 C   0  0  0  0  0  0  0  0  0  0  0  0
   -4.2550    3.6130  -24.4070 C   0  0  0  0  0  0  0  0  0  0  0  0
   -3.4830    3.6560  -26.5990 C   0  0  0  0  0  0  0  0  0  0  0  0
    6.2160    3.0870  -21.2580 C   0  0  0  0  0  0  0  0  0  0  0  0
    6.0950    3.2350  -23.8080 C   0  0  0  0  0  0  0  0  0  0  0  0
   -4.4980    3.7400  -25.7440 C   0  0  0  0  0  0  0  0  0  0  0  0
    2.3010    3.7120  -23.8540 C   0  0  0  0  0  0  0  0  0  0  0  0
    1.4570    4.8040  -23.5580 C   0  0  0  0  0  0  0  0  0  0  0  0
    3.2270    6.0310  -22.8600 C   0  0  0  0  0  0  0  0  0  0  0  0
    3.6950    3.9280  -23.5290 C   0  0  0  0  0  0  0  0  0  0  0  0
    1.7810    2.5870  -24.5230 C   0  0  0  0  0  0  0  0  0  0  0  0
   -0.3620    3.3600  -24.4270 C   0  0  0  0  0  0  0  0  0  0  0  0
    0.1370    4.5880  -23.8200 C   0  0  0  0  0  0  0  0  0  0  0  0
   -1.8120    3.3400  -24.7930 C   0  0  0  0  0  0  0  0  0  0  0  0
    4.3450    1.4410  -23.2400 C   0  0  0  0  0  0  0  0  0  0  0  0
    5.2760    1.0990  -22.0870 C   0  0  2  0  0  0  0  0  0  0  0  0
    6.8440    2.6710  -22.6060 C   0  0  2  0  0  0  0  0  0  0  0  0
    5.2300    2.0960  -20.9170 C   0  0  0  0  0  0  0  0  0  0  0  0
   -2.1290    3.4980  -26.2230 C   0  0  0  0  0  0  0  0  0  0  0  0
   -1.4060    2.7380  -21.8470 C   0  0  0  0  0  0  0  0  0  0  0  0
   -0.3730    2.4080  -21.3340 C   0  0  0  0  0  0  0  0  0  0  0  0
   -0.7270    5.6160  -23.4790 F   0  0  0  0  0  0  0  0  0  0  0  0
   -3.6090    2.9810  -20.3350 F   0  0  0  0  0  0  0  0  0  0  0  0
    1.9080    5.9700  -23.0190 N   0  0  0  0  0  0  0  0  0  0  0  0
    4.1430    5.0860  -23.0760 N   0  0  0  0  0  0  0  0  0  0  0  0
    0.4790    2.4740  -24.8390 N   0  0  0  0  0  0  0  0  0  0  0  0
    4.6340    2.8980  -23.7020 N   0  0  0  0  0  0  0  0  0  0  0  0
    6.6850    1.1940  -22.5580 N   0  0  0  0  0  0  0  0  0  0  0  0
   -3.6450    3.6720  -27.9900 O   0  0  0  0  0  0  0  0  0  0  0  0
    8.6460    9.1190  -20.6900 O   0  0  0  0  0  0  0  0  0  0  0  0
    4.4180    7.2700  -21.0310 N   0  0  0  0  0  0  0  0  0  0  0  0
    6.2330    9.0470  -21.0200 C   0  0  0  0  0  0  0  0  0  0  0  0
    3.7570    7.3790  -22.3830 C   0  0  0  0  0  0  0  0  0  0  0  0
    4.8850    8.5710  -20.4330 C   0  0  0  0  0  0  0  0  0  0  0  0
    7.4140    8.6570  -20.1130 C   0  0  0  0  0  0  0  0  0  0  0  0
    9.7710    8.8510  -19.8390 C   0  0  0  0  0  0  0  0  0  0  0  0
  1  2  2  0
  1  3  1  0
  2  6  1  0
  3  5  2  0
  3 27  1  0
  4  5  1  0
  4  6  2  0
  4 18  1  0
  5 24  1  0
  6 10  1  0
  7 10  2  0
  7 23  1  0
  7 33  1  0
 21  8  1  1
  8 22  1  0
  9 21  1  0
  9 31  1  0
 11 12  2  0
 11 14  1  0
 11 15  1  0
 12 17  1  0
 12 28  1  0
 13 28  2  0
 13 29  1  0
 13 37  1  0
 14 29  2  0
 14 31  1  0
 15 30  2  0
 16 17  2  0
 16 18  1  0
 16 30  1  0
 17 26  1  0
 18 23  2  0
 20 19  1  6
 19 31  1  0
 20 22  1  0
 20 32  1  0
 21 32  1  0
 24 25  3  0
 34 39  1  0
 34 40  1  0
 35 37  1  0
 35 38  1  0
 36 38  1  0
 36 39  1  0
M  CHG  1  35   1
M  END
>  <s_m_entry_id>  (11) 
175

>  <s_m_entry_name>  (11) 
000000033.1

>  <s_m_Source_Path>  (11) 
/Users/zaksoul/Documents/1

>  <s_m_Source_File>  (11) 
000000033.mol2

>  <i_m_Source_File_Index>  (11) 
1

$$$$
No_0_36,No_0_37,No_1_40,No_1_88,No_0_36,No_0_37,No_1_40,No_1_88,No_0_36,No_0_37,No_1_40,No_1_88,No_0_36,No_0_37,No_1_40,No_1_88,No_0_36,No_0_37,No_1_40,No_1_88
     RDKit          3D

 41 46  0  0  1  0  0  0  0  0999 V2000
   -5.0530    3.4550  -22.0680 C   0  0  0  0  0  0  0  0  0  0  0  0
   -5.3120    3.6430  -23.4050 C   0  0  0  0  0  0  0  0  0  0  0  0
   -3.8130    3.2240  -21.7180 C   0  0  0  0  0  0  0  0  0  0  0  0
   -2.9070    3.3740  -23.8760 C   0  0  0  0  0  0  0  0  0  0  0  0
   -2.7530    3.1280  -22.4550 C   0  0  0  0  0  0  0  0  0  0  0  0
   -4.2550    3.6130  -24.4070 C   0  0  0  0  0  0  0  0  0  0  0  0
   -3.4830    3.6560  -26.5990 C   0  0  0  0  0  0  0  0  0  0  0  0
    6.2160    3.0870  -21.2580 C   0  0  0  0  0  0  0  0  0  0  0  0
    6.0950    3.2350  -23.8080 C   0  0  0  0  0  0  0  0  0  0  0  0
   -4.4980    3.7400  -25.7440 C   0  0  0  0  0  0  0  0  0  0  0  0
    2.3010    3.7120  -23.8540 C   0  0  0  0  0  0  0  0  0  0  0  0
    1.4570    4.8040  -23.5580 C   0  0  0  0  0  0  0  0  0  0  0  0
    3.2270    6.0310  -22.8600 C   0  0  0  0  0  0  0  0  0  0  0  0
    3.6950    3.9280  -23.5290 C   0  0  0  0  0  0  0  0  0  0  0  0
    1.7810    2.5870  -24.5230 C   0  0  0  0  0  0  0  0  0  0  0  0
   -0.3620    3.3600  -24.4270 C   0  0  0  0  0  0  0  0  0  0  0  0
    0.1370    4.5880  -23.8200 C   0  0  0  0  0  0  0  0  0  0  0  0
   -1.8120    3.3400  -24.7930 C   0  0  0  0  0  0  0  0  0  0  0  0
    4.3450    1.4410  -23.2400 C   0  0  0  0  0  0  0  0  0  0  0  0
    5.2760    1.0990  -22.0870 C   0  0  2  0  0  0  0  0  0  0  0  0
    6.8440    2.6710  -22.6060 C   0  0  2  0  0  0  0  0  0  0  0  0
    5.2300    2.0960  -20.9170 C   0  0  0  0  0  0  0  0  0  0  0  0
   -2.1290    3.4980  -26.2230 C   0  0  0  0  0  0  0  0  0  0  0  0
   -1.4060    2.7380  -21.8470 C   0  0  0  0  0  0  0  0  0  0  0  0
   -0.3730    2.4080  -21.3340 C   0  0  0  0  0  0  0  0  0  0  0  0
   -0.7270    5.6160  -23.4790 F   0  0  0  0  0  0  0  0  0  0  0  0
   -3.6090    2.9810  -20.3350 F   0  0  0  0  0  0  0  0  0  0  0  0
    1.9080    5.9700  -23.0190 N   0  0  0  0  0  0  0  0  0  0  0  0
    4.1430    5.0860  -23.0760 N   0  0  0  0  0  0  0  0  0  0  0  0
    0.4790    2.4740  -24.8390 N   0  0  0  0  0  0  0  0  0  0  0  0
    4.6340    2.8980  -23.7020 N   0  0  0  0  0  0  0  0  0  0  0  0
    6.6850    1.1940  -22.5580 N   0  0  0  0  0  0  0  0  0  0  0  0
   -3.6450    3.6720  -27.9900 O   0  0  0  0  0  0  0  0  0  0  0  0
    6.0430   10.9200  -21.2580 O   0  0  0  0  0  0  0  0  0  0  0  0
    6.7450    8.9890  -22.1730 O   0  0  0  0  0  0  0  0  0  0  0  0
    3.4000    7.6060  -20.9380 N   0  0  0  0  0  0  0  0  0  0  0  0
    3.7570    7.3790  -22.3830 C   0  0  0  0  0  0  0  0  0  0  0  0
    3.8860    8.8970  -20.3330 C   0  0  0  0  0  0  0  0  0  0  0  0
    5.4180    8.9360  -20.1340 C   0  0  0  0  0  0  0  0  0  0  0  0
    6.1320    9.5780  -21.3020 C   0  0  0  0  0  0  0  0  0  0  0  0
    6.7290   11.6530  -22.2870 C   0  0  0  0  0  0  0  0  0  0  0  0
  1  2  2  0
  1  3  1  0
  2  6  1  0
  3  5  2  0
  3 27  1  0
  4  5  1  0
  4  6  2  0
  4 18  1  0
  5 24  1  0
  6 10  1  0
  7 10  2  0
  7 23  1  0
  7 33  1  0
 21  8  1  1
  8 22  1  0
  9 21  1  0
  9 31  1  0
 11 12  2  0
 11 14  1  0
 11 15  1  0
 12 17  1  0
 12 28  1  0
 13 28  2  0
 13 29  1  0
 13 37  1  0
 14 29  2  0
 14 31  1  0
 15 30  2  0
 16 17  2  0
 16 18  1  0
 16 30  1  0
 17 26  1  0
 18 23  2  0
 20 19  1  6
 19 31  1  0
 20 22  1  0
 20 32  1  0
 21 32  1  0
 24 25  3  0
 34 40  1  0
 34 41  1  0
 35 40  2  0
 36 37  1  0
 36 38  1  0
 38 39  1  0
 39 40  1  0
M  CHG  1  36   1
M  END
>  <s_m_entry_id>  (12) 
178

>  <s_m_entry_name>  (12) 
000000036.1

>  <s_m_Source_Path>  (12) 
/Users/zaksoul/Documents/1

>  <s_m_Source_File>  (12) 
000000036.mol2

>  <i_m_Source_File_Index>  (12) 
1

$$$$
No_0_38,No_0_39,No_0_40,No_0_41,No_0_42,No_0_43,No_0_44,No_1_24,No_1_35,No_1_45,No_1_47,No_1_69,No_1_79,No_1_83,No_0_38,No_0_39,No_0_40,No_0_41,No_0_42,No_0_43,No_0_44,No_1_24,No_1_35,No_1_45,No_1_47,No_1_69,No_1_79,No_1_83,No_0_38,No_0_39,No_0_40,No_0_41,No_0_42,No_0_43,No_0_44,No_1_24,No_1_35,No_1_45,No_1_47,No_1_69,No_1_79,No_1_83,No_0_38,No_0_39,No_0_40,No_0_41,No_0_42,No_0_43,No_0_44,No_1_24,No_1_35,No_1_45,No_1_47,No_1_69,No_1_79,No_1_83,No_0_38,No_0_39,No_0_40,No_0_41,No_0_42,No_0_43,No_0_44,No_1_24,No_1_35,No_1_45,No_1_47,No_1_69,No_1_79,No_1_83
     RDKit          3D

 40 45  0  0  1  0  0  0  0  0999 V2000
   -5.0530    3.4550  -22.0680 C   0  0  0  0  0  0  0  0  0  0  0  0
   -5.3120    3.6430  -23.4050 C   0  0  0  0  0  0  0  0  0  0  0  0
   -3.8130    3.2240  -21.7180 C   0  0  0  0  0  0  0  0  0  0  0  0
   -2.9070    3.3740  -23.8760 C   0  0  0  0  0  0  0  0  0  0  0  0
   -2.7530    3.1280  -22.4550 C   0  0  0  0  0  0  0  0  0  0  0  0
   -4.2550    3.6130  -24.4070 C   0  0  0  0  0  0  0  0  0  0  0  0
   -3.4830    3.6560  -26.5990 C   0  0  0  0  0  0  0  0  0  0  0  0
    6.2160    3.0870  -21.2580 C   0  0  0  0  0  0  0  0  0  0  0  0
    6.0950    3.2350  -23.8080 C   0  0  0  0  0  0  0  0  0  0  0  0
   -4.4980    3.7400  -25.7440 C   0  0  0  0  0  0  0  0  0  0  0  0
    2.3010    3.7120  -23.8540 C   0  0  0  0  0  0  0  0  0  0  0  0
    1.4570    4.8040  -23.5580 C   0  0  0  0  0  0  0  0  0  0  0  0
    3.2270    6.0310  -22.8600 C   0  0  0  0  0  0  0  0  0  0  0  0
    3.6950    3.9280  -23.5290 C   0  0  0  0  0  0  0  0  0  0  0  0
    1.7810    2.5870  -24.5230 C   0  0  0  0  0  0  0  0  0  0  0  0
   -0.3620    3.3600  -24.4270 C   0  0  0  0  0  0  0  0  0  0  0  0
    0.1370    4.5880  -23.8200 C   0  0  0  0  0  0  0  0  0  0  0  0
   -1.8120    3.3400  -24.7930 C   0  0  0  0  0  0  0  0  0  0  0  0
    4.3450    1.4410  -23.2400 C   0  0  0  0  0  0  0  0  0  0  0  0
    5.2760    1.0990  -22.0870 C   0  0  2  0  0  0  0  0  0  0  0  0
    6.8440    2.6710  -22.6060 C   0  0  2  0  0  0  0  0  0  0  0  0
    5.2300    2.0960  -20.9170 C   0  0  0  0  0  0  0  0  0  0  0  0
   -2.1290    3.4980  -26.2230 C   0  0  0  0  0  0  0  0  0  0  0  0
   -1.4060    2.7380  -21.8470 C   0  0  0  0  0  0  0  0  0  0  0  0
   -0.3730    2.4080  -21.3340 C   0  0  0  0  0  0  0  0  0  0  0  0
   -0.7270    5.6160  -23.4790 F   0  0  0  0  0  0  0  0  0  0  0  0
   -3.6090    2.9810  -20.3350 F   0  0  0  0  0  0  0  0  0  0  0  0
    1.9080    5.9700  -23.0190 N   0  0  0  0  0  0  0  0  0  0  0  0
    4.1430    5.0860  -23.0760 N   0  0  0  0  0  0  0  0  0  0  0  0
    0.4790    2.4740  -24.8390 N   0  0  0  0  0  0  0  0  0  0  0  0
    4.6340    2.8980  -23.7020 N   0  0  0  0  0  0  0  0  0  0  0  0
    6.6850    1.1940  -22.5580 N   0  0  0  0  0  0  0  0  0  0  0  0
   -3.6450    3.6720  -27.9900 O   0  0  0  0  0  0  0  0  0  0  0  0
    3.9290   10.9670  -23.1280 O   0  0  0  0  0  0  0  0  0  0  0  0
    5.7430    9.7770  -22.4190 O   0  0  0  0  0  0  0  0  0  0  0  0
    3.4200    7.6450  -20.9390 N   0  0  0  0  0  0  0  0  0  0  0  0
    3.7570    7.3790  -22.3830 C   0  0  0  0  0  0  0  0  0  0  0  0
    3.9350   10.1350  -20.9010 C   0  0  0  0  0  0  0  0  0  0  0  0
    4.2040    8.7510  -20.2810 C   0  0  0  0  0  0  0  0  0  0  0  0
    4.5870   10.3050  -22.2520 C   0  0  0  0  0  0  0  0  0  0  0  0
  1  2  2  0
  1  3  1  0
  2  6  1  0
  3  5  2  0
  3 27  1  0
  4  5  1  0
  4  6  2  0
  4 18  1  0
  5 24  1  0
  6 10  1  0
  7 10  2  0
  7 23  1  0
  7 33  1  0
 21  8  1  1
  8 22  1  0
  9 21  1  0
  9 31  1  0
 11 12  2  0
 11 14  1  0
 11 15  1  0
 12 17  1  0
 12 28  1  0
 13 28  2  0
 13 29  1  0
 13 37  1  0
 14 29  2  0
 14 31  1  0
 15 30  2  0
 16 17  2  0
 16 18  1  0
 16 30  1  0
 17 26  1  0
 18 23  2  0
 20 19  1  6
 19 31  1  0
 20 22  1  0
 20 32  1  0
 21 32  1  0
 24 25  3  0
 34 40  1  0
 35 40  2  0
 36 37  1  0
 36 39  1  0
 38 39  1  0
 38 40  1  0
M  CHG  2  34  -1  36   1
M  END
>  <s_m_entry_id>  (13) 
180

>  <s_m_entry_name>  (13) 
000000038.1

>  <s_m_Source_Path>  (13) 
/Users/zaksoul/Documents/1

>  <s_m_Source_File>  (13) 
000000038.mol2

>  <i_m_Source_File_Index>  (13) 
1

$$$$
No_0_53,No_0_54,No_1_46,No_1_58,No_0_53,No_0_54,No_1_46,No_1_58,No_0_53,No_0_54,No_1_46,No_1_58,No_0_53,No_0_54,No_1_46,No_1_58,No_0_53,No_0_54,No_1_46,No_1_58
     RDKit          3D

 41 46  0  0  1  0  0  0  0  0999 V2000
   -5.0530    3.4550  -22.0680 C   0  0  0  0  0  0  0  0  0  0  0  0
   -5.3120    3.6430  -23.4050 C   0  0  0  0  0  0  0  0  0  0  0  0
   -3.8130    3.2240  -21.7180 C   0  0  0  0  0  0  0  0  0  0  0  0
   -2.9070    3.3740  -23.8760 C   0  0  0  0  0  0  0  0  0  0  0  0
   -2.7530    3.1280  -22.4550 C   0  0  0  0  0  0  0  0  0  0  0  0
   -4.2550    3.6130  -24.4070 C   0  0  0  0  0  0  0  0  0  0  0  0
   -3.4830    3.6560  -26.5990 C   0  0  0  0  0  0  0  0  0  0  0  0
    6.2160    3.0870  -21.2580 C   0  0  0  0  0  0  0  0  0  0  0  0
    6.0950    3.2350  -23.8080 C   0  0  0  0  0  0  0  0  0  0  0  0
   -4.4980    3.7400  -25.7440 C   0  0  0  0  0  0  0  0  0  0  0  0
    2.3010    3.7120  -23.8540 C   0  0  0  0  0  0  0  0  0  0  0  0
    1.4570    4.8040  -23.5580 C   0  0  0  0  0  0  0  0  0  0  0  0
    3.2270    6.0310  -22.8600 C   0  0  0  0  0  0  0  0  0  0  0  0
    3.6950    3.9280  -23.5290 C   0  0  0  0  0  0  0  0  0  0  0  0
    1.7810    2.5870  -24.5230 C   0  0  0  0  0  0  0  0  0  0  0  0
   -0.3620    3.3600  -24.4270 C   0  0  0  0  0  0  0  0  0  0  0  0
    0.1370    4.5880  -23.8200 C   0  0  0  0  0  0  0  0  0  0  0  0
   -1.8120    3.3400  -24.7930 C   0  0  0  0  0  0  0  0  0  0  0  0
    4.3450    1.4410  -23.2400 C   0  0  0  0  0  0  0  0  0  0  0  0
    5.2760    1.0990  -22.0870 C   0  0  2  0  0  0  0  0  0  0  0  0
    6.8440    2.6710  -22.6060 C   0  0  2  0  0  0  0  0  0  0  0  0
    5.2300    2.0960  -20.9170 C   0  0  0  0  0  0  0  0  0  0  0  0
   -2.1290    3.4980  -26.2230 C   0  0  0  0  0  0  0  0  0  0  0  0
   -1.4060    2.7380  -21.8470 C   0  0  0  0  0  0  0  0  0  0  0  0
   -0.3730    2.4080  -21.3340 C   0  0  0  0  0  0  0  0  0  0  0  0
   -0.7270    5.6160  -23.4790 F   0  0  0  0  0  0  0  0  0  0  0  0
   -3.6090    2.9810  -20.3350 F   0  0  0  0  0  0  0  0  0  0  0  0
    1.9080    5.9700  -23.0190 N   0  0  0  0  0  0  0  0  0  0  0  0
    4.1430    5.0860  -23.0760 N   0  0  0  0  0  0  0  0  0  0  0  0
    0.4790    2.4740  -24.8390 N   0  0  0  0  0  0  0  0  0  0  0  0
    4.6340    2.8980  -23.7020 N   0  0  0  0  0  0  0  0  0  0  0  0
    6.6850    1.1940  -22.5580 N   0  0  0  0  0  0  0  0  0  0  0  0
   -3.6450    3.6720  -27.9900 O   0  0  0  0  0  0  0  0  0  0  0  0
    5.5760    9.9150  -22.2660 O   0  0  0  0  0  0  0  0  0  0  0  0
    4.4140    7.2540  -21.0330 N   0  0  0  0  0  0  0  0  0  0  0  0
    7.2330    8.9190  -21.0590 N   0  0  0  0  0  0  0  0  0  0  0  0
    5.9420    9.1910  -21.3510 C   0  0  0  0  0  0  0  0  0  0  0  0
    7.6730    8.0250  -19.9720 C   0  0  0  0  0  0  0  0  0  0  0  0
    8.3040    9.5480  -21.8440 C   0  0  0  0  0  0  0  0  0  0  0  0
    3.7570    7.3790  -22.3830 C   0  0  0  0  0  0  0  0  0  0  0  0
    4.9100    8.5470  -20.4470 C   0  0  0  0  0  0  0  0  0  0  0  0
  1  2  2  0
  1  3  1  0
  2  6  1  0
  3  5  2  0
  3 27  1  0
  4  5  1  0
  4  6  2  0
  4 18  1  0
  5 24  1  0
  6 10  1  0
  7 10  2  0
  7 23  1  0
  7 33  1  0
 21  8  1  1
  8 22  1  0
  9 21  1  0
  9 31  1  0
 11 12  2  0
 11 14  1  0
 11 15  1  0
 12 17  1  0
 12 28  1  0
 13 28  2  0
 13 29  1  0
 13 40  1  0
 14 29  2  0
 14 31  1  0
 15 30  2  0
 16 17  2  0
 16 18  1  0
 16 30  1  0
 17 26  1  0
 18 23  2  0
 20 19  1  6
 19 31  1  0
 20 22  1  0
 20 32  1  0
 21 32  1  0
 24 25  3  0
 34 37  2  0
 35 40  1  0
 35 41  1  0
 36 37  1  0
 36 38  1  0
 36 39  1  0
 37 41  1  0
M  END
>  <s_m_entry_id>  (14) 
191

>  <s_m_entry_name>  (14) 
000000049.1

>  <s_m_Source_Path>  (14) 
/Users/zaksoul/Documents/1

>  <s_m_Source_File>  (14) 
000000049.mol2

>  <i_m_Source_File_Index>  (14) 
1

$$$$
No_0_55,No_1_53,No_0_55,No_1_53,No_0_55,No_1_53,No_0_55,No_1_53,No_0_55,No_1_53
     RDKit          3D

 40 45  0  0  1  0  0  0  0  0999 V2000
   -5.0530    3.4550  -22.0680 C   0  0  0  0  0  0  0  0  0  0  0  0
   -5.3120    3.6430  -23.4050 C   0  0  0  0  0  0  0  0  0  0  0  0
   -3.8130    3.2240  -21.7180 C   0  0  0  0  0  0  0  0  0  0  0  0
   -2.9070    3.3740  -23.8760 C   0  0  0  0  0  0  0  0  0  0  0  0
   -2.7530    3.1280  -22.4550 C   0  0  0  0  0  0  0  0  0  0  0  0
   -4.2550    3.6130  -24.4070 C   0  0  0  0  0  0  0  0  0  0  0  0
   -3.4830    3.6560  -26.5990 C   0  0  0  0  0  0  0  0  0  0  0  0
    6.2160    3.0870  -21.2580 C   0  0  0  0  0  0  0  0  0  0  0  0
    6.0950    3.2350  -23.8080 C   0  0  0  0  0  0  0  0  0  0  0  0
   -4.4980    3.7400  -25.7440 C   0  0  0  0  0  0  0  0  0  0  0  0
    2.3010    3.7120  -23.8540 C   0  0  0  0  0  0  0  0  0  0  0  0
    1.4570    4.8040  -23.5580 C   0  0  0  0  0  0  0  0  0  0  0  0
    3.2270    6.0310  -22.8600 C   0  0  0  0  0  0  0  0  0  0  0  0
    3.6950    3.9280  -23.5290 C   0  0  0  0  0  0  0  0  0  0  0  0
    1.7810    2.5870  -24.5230 C   0  0  0  0  0  0  0  0  0  0  0  0
   -0.3620    3.3600  -24.4270 C   0  0  0  0  0  0  0  0  0  0  0  0
    0.1370    4.5880  -23.8200 C   0  0  0  0  0  0  0  0  0  0  0  0
   -1.8120    3.3400  -24.7930 C   0  0  0  0  0  0  0  0  0  0  0  0
    4.3450    1.4410  -23.2400 C   0  0  0  0  0  0  0  0  0  0  0  0
    5.2760    1.0990  -22.0870 C   0  0  2  0  0  0  0  0  0  0  0  0
    6.8440    2.6710  -22.6060 C   0  0  2  0  0  0  0  0  0  0  0  0
    5.2300    2.0960  -20.9170 C   0  0  0  0  0  0  0  0  0  0  0  0
   -2.1290    3.4980  -26.2230 C   0  0  0  0  0  0  0  0  0  0  0  0
   -1.4060    2.7380  -21.8470 C   0  0  0  0  0  0  0  0  0  0  0  0
   -0.3730    2.4080  -21.3340 C   0  0  0  0  0  0  0  0  0  0  0  0
   -0.7270    5.6160  -23.4790 F   0  0  0  0  0  0  0  0  0  0  0  0
   -3.6090    2.9810  -20.3350 F   0  0  0  0  0  0  0  0  0  0  0  0
    1.9080    5.9700  -23.0190 N   0  0  0  0  0  0  0  0  0  0  0  0
    4.1430    5.0860  -23.0760 N   0  0  0  0  0  0  0  0  0  0  0  0
    0.4790    2.4740  -24.8390 N   0  0  0  0  0  0  0  0  0  0  0  0
    4.6340    2.8980  -23.7020 N   0  0  0  0  0  0  0  0  0  0  0  0
    6.6850    1.1940  -22.5580 N   0  0  0  0  0  0  0  0  0  0  0  0
   -3.6450    3.6720  -27.9900 O   0  0  0  0  0  0  0  0  0  0  0  0
    4.8390    7.3730  -21.5870 O   0  0  0  0  0  0  0  0  0  0  0  0
    3.1750    8.3820  -22.7370 O   0  0  0  0  0  0  0  0  0  0  0  0
    6.4570    9.1410  -22.1830 N   0  0  0  0  0  0  0  0  0  0  0  0
    5.4090    8.6490  -21.2160 C   0  0  0  0  0  0  0  0  0  0  0  0
    7.3230   10.2140  -21.5850 C   0  0  0  0  0  0  0  0  0  0  0  0
    5.8910    9.5620  -23.5100 C   0  0  0  0  0  0  0  0  0  0  0  0
    3.7520    7.3660  -22.3880 C   0  0  0  0  0  0  0  0  0  0  0  0
  1  2  2  0
  1  3  1  0
  2  6  1  0
  3  5  2  0
  3 27  1  0
  4  5  1  0
  4  6  2  0
  4 18  1  0
  5 24  1  0
  6 10  1  0
  7 10  2  0
  7 23  1  0
  7 33  1  0
 21  8  1  1
  8 22  1  0
  9 21  1  0
  9 31  1  0
 11 12  2  0
 11 14  1  0
 11 15  1  0
 12 17  1  0
 12 28  1  0
 13 28  2  0
 13 29  1  0
 13 40  1  0
 14 29  2  0
 14 31  1  0
 15 30  2  0
 16 17  2  0
 16 18  1  0
 16 30  1  0
 17 26  1  0
 18 23  2  0
 20 19  1  6
 19 31  1  0
 20 22  1  0
 20 32  1  0
 21 32  1  0
 24 25  3  0
 34 37  1  0
 34 40  1  0
 35 40  2  0
 36 37  1  0
 36 38  1  0
 36 39  1  0
M  END
>  <s_m_entry_id>  (15) 
193

>  <s_m_entry_name>  (15) 
000000051.1

>  <s_m_Source_Path>  (15) 
/Users/zaksoul/Documents/1

>  <s_m_Source_File>  (15) 
000000051.mol2

>  <i_m_Source_File_Index>  (15) 
1

$$$$
No_0_56,No_1_106,No_0_56,No_1_106,No_0_56,No_1_106,No_0_56,No_1_106,No_0_56,No_1_106
     RDKit          3D

 41 46  0  0  1  0  0  0  0  0999 V2000
   -5.0530    3.4550  -22.0680 C   0  0  0  0  0  0  0  0  0  0  0  0
   -5.3120    3.6430  -23.4050 C   0  0  0  0  0  0  0  0  0  0  0  0
   -3.8130    3.2240  -21.7180 C   0  0  0  0  0  0  0  0  0  0  0  0
   -2.9070    3.3740  -23.8760 C   0  0  0  0  0  0  0  0  0  0  0  0
   -2.7530    3.1280  -22.4550 C   0  0  0  0  0  0  0  0  0  0  0  0
   -4.2550    3.6130  -24.4070 C   0  0  0  0  0  0  0  0  0  0  0  0
   -3.4830    3.6560  -26.5990 C   0  0  0  0  0  0  0  0  0  0  0  0
    6.2160    3.0870  -21.2580 C   0  0  0  0  0  0  0  0  0  0  0  0
    6.0950    3.2350  -23.8080 C   0  0  0  0  0  0  0  0  0  0  0  0
   -4.4980    3.7400  -25.7440 C   0  0  0  0  0  0  0  0  0  0  0  0
    2.3010    3.7120  -23.8540 C   0  0  0  0  0  0  0  0  0  0  0  0
    1.4570    4.8040  -23.5580 C   0  0  0  0  0  0  0  0  0  0  0  0
    3.2270    6.0310  -22.8600 C   0  0  0  0  0  0  0  0  0  0  0  0
    3.6950    3.9280  -23.5290 C   0  0  0  0  0  0  0  0  0  0  0  0
    1.7810    2.5870  -24.5230 C   0  0  0  0  0  0  0  0  0  0  0  0
   -0.3620    3.3600  -24.4270 C   0  0  0  0  0  0  0  0  0  0  0  0
    0.1370    4.5880  -23.8200 C   0  0  0  0  0  0  0  0  0  0  0  0
   -1.8120    3.3400  -24.7930 C   0  0  0  0  0  0  0  0  0  0  0  0
    4.3450    1.4410  -23.2400 C   0  0  0  0  0  0  0  0  0  0  0  0
    5.2760    1.0990  -22.0870 C   0  0  2  0  0  0  0  0  0  0  0  0
    6.8440    2.6710  -22.6060 C   0  0  2  0  0  0  0  0  0  0  0  0
    5.2300    2.0960  -20.9170 C   0  0  0  0  0  0  0  0  0  0  0  0
   -2.1290    3.4980  -26.2230 C   0  0  0  0  0  0  0  0  0  0  0  0
   -1.4060    2.7380  -21.8470 C   0  0  0  0  0  0  0  0  0  0  0  0
   -0.3730    2.4080  -21.3340 C   0  0  0  0  0  0  0  0  0  0  0  0
   -0.7270    5.6160  -23.4790 F   0  0  0  0  0  0  0  0  0  0  0  0
   -3.6090    2.9810  -20.3350 F   0  0  0  0  0  0  0  0  0  0  0  0
    1.9080    5.9700  -23.0190 N   0  0  0  0  0  0  0  0  0  0  0  0
    4.1430    5.0860  -23.0760 N   0  0  0  0  0  0  0  0  0  0  0  0
    0.4790    2.4740  -24.8390 N   0  0  0  0  0  0  0  0  0  0  0  0
    4.6340    2.8980  -23.7020 N   0  0  0  0  0  0  0  0  0  0  0  0
    6.6850    1.1940  -22.5580 N   0  0  0  0  0  0  0  0  0  0  0  0
   -3.6450    3.6720  -27.9900 O   0  0  0  0  0  0  0  0  0  0  0  0
    3.1630    8.3590  -22.7580 O   0  0  0  0  0  0  0  0  0  0  0  0
    5.3500   10.6240  -22.8100 N   0  0  0  0  0  0  0  0  0  0  0  0
    6.1760    9.5070  -22.2240 C   0  0  0  0  0  0  0  0  0  0  0  0
    5.7750   10.9660  -24.2110 C   0  0  0  0  0  0  0  0  0  0  0  0
    5.3050   11.8520  -21.9420 C   0  0  0  0  0  0  0  0  0  0  0  0
    4.9760    7.3530  -21.4970 C   0  0  0  0  0  0  0  0  0  0  0  0
    5.4750    8.7500  -21.0700 C   0  0  0  0  0  0  0  0  0  0  0  0
    3.7520    7.3660  -22.3880 C   0  0  0  0  0  0  0  0  0  0  0  0
  1  2  2  0
  1  3  1  0
  2  6  1  0
  3  5  2  0
  3 27  1  0
  4  5  1  0
  4  6  2  0
  4 18  1  0
  5 24  1  0
  6 10  1  0
  7 10  2  0
  7 23  1  0
  7 33  1  0
 21  8  1  1
  8 22  1  0
  9 21  1  0
  9 31  1  0
 11 12  2  0
 11 14  1  0
 11 15  1  0
 12 17  1  0
 12 28  1  0
 13 28  2  0
 13 29  1  0
 13 41  1  0
 14 29  2  0
 14 31  1  0
 15 30  2  0
 16 17  2  0
 16 18  1  0
 16 30  1  0
 17 26  1  0
 18 23  2  0
 20 19  1  6
 19 31  1  0
 20 22  1  0
 20 32  1  0
 21 32  1  0
 24 25  3  0
 34 41  2  0
 35 36  1  0
 35 37  1  0
 35 38  1  0
 36 40  1  0
 39 40  1  0
 39 41  1  0
M  CHG  1  35   1
M  END
>  <s_m_entry_id>  (16) 
194

>  <s_m_entry_name>  (16) 
000000052.1

>  <s_m_Source_Path>  (16) 
/Users/zaksoul/Documents/1

>  <s_m_Source_File>  (16) 
000000052.mol2

>  <i_m_Source_File_Index>  (16) 
1

$$$$
No_0_57,No_1_121,No_0_57,No_1_121,No_0_57,No_1_121,No_0_57,No_1_121,No_0_57,No_1_121
     RDKit          3D

 41 46  0  0  1  0  0  0  0  0999 V2000
   -5.0530    3.4550  -22.0680 C   0  0  0  0  0  0  0  0  0  0  0  0
   -5.3120    3.6430  -23.4050 C   0  0  0  0  0  0  0  0  0  0  0  0
   -3.8130    3.2240  -21.7180 C   0  0  0  0  0  0  0  0  0  0  0  0
   -2.9070    3.3740  -23.8760 C   0  0  0  0  0  0  0  0  0  0  0  0
   -2.7530    3.1280  -22.4550 C   0  0  0  0  0  0  0  0  0  0  0  0
   -4.2550    3.6130  -24.4070 C   0  0  0  0  0  0  0  0  0  0  0  0
   -3.4830    3.6560  -26.5990 C   0  0  0  0  0  0  0  0  0  0  0  0
    6.2160    3.0870  -21.2580 C   0  0  0  0  0  0  0  0  0  0  0  0
    6.0950    3.2350  -23.8080 C   0  0  0  0  0  0  0  0  0  0  0  0
   -4.4980    3.7400  -25.7440 C   0  0  0  0  0  0  0  0  0  0  0  0
    2.3010    3.7120  -23.8540 C   0  0  0  0  0  0  0  0  0  0  0  0
    1.4570    4.8040  -23.5580 C   0  0  0  0  0  0  0  0  0  0  0  0
    3.2270    6.0310  -22.8600 C   0  0  0  0  0  0  0  0  0  0  0  0
    3.6950    3.9280  -23.5290 C   0  0  0  0  0  0  0  0  0  0  0  0
    1.7810    2.5870  -24.5230 C   0  0  0  0  0  0  0  0  0  0  0  0
   -0.3620    3.3600  -24.4270 C   0  0  0  0  0  0  0  0  0  0  0  0
    0.1370    4.5880  -23.8200 C   0  0  0  0  0  0  0  0  0  0  0  0
   -1.8120    3.3400  -24.7930 C   0  0  0  0  0  0  0  0  0  0  0  0
    4.3450    1.4410  -23.2400 C   0  0  0  0  0  0  0  0  0  0  0  0
    5.2760    1.0990  -22.0870 C   0  0  2  0  0  0  0  0  0  0  0  0
    6.8440    2.6710  -22.6060 C   0  0  2  0  0  0  0  0  0  0  0  0
    5.2300    2.0960  -20.9170 C   0  0  0  0  0  0  0  0  0  0  0  0
   -2.1290    3.4980  -26.2230 C   0  0  0  0  0  0  0  0  0  0  0  0
   -1.4060    2.7380  -21.8470 C   0  0  0  0  0  0  0  0  0  0  0  0
   -0.3730    2.4080  -21.3340 C   0  0  0  0  0  0  0  0  0  0  0  0
   -0.7270    5.6160  -23.4790 F   0  0  0  0  0  0  0  0  0  0  0  0
   -3.6090    2.9810  -20.3350 F   0  0  0  0  0  0  0  0  0  0  0  0
    1.9080    5.9700  -23.0190 N   0  0  0  0  0  0  0  0  0  0  0  0
    4.1430    5.0860  -23.0760 N   0  0  0  0  0  0  0  0  0  0  0  0
    0.4790    2.4740  -24.8390 N   0  0  0  0  0  0  0  0  0  0  0  0
    4.6340    2.8980  -23.7020 N   0  0  0  0  0  0  0  0  0  0  0  0
    6.6850    1.1940  -22.5580 N   0  0  0  0  0  0  0  0  0  0  0  0
   -3.6450    3.6720  -27.9900 O   0  0  0  0  0  0  0  0  0  0  0  0
    3.2030    8.3680  -22.7980 O   0  0  0  0  0  0  0  0  0  0  0  0
    5.4460   10.6520  -22.5430 O   0  0  0  0  0  0  0  0  0  0  0  0
    8.0680    8.5300  -22.9660 N   0  0  0  0  0  0  0  0  0  0  0  0
    4.9500    7.3360  -21.4670 C   0  0  0  0  0  0  0  0  0  0  0  0
    5.5100    8.7380  -21.1580 C   0  0  0  0  0  0  0  0  0  0  0  0
    5.8580    9.5250  -22.4030 C   0  0  0  0  0  0  0  0  0  0  0  0
    6.7050    8.8890  -23.4820 C   0  0  0  0  0  0  0  0  0  0  0  0
    3.7520    7.3660  -22.3880 C   0  0  0  0  0  0  0  0  0  0  0  0
  1  2  2  0
  1  3  1  0
  2  6  1  0
  3  5  2  0
  3 27  1  0
  4  5  1  0
  4  6  2  0
  4 18  1  0
  5 24  1  0
  6 10  1  0
  7 10  2  0
  7 23  1  0
  7 33  1  0
 21  8  1  1
  8 22  1  0
  9 21  1  0
  9 31  1  0
 11 12  2  0
 11 14  1  0
 11 15  1  0
 12 17  1  0
 12 28  1  0
 13 28  2  0
 13 29  1  0
 13 41  1  0
 14 29  2  0
 14 31  1  0
 15 30  2  0
 16 17  2  0
 16 18  1  0
 16 30  1  0
 17 26  1  0
 18 23  2  0
 20 19  1  6
 19 31  1  0
 20 22  1  0
 20 32  1  0
 21 32  1  0
 24 25  3  0
 34 41  2  0
 35 39  2  0
 36 40  1  0
 37 38  1  0
 37 41  1  0
 38 39  1  0
 39 40  1  0
M  END
>  <s_m_entry_id>  (17) 
195

>  <s_m_entry_name>  (17) 
000000053.1

>  <s_m_Source_Path>  (17) 
/Users/zaksoul/Documents/1

>  <s_m_Source_File>  (17) 
000000053.mol2

>  <i_m_Source_File_Index>  (17) 
1

$$$$
No_0_58,No_1_104,No_0_58,No_1_104,No_0_58,No_1_104,No_0_58,No_1_104,No_0_58,No_1_104
     RDKit          3D

 41 46  0  0  1  0  0  0  0  0999 V2000
   -5.0530    3.4550  -22.0680 C   0  0  0  0  0  0  0  0  0  0  0  0
   -5.3120    3.6430  -23.4050 C   0  0  0  0  0  0  0  0  0  0  0  0
   -3.8130    3.2240  -21.7180 C   0  0  0  0  0  0  0  0  0  0  0  0
   -2.9070    3.3740  -23.8760 C   0  0  0  0  0  0  0  0  0  0  0  0
   -2.7530    3.1280  -22.4550 C   0  0  0  0  0  0  0  0  0  0  0  0
   -4.2550    3.6130  -24.4070 C   0  0  0  0  0  0  0  0  0  0  0  0
   -3.4830    3.6560  -26.5990 C   0  0  0  0  0  0  0  0  0  0  0  0
    6.2160    3.0870  -21.2580 C   0  0  0  0  0  0  0  0  0  0  0  0
    6.0950    3.2350  -23.8080 C   0  0  0  0  0  0  0  0  0  0  0  0
   -4.4980    3.7400  -25.7440 C   0  0  0  0  0  0  0  0  0  0  0  0
    2.3010    3.7120  -23.8540 C   0  0  0  0  0  0  0  0  0  0  0  0
    1.4570    4.8040  -23.5580 C   0  0  0  0  0  0  0  0  0  0  0  0
    3.2270    6.0310  -22.8600 C   0  0  0  0  0  0  0  0  0  0  0  0
    3.6950    3.9280  -23.5290 C   0  0  0  0  0  0  0  0  0  0  0  0
    1.7810    2.5870  -24.5230 C   0  0  0  0  0  0  0  0  0  0  0  0
   -0.3620    3.3600  -24.4270 C   0  0  0  0  0  0  0  0  0  0  0  0
    0.1370    4.5880  -23.8200 C   0  0  0  0  0  0  0  0  0  0  0  0
   -1.8120    3.3400  -24.7930 C   0  0  0  0  0  0  0  0  0  0  0  0
    4.3450    1.4410  -23.2400 C   0  0  0  0  0  0  0  0  0  0  0  0
    5.2760    1.0990  -22.0870 C   0  0  2  0  0  0  0  0  0  0  0  0
    6.8440    2.6710  -22.6060 C   0  0  2  0  0  0  0  0  0  0  0  0
    5.2300    2.0960  -20.9170 C   0  0  0  0  0  0  0  0  0  0  0  0
   -2.1290    3.4980  -26.2230 C   0  0  0  0  0  0  0  0  0  0  0  0
   -1.4060    2.7380  -21.8470 C   0  0  0  0  0  0  0  0  0  0  0  0
   -0.3730    2.4080  -21.3340 C   0  0  0  0  0  0  0  0  0  0  0  0
   -0.7270    5.6160  -23.4790 F   0  0  0  0  0  0  0  0  0  0  0  0
   -3.6090    2.9810  -20.3350 F   0  0  0  0  0  0  0  0  0  0  0  0
    1.9080    5.9700  -23.0190 N   0  0  0  0  0  0  0  0  0  0  0  0
    4.1430    5.0860  -23.0760 N   0  0  0  0  0  0  0  0  0  0  0  0
    0.4790    2.4740  -24.8390 N   0  0  0  0  0  0  0  0  0  0  0  0
    4.6340    2.8980  -23.7020 N   0  0  0  0  0  0  0  0  0  0  0  0
    6.6850    1.1940  -22.5580 N   0  0  0  0  0  0  0  0  0  0  0  0
   -3.6450    3.6720  -27.9900 O   0  0  0  0  0  0  0  0  0  0  0  0
    3.1590    8.3550  -22.7610 O   0  0  0  0  0  0  0  0  0  0  0  0
    6.4900    9.2350  -21.8070 N   0  0  0  0  0  0  0  0  0  0  0  0
    5.1090   10.5180  -23.2790 N   0  0  0  0  0  0  0  0  0  0  0  0
    7.4060   10.4010  -23.5980 N   0  0  0  0  0  0  0  0  0  0  0  0
    5.4030    8.7370  -20.9680 C   0  0  0  0  0  0  0  0  0  0  0  0
    6.3150   10.0450  -22.8830 C   0  0  0  0  0  0  0  0  0  0  0  0
    4.9490    7.3470  -21.4630 C   0  0  0  0  0  0  0  0  0  0  0  0
    3.7520    7.3660  -22.3880 C   0  0  0  0  0  0  0  0  0  0  0  0
  1  2  2  0
  1  3  1  0
  2  6  1  0
  3  5  2  0
  3 27  1  0
  4  5  1  0
  4  6  2  0
  4 18  1  0
  5 24  1  0
  6 10  1  0
  7 10  2  0
  7 23  1  0
  7 33  1  0
 21  8  1  1
  8 22  1  0
  9 21  1  0
  9 31  1  0
 11 12  2  0
 11 14  1  0
 11 15  1  0
 12 17  1  0
 12 28  1  0
 13 28  2  0
 13 29  1  0
 13 41  1  0
 14 29  2  0
 14 31  1  0
 15 30  2  0
 16 17  2  0
 16 18  1  0
 16 30  1  0
 17 26  1  0
 18 23  2  0
 20 19  1  6
 19 31  1  0
 20 22  1  0
 20 32  1  0
 21 32  1  0
 24 25  3  0
 34 41  2  0
 35 38  1  0
 35 39  2  3
 36 39  1  0
 37 39  1  0
 38 40  1  0
 40 41  1  0
M  CHG  1  35   1
M  END
>  <s_m_entry_id>  (18) 
196

>  <s_m_entry_name>  (18) 
000000054.1

>  <s_m_Source_Path>  (18) 
/Users/zaksoul/Documents/1

>  <s_m_Source_File>  (18) 
000000054.mol2

>  <i_m_Source_File_Index>  (18) 
1

$$$$
No_0_59,No_1_122,No_0_59,No_1_122,No_0_59,No_1_122,No_0_59,No_1_122,No_0_59,No_1_122
     RDKit          3D

 41 46  0  0  1  0  0  0  0  0999 V2000
   -5.0530    3.4550  -22.0680 C   0  0  0  0  0  0  0  0  0  0  0  0
   -5.3120    3.6430  -23.4050 C   0  0  0  0  0  0  0  0  0  0  0  0
   -3.8130    3.2240  -21.7180 C   0  0  0  0  0  0  0  0  0  0  0  0
   -2.9070    3.3740  -23.8760 C   0  0  0  0  0  0  0  0  0  0  0  0
   -2.7530    3.1280  -22.4550 C   0  0  0  0  0  0  0  0  0  0  0  0
   -4.2550    3.6130  -24.4070 C   0  0  0  0  0  0  0  0  0  0  0  0
   -3.4830    3.6560  -26.5990 C   0  0  0  0  0  0  0  0  0  0  0  0
    6.2160    3.0870  -21.2580 C   0  0  0  0  0  0  0  0  0  0  0  0
    6.0950    3.2350  -23.8080 C   0  0  0  0  0  0  0  0  0  0  0  0
   -4.4980    3.7400  -25.7440 C   0  0  0  0  0  0  0  0  0  0  0  0
    2.3010    3.7120  -23.8540 C   0  0  0  0  0  0  0  0  0  0  0  0
    1.4570    4.8040  -23.5580 C   0  0  0  0  0  0  0  0  0  0  0  0
    3.2270    6.0310  -22.8600 C   0  0  0  0  0  0  0  0  0  0  0  0
    3.6950    3.9280  -23.5290 C   0  0  0  0  0  0  0  0  0  0  0  0
    1.7810    2.5870  -24.5230 C   0  0  0  0  0  0  0  0  0  0  0  0
   -0.3620    3.3600  -24.4270 C   0  0  0  0  0  0  0  0  0  0  0  0
    0.1370    4.5880  -23.8200 C   0  0  0  0  0  0  0  0  0  0  0  0
   -1.8120    3.3400  -24.7930 C   0  0  0  0  0  0  0  0  0  0  0  0
    4.3450    1.4410  -23.2400 C   0  0  0  0  0  0  0  0  0  0  0  0
    5.2760    1.0990  -22.0870 C   0  0  2  0  0  0  0  0  0  0  0  0
    6.8440    2.6710  -22.6060 C   0  0  2  0  0  0  0  0  0  0  0  0
    5.2300    2.0960  -20.9170 C   0  0  0  0  0  0  0  0  0  0  0  0
   -2.1290    3.4980  -26.2230 C   0  0  0  0  0  0  0  0  0  0  0  0
   -1.4060    2.7380  -21.8470 C   0  0  0  0  0  0  0  0  0  0  0  0
   -0.3730    2.4080  -21.3340 C   0  0  0  0  0  0  0  0  0  0  0  0
   -0.7270    5.6160  -23.4790 F   0  0  0  0  0  0  0  0  0  0  0  0
   -3.6090    2.9810  -20.3350 F   0  0  0  0  0  0  0  0  0  0  0  0
    1.9080    5.9700  -23.0190 N   0  0  0  0  0  0  0  0  0  0  0  0
    4.1430    5.0860  -23.0760 N   0  0  0  0  0  0  0  0  0  0  0  0
    0.4790    2.4740  -24.8390 N   0  0  0  0  0  0  0  0  0  0  0  0
    4.6340    2.8980  -23.7020 N   0  0  0  0  0  0  0  0  0  0  0  0
    6.6850    1.1940  -22.5580 N   0  0  0  0  0  0  0  0  0  0  0  0
   -3.6450    3.6720  -27.9900 O   0  0  0  0  0  0  0  0  0  0  0  0
    3.1660    8.3630  -22.7560 O   0  0  0  0  0  0  0  0  0  0  0  0
    5.6810    9.6840  -22.1440 N   0  0  0  0  0  0  0  0  0  0  0  0
    6.8020   10.3040  -24.3210 C   0  0  0  0  0  0  0  0  0  0  0  0
    5.4610    8.7070  -21.0170 C   0  0  0  0  0  0  0  0  0  0  0  0
    6.6070    9.2250  -23.2390 C   0  0  0  0  0  0  0  0  0  0  0  0
    3.7520    7.3660  -22.3880 C   0  0  0  0  0  0  0  0  0  0  0  0
    4.9640    7.3230  -21.4850 C   0  0  0  0  0  0  0  0  0  0  0  0
    5.6120   10.3440  -25.2980 C   0  0  0  0  0  0  0  0  0  0  0  0
  1  2  2  0
  1  3  1  0
  2  6  1  0
  3  5  2  0
  3 27  1  0
  4  5  1  0
  4  6  2  0
  4 18  1  0
  5 24  1  0
  6 10  1  0
  7 10  2  0
  7 23  1  0
  7 33  1  0
 21  8  1  1
  8 22  1  0
  9 21  1  0
  9 31  1  0
 11 12  2  0
 11 14  1  0
 11 15  1  0
 12 17  1  0
 12 28  1  0
 13 28  2  0
 13 29  1  0
 13 39  1  0
 14 29  2  0
 14 31  1  0
 15 30  2  0
 16 17  2  0
 16 18  1  0
 16 30  1  0
 17 26  1  0
 18 23  2  0
 20 19  1  6
 19 31  1  0
 20 22  1  0
 20 32  1  0
 21 32  1  0
 24 25  3  0
 34 39  2  0
 35 37  1  0
 35 38  1  0
 36 38  1  0
 36 41  1  0
 37 40  1  0
 39 40  1  0
M  CHG  1  35   1
M  END
>  <s_m_entry_id>  (19) 
197

>  <s_m_entry_name>  (19) 
000000055.1

>  <s_m_Source_Path>  (19) 
/Users/zaksoul/Documents/1

>  <s_m_Source_File>  (19) 
000000055.mol2

>  <i_m_Source_File_Index>  (19) 
1

$$$$
No_0_60,No_1_73,No_0_60,No_1_73,No_0_60,No_1_73,No_0_60,No_1_73,No_0_60,No_1_73
     RDKit          3D

 40 45  0  0  1  0  0  0  0  0999 V2000
   -5.0530    3.4550  -22.0680 C   0  0  0  0  0  0  0  0  0  0  0  0
   -5.3120    3.6430  -23.4050 C   0  0  0  0  0  0  0  0  0  0  0  0
   -3.8130    3.2240  -21.7180 C   0  0  0  0  0  0  0  0  0  0  0  0
   -2.9070    3.3740  -23.8760 C   0  0  0  0  0  0  0  0  0  0  0  0
   -2.7530    3.1280  -22.4550 C   0  0  0  0  0  0  0  0  0  0  0  0
   -4.2550    3.6130  -24.4070 C   0  0  0  0  0  0  0  0  0  0  0  0
   -3.4830    3.6560  -26.5990 C   0  0  0  0  0  0  0  0  0  0  0  0
    6.2160    3.0870  -21.2580 C   0  0  0  0  0  0  0  0  0  0  0  0
    6.0950    3.2350  -23.8080 C   0  0  0  0  0  0  0  0  0  0  0  0
   -4.4980    3.7400  -25.7440 C   0  0  0  0  0  0  0  0  0  0  0  0
    2.3010    3.7120  -23.8540 C   0  0  0  0  0  0  0  0  0  0  0  0
    1.4570    4.8040  -23.5580 C   0  0  0  0  0  0  0  0  0  0  0  0
    3.2270    6.0310  -22.8600 C   0  0  0  0  0  0  0  0  0  0  0  0
    3.6950    3.9280  -23.5290 C   0  0  0  0  0  0  0  0  0  0  0  0
    1.7810    2.5870  -24.5230 C   0  0  0  0  0  0  0  0  0  0  0  0
   -0.3620    3.3600  -24.4270 C   0  0  0  0  0  0  0  0  0  0  0  0
    0.1370    4.5880  -23.8200 C   0  0  0  0  0  0  0  0  0  0  0  0
   -1.8120    3.3400  -24.7930 C   0  0  0  0  0  0  0  0  0  0  0  0
    4.3450    1.4410  -23.2400 C   0  0  0  0  0  0  0  0  0  0  0  0
    5.2760    1.0990  -22.0870 C   0  0  2  0  0  0  0  0  0  0  0  0
    6.8440    2.6710  -22.6060 C   0  0  2  0  0  0  0  0  0  0  0  0
    5.2300    2.0960  -20.9170 C   0  0  0  0  0  0  0  0  0  0  0  0
   -2.1290    3.4980  -26.2230 C   0  0  0  0  0  0  0  0  0  0  0  0
   -1.4060    2.7380  -21.8470 C   0  0  0  0  0  0  0  0  0  0  0  0
   -0.3730    2.4080  -21.3340 C   0  0  0  0  0  0  0  0  0  0  0  0
   -0.7270    5.6160  -23.4790 F   0  0  0  0  0  0  0  0  0  0  0  0
   -3.6090    2.9810  -20.3350 F   0  0  0  0  0  0  0  0  0  0  0  0
    1.9080    5.9700  -23.0190 N   0  0  0  0  0  0  0  0  0  0  0  0
    4.1430    5.0860  -23.0760 N   0  0  0  0  0  0  0  0  0  0  0  0
    0.4790    2.4740  -24.8390 N   0  0  0  0  0  0  0  0  0  0  0  0
    4.6340    2.8980  -23.7020 N   0  0  0  0  0  0  0  0  0  0  0  0
    6.6850    1.1940  -22.5580 N   0  0  0  0  0  0  0  0  0  0  0  0
   -3.6450    3.6720  -27.9900 O   0  0  0  0  0  0  0  0  0  0  0  0
    3.2130    8.3740  -22.7900 O   0  0  0  0  0  0  0  0  0  0  0  0
    5.4390    8.7170  -21.3190 O   0  0  0  0  0  0  0  0  0  0  0  0
    8.0270    7.9820  -22.7010 N   0  0  0  0  0  0  0  0  0  0  0  0
    6.7360    8.7690  -20.6970 C   0  0  0  0  0  0  0  0  0  0  0  0
    4.9650    7.3700  -21.4900 C   0  0  0  0  0  0  0  0  0  0  0  0
    7.8390    9.1010  -21.7180 C   0  0  0  0  0  0  0  0  0  0  0  0
    3.7520    7.3660  -22.3880 C   0  0  0  0  0  0  0  0  0  0  0  0
  1  2  2  0
  1  3  1  0
  2  6  1  0
  3  5  2  0
  3 27  1  0
  4  5  1  0
  4  6  2  0
  4 18  1  0
  5 24  1  0
  6 10  1  0
  7 10  2  0
  7 23  1  0
  7 33  1  0
 21  8  1  1
  8 22  1  0
  9 21  1  0
  9 31  1  0
 11 12  2  0
 11 14  1  0
 11 15  1  0
 12 17  1  0
 12 28  1  0
 13 28  2  0
 13 29  1  0
 13 40  1  0
 14 29  2  0
 14 31  1  0
 15 30  2  0
 16 17  2  0
 16 18  1  0
 16 30  1  0
 17 26  1  0
 18 23  2  0
 20 19  1  6
 19 31  1  0
 20 22  1  0
 20 32  1  0
 21 32  1  0
 24 25  3  0
 34 40  2  0
 35 37  1  0
 35 38  1  0
 36 39  1  0
 37 39  1  0
 38 40  1  0
M  CHG  1  36   1
M  END
>  <s_m_entry_id>  (20) 
198

>  <s_m_entry_name>  (20) 
000000056.1

>  <s_m_Source_Path>  (20) 
/Users/zaksoul/Documents/1

>  <s_m_Source_File>  (20) 
000000056.mol2

>  <i_m_Source_File_Index>  (20) 
1

$$$$
No_0_61,No_1_98,No_0_61,No_1_98,No_0_61,No_1_98,No_0_61,No_1_98,No_0_61,No_1_98
     RDKit          3D

 40 45  0  0  1  0  0  0  0  0999 V2000
   -5.0530    3.4550  -22.0680 C   0  0  0  0  0  0  0  0  0  0  0  0
   -5.3120    3.6430  -23.4050 C   0  0  0  0  0  0  0  0  0  0  0  0
   -3.8130    3.2240  -21.7180 C   0  0  0  0  0  0  0  0  0  0  0  0
   -2.9070    3.3740  -23.8760 C   0  0  0  0  0  0  0  0  0  0  0  0
   -2.7530    3.1280  -22.4550 C   0  0  0  0  0  0  0  0  0  0  0  0
   -4.2550    3.6130  -24.4070 C   0  0  0  0  0  0  0  0  0  0  0  0
   -3.4830    3.6560  -26.5990 C   0  0  0  0  0  0  0  0  0  0  0  0
    6.2160    3.0870  -21.2580 C   0  0  0  0  0  0  0  0  0  0  0  0
    6.0950    3.2350  -23.8080 C   0  0  0  0  0  0  0  0  0  0  0  0
   -4.4980    3.7400  -25.7440 C   0  0  0  0  0  0  0  0  0  0  0  0
    2.3010    3.7120  -23.8540 C   0  0  0  0  0  0  0  0  0  0  0  0
    1.4570    4.8040  -23.5580 C   0  0  0  0  0  0  0  0  0  0  0  0
    3.2270    6.0310  -22.8600 C   0  0  0  0  0  0  0  0  0  0  0  0
    3.6950    3.9280  -23.5290 C   0  0  0  0  0  0  0  0  0  0  0  0
    1.7810    2.5870  -24.5230 C   0  0  0  0  0  0  0  0  0  0  0  0
   -0.3620    3.3600  -24.4270 C   0  0  0  0  0  0  0  0  0  0  0  0
    0.1370    4.5880  -23.8200 C   0  0  0  0  0  0  0  0  0  0  0  0
   -1.8120    3.3400  -24.7930 C   0  0  0  0  0  0  0  0  0  0  0  0
    4.3450    1.4410  -23.2400 C   0  0  0  0  0  0  0  0  0  0  0  0
    5.2760    1.0990  -22.0870 C   0  0  2  0  0  0  0  0  0  0  0  0
    6.8440    2.6710  -22.6060 C   0  0  2  0  0  0  0  0  0  0  0  0
    5.2300    2.0960  -20.9170 C   0  0  0  0  0  0  0  0  0  0  0  0
   -2.1290    3.4980  -26.2230 C   0  0  0  0  0  0  0  0  0  0  0  0
   -1.4060    2.7380  -21.8470 C   0  0  0  0  0  0  0  0  0  0  0  0
   -0.3730    2.4080  -21.3340 C   0  0  0  0  0  0  0  0  0  0  0  0
   -0.7270    5.6160  -23.4790 F   0  0  0  0  0  0  0  0  0  0  0  0
   -3.6090    2.9810  -20.3350 F   0  0  0  0  0  0  0  0  0  0  0  0
    1.9080    5.9700  -23.0190 N   0  0  0  0  0  0  0  0  0  0  0  0
    4.1430    5.0860  -23.0760 N   0  0  0  0  0  0  0  0  0  0  0  0
    0.4790    2.4740  -24.8390 N   0  0  0  0  0  0  0  0  0  0  0  0
    4.6340    2.8980  -23.7020 N   0  0  0  0  0  0  0  0  0  0  0  0
    6.6850    1.1940  -22.5580 N   0  0  0  0  0  0  0  0  0  0  0  0
   -3.6450    3.6720  -27.9900 O   0  0  0  0  0  0  0  0  0  0  0  0
    7.8630    9.8250  -22.1820 F   0  0  0  0  0  0  0  0  0  0  0  0
    3.1740    8.3680  -22.7500 O   0  0  0  0  0  0  0  0  0  0  0  0
    5.3220    8.7960  -21.1320 N   0  0  0  0  0  0  0  0  0  0  0  0
    4.9730    7.3810  -21.5010 C   0  0  0  0  0  0  0  0  0  0  0  0
    6.5890    8.9640  -20.3320 C   0  0  0  0  0  0  0  0  0  0  0  0
    7.8710    8.8560  -21.1830 C   0  0  0  0  0  0  0  0  0  0  0  0
    3.7520    7.3660  -22.3880 C   0  0  0  0  0  0  0  0  0  0  0  0
  1  2  2  0
  1  3  1  0
  2  6  1  0
  3  5  2  0
  3 27  1  0
  4  5  1  0
  4  6  2  0
  4 18  1  0
  5 24  1  0
  6 10  1  0
  7 10  2  0
  7 23  1  0
  7 33  1  0
 21  8  1  1
  8 22  1  0
  9 21  1  0
  9 31  1  0
 11 12  2  0
 11 14  1  0
 11 15  1  0
 12 17  1  0
 12 28  1  0
 13 28  2  0
 13 29  1  0
 13 40  1  0
 14 29  2  0
 14 31  1  0
 15 30  2  0
 16 17  2  0
 16 18  1  0
 16 30  1  0
 17 26  1  0
 18 23  2  0
 20 19  1  6
 19 31  1  0
 20 22  1  0
 20 32  1  0
 21 32  1  0
 24 25  3  0
 34 39  1  0
 35 40  2  0
 36 37  1  0
 36 38  1  0
 37 40  1  0
 38 39  1  0
M  END
>  <s_m_entry_id>  (21) 
199

>  <s_m_entry_name>  (21) 
000000057.1

>  <s_m_Source_Path>  (21) 
/Users/zaksoul/Documents/1

>  <s_m_Source_File>  (21) 
000000057.mol2

>  <i_m_Source_File_Index>  (21) 
1

$$$$
No_0_62,No_1_81,No_1_123,No_0_62,No_1_81,No_1_123,No_0_62,No_1_81,No_1_123,No_0_62,No_1_81,No_1_123,No_0_62,No_1_81,No_1_123
     RDKit          3D

 40 45  0  0  1  0  0  0  0  0999 V2000
   -5.0530    3.4550  -22.0680 C   0  0  0  0  0  0  0  0  0  0  0  0
   -5.3120    3.6430  -23.4050 C   0  0  0  0  0  0  0  0  0  0  0  0
   -3.8130    3.2240  -21.7180 C   0  0  0  0  0  0  0  0  0  0  0  0
   -2.9070    3.3740  -23.8760 C   0  0  0  0  0  0  0  0  0  0  0  0
   -2.7530    3.1280  -22.4550 C   0  0  0  0  0  0  0  0  0  0  0  0
   -4.2550    3.6130  -24.4070 C   0  0  0  0  0  0  0  0  0  0  0  0
   -3.4830    3.6560  -26.5990 C   0  0  0  0  0  0  0  0  0  0  0  0
    6.2160    3.0870  -21.2580 C   0  0  0  0  0  0  0  0  0  0  0  0
    6.0950    3.2350  -23.8080 C   0  0  0  0  0  0  0  0  0  0  0  0
   -4.4980    3.7400  -25.7440 C   0  0  0  0  0  0  0  0  0  0  0  0
    2.3010    3.7120  -23.8540 C   0  0  0  0  0  0  0  0  0  0  0  0
    1.4570    4.8040  -23.5580 C   0  0  0  0  0  0  0  0  0  0  0  0
    3.2270    6.0310  -22.8600 C   0  0  0  0  0  0  0  0  0  0  0  0
    3.6950    3.9280  -23.5290 C   0  0  0  0  0  0  0  0  0  0  0  0
    1.7810    2.5870  -24.5230 C   0  0  0  0  0  0  0  0  0  0  0  0
   -0.3620    3.3600  -24.4270 C   0  0  0  0  0  0  0  0  0  0  0  0
    0.1370    4.5880  -23.8200 C   0  0  0  0  0  0  0  0  0  0  0  0
   -1.8120    3.3400  -24.7930 C   0  0  0  0  0  0  0  0  0  0  0  0
    4.3450    1.4410  -23.2400 C   0  0  0  0  0  0  0  0  0  0  0  0
    5.2760    1.0990  -22.0870 C   0  0  2  0  0  0  0  0  0  0  0  0
    6.8440    2.6710  -22.6060 C   0  0  2  0  0  0  0  0  0  0  0  0
    5.2300    2.0960  -20.9170 C   0  0  0  0  0  0  0  0  0  0  0  0
   -2.1290    3.4980  -26.2230 C   0  0  0  0  0  0  0  0  0  0  0  0
   -1.4060    2.7380  -21.8470 C   0  0  0  0  0  0  0  0  0  0  0  0
   -0.3730    2.4080  -21.3340 C   0  0  0  0  0  0  0  0  0  0  0  0
   -0.7270    5.6160  -23.4790 F   0  0  0  0  0  0  0  0  0  0  0  0
   -3.6090    2.9810  -20.3350 F   0  0  0  0  0  0  0  0  0  0  0  0
    1.9080    5.9700  -23.0190 N   0  0  0  0  0  0  0  0  0  0  0  0
    4.1430    5.0860  -23.0760 N   0  0  0  0  0  0  0  0  0  0  0  0
    0.4790    2.4740  -24.8390 N   0  0  0  0  0  0  0  0  0  0  0  0
    4.6340    2.8980  -23.7020 N   0  0  0  0  0  0  0  0  0  0  0  0
    6.6850    1.1940  -22.5580 N   0  0  0  0  0  0  0  0  0  0  0  0
   -3.6450    3.6720  -27.9900 O   0  0  0  0  0  0  0  0  0  0  0  0
    3.1870    8.3670  -22.8110 O   0  0  0  0  0  0  0  0  0  0  0  0
    7.2800    8.5860  -22.5210 N   0  0  0  0  0  0  0  0  0  0  0  0
    4.7930    7.3740  -21.5370 N   0  0  0  0  0  0  0  0  0  0  0  0
    6.1210    9.4170  -22.0500 C   0  0  0  0  0  0  0  0  0  0  0  0
    5.3000    8.6460  -21.0020 C   0  0  0  0  0  0  0  0  0  0  0  0
    8.1700    9.2790  -23.5110 C   0  0  0  0  0  0  0  0  0  0  0  0
    3.7520    7.3660  -22.3880 C   0  0  0  0  0  0  0  0  0  0  0  0
  1  2  2  0
  1  3  1  0
  2  6  1  0
  3  5  2  0
  3 27  1  0
  4  5  1  0
  4  6  2  0
  4 18  1  0
  5 24  1  0
  6 10  1  0
  7 10  2  0
  7 23  1  0
  7 33  1  0
 21  8  1  1
  8 22  1  0
  9 21  1  0
  9 31  1  0
 11 12  2  0
 11 14  1  0
 11 15  1  0
 12 17  1  0
 12 28  1  0
 13 28  2  0
 13 29  1  0
 13 40  1  0
 14 29  2  0
 14 31  1  0
 15 30  2  0
 16 17  2  0
 16 18  1  0
 16 30  1  0
 17 26  1  0
 18 23  2  0
 20 19  1  6
 19 31  1  0
 20 22  1  0
 20 32  1  0
 21 32  1  0
 24 25  3  0
 34 40  2  0
 35 37  1  0
 35 39  1  0
 36 38  1  0
 36 40  1  0
 37 38  1  0
M  CHG  1  35   1
M  END
>  <s_m_entry_id>  (22) 
200

>  <s_m_entry_name>  (22) 
000000058.1

>  <s_m_Source_Path>  (22) 
/Users/zaksoul/Documents/1

>  <s_m_Source_File>  (22) 
000000058.mol2

>  <i_m_Source_File_Index>  (22) 
1

$$$$
No_0_63,No_1_113,No_0_63,No_1_113,No_0_63,No_1_113,No_0_63,No_1_113,No_0_63,No_1_113
     RDKit          3D

 41 46  0  0  1  0  0  0  0  0999 V2000
   -5.0530    3.4550  -22.0680 C   0  0  0  0  0  0  0  0  0  0  0  0
   -5.3120    3.6430  -23.4050 C   0  0  0  0  0  0  0  0  0  0  0  0
   -3.8130    3.2240  -21.7180 C   0  0  0  0  0  0  0  0  0  0  0  0
   -2.9070    3.3740  -23.8760 C   0  0  0  0  0  0  0  0  0  0  0  0
   -2.7530    3.1280  -22.4550 C   0  0  0  0  0  0  0  0  0  0  0  0
   -4.2550    3.6130  -24.4070 C   0  0  0  0  0  0  0  0  0  0  0  0
   -3.4830    3.6560  -26.5990 C   0  0  0  0  0  0  0  0  0  0  0  0
    6.2160    3.0870  -21.2580 C   0  0  0  0  0  0  0  0  0  0  0  0
    6.0950    3.2350  -23.8080 C   0  0  0  0  0  0  0  0  0  0  0  0
   -4.4980    3.7400  -25.7440 C   0  0  0  0  0  0  0  0  0  0  0  0
    2.3010    3.7120  -23.8540 C   0  0  0  0  0  0  0  0  0  0  0  0
    1.4570    4.8040  -23.5580 C   0  0  0  0  0  0  0  0  0  0  0  0
    3.2270    6.0310  -22.8600 C   0  0  0  0  0  0  0  0  0  0  0  0
    3.6950    3.9280  -23.5290 C   0  0  0  0  0  0  0  0  0  0  0  0
    1.7810    2.5870  -24.5230 C   0  0  0  0  0  0  0  0  0  0  0  0
   -0.3620    3.3600  -24.4270 C   0  0  0  0  0  0  0  0  0  0  0  0
    0.1370    4.5880  -23.8200 C   0  0  0  0  0  0  0  0  0  0  0  0
   -1.8120    3.3400  -24.7930 C   0  0  0  0  0  0  0  0  0  0  0  0
    4.3450    1.4410  -23.2400 C   0  0  0  0  0  0  0  0  0  0  0  0
    5.2760    1.0990  -22.0870 C   0  0  2  0  0  0  0  0  0  0  0  0
    6.8440    2.6710  -22.6060 C   0  0  2  0  0  0  0  0  0  0  0  0
    5.2300    2.0960  -20.9170 C   0  0  0  0  0  0  0  0  0  0  0  0
   -2.1290    3.4980  -26.2230 C   0  0  0  0  0  0  0  0  0  0  0  0
   -1.4060    2.7380  -21.8470 C   0  0  0  0  0  0  0  0  0  0  0  0
   -0.3730    2.4080  -21.3340 C   0  0  0  0  0  0  0  0  0  0  0  0
   -0.7270    5.6160  -23.4790 F   0  0  0  0  0  0  0  0  0  0  0  0
   -3.6090    2.9810  -20.3350 F   0  0  0  0  0  0  0  0  0  0  0  0
    1.9080    5.9700  -23.0190 N   0  0  0  0  0  0  0  0  0  0  0  0
    4.1430    5.0860  -23.0760 N   0  0  0  0  0  0  0  0  0  0  0  0
    0.4790    2.4740  -24.8390 N   0  0  0  0  0  0  0  0  0  0  0  0
    4.6340    2.8980  -23.7020 N   0  0  0  0  0  0  0  0  0  0  0  0
    6.6850    1.1940  -22.5580 N   0  0  0  0  0  0  0  0  0  0  0  0
   -3.6450    3.6720  -27.9900 O   0  0  0  0  0  0  0  0  0  0  0  0
    3.1790    8.3590  -22.8180 O   0  0  0  0  0  0  0  0  0  0  0  0
    7.3510    8.8440  -22.2310 N   0  0  0  0  0  0  0  0  0  0  0  0
    4.7790    7.3930  -21.5190 N   0  0  0  0  0  0  0  0  0  0  0  0
    6.0890    9.5320  -21.7790 C   0  0  0  0  0  0  0  0  0  0  0  0
    8.1980    8.3210  -21.1020 C   0  0  0  0  0  0  0  0  0  0  0  0
    8.1430    9.7290  -23.1520 C   0  0  0  0  0  0  0  0  0  0  0  0
    5.1760    8.6630  -20.8960 C   0  0  0  0  0  0  0  0  0  0  0  0
    3.7520    7.3660  -22.3880 C   0  0  0  0  0  0  0  0  0  0  0  0
  1  2  2  0
  1  3  1  0
  2  6  1  0
  3  5  2  0
  3 27  1  0
  4  5  1  0
  4  6  2  0
  4 18  1  0
  5 24  1  0
  6 10  1  0
  7 10  2  0
  7 23  1  0
  7 33  1  0
 21  8  1  1
  8 22  1  0
  9 21  1  0
  9 31  1  0
 11 12  2  0
 11 14  1  0
 11 15  1  0
 12 17  1  0
 12 28  1  0
 13 28  2  0
 13 29  1  0
 13 41  1  0
 14 29  2  0
 14 31  1  0
 15 30  2  0
 16 17  2  0
 16 18  1  0
 16 30  1  0
 17 26  1  0
 18 23  2  0
 20 19  1  6
 19 31  1  0
 20 22  1  0
 20 32  1  0
 21 32  1  0
 24 25  3  0
 34 41  2  0
 35 37  1  0
 35 38  1  0
 35 39  1  0
 36 40  1  0
 36 41  1  0
 37 40  1  0
M  CHG  1  35   1
M  END
>  <s_m_entry_id>  (23) 
201

>  <s_m_entry_name>  (23) 
000000059.1

>  <s_m_Source_Path>  (23) 
/Users/zaksoul/Documents/1

>  <s_m_Source_File>  (23) 
000000059.mol2

>  <i_m_Source_File_Index>  (23) 
1

$$$$
No_0_64,No_1_67,No_0_64,No_1_67,No_0_64,No_1_67,No_0_64,No_1_67,No_0_64,No_1_67
     RDKit          3D

 40 45  0  0  1  0  0  0  0  0999 V2000
   -5.0530    3.4550  -22.0680 C   0  0  0  0  0  0  0  0  0  0  0  0
   -5.3120    3.6430  -23.4050 C   0  0  0  0  0  0  0  0  0  0  0  0
   -3.8130    3.2240  -21.7180 C   0  0  0  0  0  0  0  0  0  0  0  0
   -2.9070    3.3740  -23.8760 C   0  0  0  0  0  0  0  0  0  0  0  0
   -2.7530    3.1280  -22.4550 C   0  0  0  0  0  0  0  0  0  0  0  0
   -4.2550    3.6130  -24.4070 C   0  0  0  0  0  0  0  0  0  0  0  0
   -3.4830    3.6560  -26.5990 C   0  0  0  0  0  0  0  0  0  0  0  0
    6.2160    3.0870  -21.2580 C   0  0  0  0  0  0  0  0  0  0  0  0
    6.0950    3.2350  -23.8080 C   0  0  0  0  0  0  0  0  0  0  0  0
   -4.4980    3.7400  -25.7440 C   0  0  0  0  0  0  0  0  0  0  0  0
    2.3010    3.7120  -23.8540 C   0  0  0  0  0  0  0  0  0  0  0  0
    1.4570    4.8040  -23.5580 C   0  0  0  0  0  0  0  0  0  0  0  0
    3.2270    6.0310  -22.8600 C   0  0  0  0  0  0  0  0  0  0  0  0
    3.6950    3.9280  -23.5290 C   0  0  0  0  0  0  0  0  0  0  0  0
    1.7810    2.5870  -24.5230 C   0  0  0  0  0  0  0  0  0  0  0  0
   -0.3620    3.3600  -24.4270 C   0  0  0  0  0  0  0  0  0  0  0  0
    0.1370    4.5880  -23.8200 C   0  0  0  0  0  0  0  0  0  0  0  0
   -1.8120    3.3400  -24.7930 C   0  0  0  0  0  0  0  0  0  0  0  0
    4.3450    1.4410  -23.2400 C   0  0  0  0  0  0  0  0  0  0  0  0
    5.2760    1.0990  -22.0870 C   0  0  2  0  0  0  0  0  0  0  0  0
    6.8440    2.6710  -22.6060 C   0  0  2  0  0  0  0  0  0  0  0  0
    5.2300    2.0960  -20.9170 C   0  0  0  0  0  0  0  0  0  0  0  0
   -2.1290    3.4980  -26.2230 C   0  0  0  0  0  0  0  0  0  0  0  0
   -1.4060    2.7380  -21.8470 C   0  0  0  0  0  0  0  0  0  0  0  0
   -0.3730    2.4080  -21.3340 C   0  0  0  0  0  0  0  0  0  0  0  0
   -0.7270    5.6160  -23.4790 F   0  0  0  0  0  0  0  0  0  0  0  0
   -3.6090    2.9810  -20.3350 F   0  0  0  0  0  0  0  0  0  0  0  0
    1.9080    5.9700  -23.0190 N   0  0  0  0  0  0  0  0  0  0  0  0
    4.1430    5.0860  -23.0760 N   0  0  0  0  0  0  0  0  0  0  0  0
    0.4790    2.4740  -24.8390 N   0  0  0  0  0  0  0  0  0  0  0  0
    4.6340    2.8980  -23.7020 N   0  0  0  0  0  0  0  0  0  0  0  0
    6.6850    1.1940  -22.5580 N   0  0  0  0  0  0  0  0  0  0  0  0
   -3.6450    3.6720  -27.9900 O   0  0  0  0  0  0  0  0  0  0  0  0
    3.1910    8.3700  -22.8080 O   0  0  0  0  0  0  0  0  0  0  0  0
    6.0500    9.7880  -23.0970 N   0  0  0  0  0  0  0  0  0  0  0  0
    7.7420    8.8910  -21.7310 N   0  0  0  0  0  0  0  0  0  0  0  0
    4.8020    7.3590  -21.5460 N   0  0  0  0  0  0  0  0  0  0  0  0
    5.3900    8.6190  -21.0690 C   0  0  0  0  0  0  0  0  0  0  0  0
    6.4570    9.1220  -22.0150 C   0  0  0  0  0  0  0  0  0  0  0  0
    3.7520    7.3660  -22.3880 C   0  0  0  0  0  0  0  0  0  0  0  0
  1  2  2  0
  1  3  1  0
  2  6  1  0
  3  5  2  0
  3 27  1  0
  4  5  1  0
  4  6  2  0
  4 18  1  0
  5 24  1  0
  6 10  1  0
  7 10  2  0
  7 23  1  0
  7 33  1  0
 21  8  1  1
  8 22  1  0
  9 21  1  0
  9 31  1  0
 11 12  2  0
 11 14  1  0
 11 15  1  0
 12 17  1  0
 12 28  1  0
 13 28  2  0
 13 29  1  0
 13 40  1  0
 14 29  2  0
 14 31  1  0
 15 30  2  0
 16 17  2  0
 16 18  1  0
 16 30  1  0
 17 26  1  0
 18 23  2  0
 20 19  1  6
 19 31  1  0
 20 22  1  0
 20 32  1  0
 21 32  1  0
 24 25  3  0
 34 40  2  0
 35 39  1  0
 36 39  2  0
 37 38  1  0
 37 40  1  0
 38 39  1  0
M  CHG  1  36   1
M  END
>  <s_m_entry_id>  (24) 
202

>  <s_m_entry_name>  (24) 
000000060.1

>  <s_m_Source_Path>  (24) 
/Users/zaksoul/Documents/1

>  <s_m_Source_File>  (24) 
000000060.mol2

>  <i_m_Source_File_Index>  (24) 
1

$$$$
No_0_65,No_1_86,No_0_65,No_1_86,No_0_65,No_1_86,No_0_65,No_1_86,No_0_65,No_1_86
     RDKit          3D

 40 45  0  0  1  0  0  0  0  0999 V2000
   -5.0530    3.4550  -22.0680 C   0  0  0  0  0  0  0  0  0  0  0  0
   -5.3120    3.6430  -23.4050 C   0  0  0  0  0  0  0  0  0  0  0  0
   -3.8130    3.2240  -21.7180 C   0  0  0  0  0  0  0  0  0  0  0  0
   -2.9070    3.3740  -23.8760 C   0  0  0  0  0  0  0  0  0  0  0  0
   -2.7530    3.1280  -22.4550 C   0  0  0  0  0  0  0  0  0  0  0  0
   -4.2550    3.6130  -24.4070 C   0  0  0  0  0  0  0  0  0  0  0  0
   -3.4830    3.6560  -26.5990 C   0  0  0  0  0  0  0  0  0  0  0  0
    6.2160    3.0870  -21.2580 C   0  0  0  0  0  0  0  0  0  0  0  0
    6.0950    3.2350  -23.8080 C   0  0  0  0  0  0  0  0  0  0  0  0
   -4.4980    3.7400  -25.7440 C   0  0  0  0  0  0  0  0  0  0  0  0
    2.3010    3.7120  -23.8540 C   0  0  0  0  0  0  0  0  0  0  0  0
    1.4570    4.8040  -23.5580 C   0  0  0  0  0  0  0  0  0  0  0  0
    3.2270    6.0310  -22.8600 C   0  0  0  0  0  0  0  0  0  0  0  0
    3.6950    3.9280  -23.5290 C   0  0  0  0  0  0  0  0  0  0  0  0
    1.7810    2.5870  -24.5230 C   0  0  0  0  0  0  0  0  0  0  0  0
   -0.3620    3.3600  -24.4270 C   0  0  0  0  0  0  0  0  0  0  0  0
    0.1370    4.5880  -23.8200 C   0  0  0  0  0  0  0  0  0  0  0  0
   -1.8120    3.3400  -24.7930 C   0  0  0  0  0  0  0  0  0  0  0  0
    4.3450    1.4410  -23.2400 C   0  0  0  0  0  0  0  0  0  0  0  0
    5.2760    1.0990  -22.0870 C   0  0  2  0  0  0  0  0  0  0  0  0
    6.8440    2.6710  -22.6060 C   0  0  2  0  0  0  0  0  0  0  0  0
    5.2300    2.0960  -20.9170 C   0  0  0  0  0  0  0  0  0  0  0  0
   -2.1290    3.4980  -26.2230 C   0  0  0  0  0  0  0  0  0  0  0  0
   -1.4060    2.7380  -21.8470 C   0  0  0  0  0  0  0  0  0  0  0  0
   -0.3730    2.4080  -21.3340 C   0  0  0  0  0  0  0  0  0  0  0  0
   -0.7270    5.6160  -23.4790 F   0  0  0  0  0  0  0  0  0  0  0  0
   -3.6090    2.9810  -20.3350 F   0  0  0  0  0  0  0  0  0  0  0  0
    1.9080    5.9700  -23.0190 N   0  0  0  0  0  0  0  0  0  0  0  0
    4.1430    5.0860  -23.0760 N   0  0  0  0  0  0  0  0  0  0  0  0
    0.4790    2.4740  -24.8390 N   0  0  0  0  0  0  0  0  0  0  0  0
    4.6340    2.8980  -23.7020 N   0  0  0  0  0  0  0  0  0  0  0  0
    6.6850    1.1940  -22.5580 N   0  0  0  0  0  0  0  0  0  0  0  0
   -3.6450    3.6720  -27.9900 O   0  0  0  0  0  0  0  0  0  0  0  0
    3.1920    8.3720  -22.8070 O   0  0  0  0  0  0  0  0  0  0  0  0
    6.3070    9.2070  -22.0610 N   0  0  0  0  0  0  0  0  0  0  0  0
    4.7980    7.3610  -21.5430 N   0  0  0  0  0  0  0  0  0  0  0  0
    5.3580    8.6250  -21.0470 C   0  0  0  0  0  0  0  0  0  0  0  0
    5.8060   10.4930  -22.6540 C   0  0  0  0  0  0  0  0  0  0  0  0
    7.7090    9.3360  -21.5370 C   0  0  0  0  0  0  0  0  0  0  0  0
    3.7520    7.3660  -22.3880 C   0  0  0  0  0  0  0  0  0  0  0  0
  1  2  2  0
  1  3  1  0
  2  6  1  0
  3  5  2  0
  3 27  1  0
  4  5  1  0
  4  6  2  0
  4 18  1  0
  5 24  1  0
  6 10  1  0
  7 10  2  0
  7 23  1  0
  7 33  1  0
 21  8  1  1
  8 22  1  0
  9 21  1  0
  9 31  1  0
 11 12  2  0
 11 14  1  0
 11 15  1  0
 12 17  1  0
 12 28  1  0
 13 28  2  0
 13 29  1  0
 13 40  1  0
 14 29  2  0
 14 31  1  0
 15 30  2  0
 16 17  2  0
 16 18  1  0
 16 30  1  0
 17 26  1  0
 18 23  2  0
 20 19  1  6
 19 31  1  0
 20 22  1  0
 20 32  1  0
 21 32  1  0
 24 25  3  0
 34 40  2  0
 35 37  1  0
 35 38  1  0
 35 39  1  0
 36 37  1  0
 36 40  1  0
M  END
>  <s_m_entry_id>  (25) 
203

>  <s_m_entry_name>  (25) 
000000061.1

>  <s_m_Source_Path>  (25) 
/Users/zaksoul/Documents/1

>  <s_m_Source_File>  (25) 
000000061.mol2

>  <i_m_Source_File_Index>  (25) 
1

$$$$
No_0_66,No_1_76,No_0_66,No_1_76,No_0_66,No_1_76,No_0_66,No_1_76,No_0_66,No_1_76
     RDKit          3D

 40 45  0  0  1  0  0  0  0  0999 V2000
   -5.0530    3.4550  -22.0680 C   0  0  0  0  0  0  0  0  0  0  0  0
   -5.3120    3.6430  -23.4050 C   0  0  0  0  0  0  0  0  0  0  0  0
   -3.8130    3.2240  -21.7180 C   0  0  0  0  0  0  0  0  0  0  0  0
   -2.9070    3.3740  -23.8760 C   0  0  0  0  0  0  0  0  0  0  0  0
   -2.7530    3.1280  -22.4550 C   0  0  0  0  0  0  0  0  0  0  0  0
   -4.2550    3.6130  -24.4070 C   0  0  0  0  0  0  0  0  0  0  0  0
   -3.4830    3.6560  -26.5990 C   0  0  0  0  0  0  0  0  0  0  0  0
    6.2160    3.0870  -21.2580 C   0  0  0  0  0  0  0  0  0  0  0  0
    6.0950    3.2350  -23.8080 C   0  0  0  0  0  0  0  0  0  0  0  0
   -4.4980    3.7400  -25.7440 C   0  0  0  0  0  0  0  0  0  0  0  0
    2.3010    3.7120  -23.8540 C   0  0  0  0  0  0  0  0  0  0  0  0
    1.4570    4.8040  -23.5580 C   0  0  0  0  0  0  0  0  0  0  0  0
    3.2270    6.0310  -22.8600 C   0  0  0  0  0  0  0  0  0  0  0  0
    3.6950    3.9280  -23.5290 C   0  0  0  0  0  0  0  0  0  0  0  0
    1.7810    2.5870  -24.5230 C   0  0  0  0  0  0  0  0  0  0  0  0
   -0.3620    3.3600  -24.4270 C   0  0  0  0  0  0  0  0  0  0  0  0
    0.1370    4.5880  -23.8200 C   0  0  0  0  0  0  0  0  0  0  0  0
   -1.8120    3.3400  -24.7930 C   0  0  0  0  0  0  0  0  0  0  0  0
    4.3450    1.4410  -23.2400 C   0  0  0  0  0  0  0  0  0  0  0  0
    5.2760    1.0990  -22.0870 C   0  0  2  0  0  0  0  0  0  0  0  0
    6.8440    2.6710  -22.6060 C   0  0  2  0  0  0  0  0  0  0  0  0
    5.2300    2.0960  -20.9170 C   0  0  0  0  0  0  0  0  0  0  0  0
   -2.1290    3.4980  -26.2230 C   0  0  0  0  0  0  0  0  0  0  0  0
   -1.4060    2.7380  -21.8470 C   0  0  0  0  0  0  0  0  0  0  0  0
   -0.3730    2.4080  -21.3340 C   0  0  0  0  0  0  0  0  0  0  0  0
   -0.7270    5.6160  -23.4790 F   0  0  0  0  0  0  0  0  0  0  0  0
   -3.6090    2.9810  -20.3350 F   0  0  0  0  0  0  0  0  0  0  0  0
    1.9080    5.9700  -23.0190 N   0  0  0  0  0  0  0  0  0  0  0  0
    4.1430    5.0860  -23.0760 N   0  0  0  0  0  0  0  0  0  0  0  0
    0.4790    2.4740  -24.8390 N   0  0  0  0  0  0  0  0  0  0  0  0
    4.6340    2.8980  -23.7020 N   0  0  0  0  0  0  0  0  0  0  0  0
    6.6850    1.1940  -22.5580 N   0  0  0  0  0  0  0  0  0  0  0  0
   -3.6450    3.6720  -27.9900 O   0  0  0  0  0  0  0  0  0  0  0  0
    4.7590    7.3520  -21.4910 N   0  0  0  0  0  0  0  0  0  0  0  0
    3.1780    8.4630  -22.9110 N   0  0  0  0  0  0  0  0  0  0  0  0
    6.6820    8.8640  -21.7520 C   0  0  0  0  0  0  0  0  0  0  0  0
    5.3890    8.5630  -20.9740 C   0  0  0  0  0  0  0  0  0  0  0  0
    6.3940    9.1420  -23.2360 C   0  0  0  0  0  0  0  0  0  0  0  0
    3.7520    7.3660  -22.3880 C   0  0  0  0  0  0  0  0  0  0  0  0
    7.7230    9.2120  -24.0010 C   0  0  0  0  0  0  0  0  0  0  0  0
  1  2  2  0
  1  3  1  0
  2  6  1  0
  3  5  2  0
  3 27  1  0
  4  5  1  0
  4  6  2  0
  4 18  1  0
  5 24  1  0
  6 10  1  0
  7 10  2  0
  7 23  1  0
  7 33  1  0
 21  8  1  1
  8 22  1  0
  9 21  1  0
  9 31  1  0
 11 12  2  0
 11 14  1  0
 11 15  1  0
 12 17  1  0
 12 28  1  0
 13 28  2  0
 13 29  1  0
 13 39  1  0
 14 29  2  0
 14 31  1  0
 15 30  2  0
 16 17  2  0
 16 18  1  0
 16 30  1  0
 17 26  1  0
 18 23  2  0
 20 19  1  6
 19 31  1  0
 20 22  1  0
 20 32  1  0
 21 32  1  0
 24 25  3  0
 34 37  1  0
 34 39  2  0
 35 39  1  0
 36 37  1  0
 36 38  1  0
 38 40  1  0
M  CHG  1  34   1
M  END
>  <s_m_entry_id>  (26) 
204

>  <s_m_entry_name>  (26) 
000000062.1

>  <s_m_Source_Path>  (26) 
/Users/zaksoul/Documents/1

>  <s_m_Source_File>  (26) 
000000062.mol2

>  <i_m_Source_File_Index>  (26) 
1

$$$$
No_0_67,No_1_70,No_0_67,No_1_70,No_0_67,No_1_70,No_0_67,No_1_70,No_0_67,No_1_70
     RDKit          3D

 41 46  0  0  1  0  0  0  0  0999 V2000
   -5.0530    3.4550  -22.0680 C   0  0  0  0  0  0  0  0  0  0  0  0
   -5.3120    3.6430  -23.4050 C   0  0  0  0  0  0  0  0  0  0  0  0
   -3.8130    3.2240  -21.7180 C   0  0  0  0  0  0  0  0  0  0  0  0
   -2.9070    3.3740  -23.8760 C   0  0  0  0  0  0  0  0  0  0  0  0
   -2.7530    3.1280  -22.4550 C   0  0  0  0  0  0  0  0  0  0  0  0
   -4.2550    3.6130  -24.4070 C   0  0  0  0  0  0  0  0  0  0  0  0
   -3.4830    3.6560  -26.5990 C   0  0  0  0  0  0  0  0  0  0  0  0
    6.2160    3.0870  -21.2580 C   0  0  0  0  0  0  0  0  0  0  0  0
    6.0950    3.2350  -23.8080 C   0  0  0  0  0  0  0  0  0  0  0  0
   -4.4980    3.7400  -25.7440 C   0  0  0  0  0  0  0  0  0  0  0  0
    2.3010    3.7120  -23.8540 C   0  0  0  0  0  0  0  0  0  0  0  0
    1.4570    4.8040  -23.5580 C   0  0  0  0  0  0  0  0  0  0  0  0
    3.2270    6.0310  -22.8600 C   0  0  0  0  0  0  0  0  0  0  0  0
    3.6950    3.9280  -23.5290 C   0  0  0  0  0  0  0  0  0  0  0  0
    1.7810    2.5870  -24.5230 C   0  0  0  0  0  0  0  0  0  0  0  0
   -0.3620    3.3600  -24.4270 C   0  0  0  0  0  0  0  0  0  0  0  0
    0.1370    4.5880  -23.8200 C   0  0  0  0  0  0  0  0  0  0  0  0
   -1.8120    3.3400  -24.7930 C   0  0  0  0  0  0  0  0  0  0  0  0
    4.3450    1.4410  -23.2400 C   0  0  0  0  0  0  0  0  0  0  0  0
    5.2760    1.0990  -22.0870 C   0  0  2  0  0  0  0  0  0  0  0  0
    6.8440    2.6710  -22.6060 C   0  0  2  0  0  0  0  0  0  0  0  0
    5.2300    2.0960  -20.9170 C   0  0  0  0  0  0  0  0  0  0  0  0
   -2.1290    3.4980  -26.2230 C   0  0  0  0  0  0  0  0  0  0  0  0
   -1.4060    2.7380  -21.8470 C   0  0  0  0  0  0  0  0  0  0  0  0
   -0.3730    2.4080  -21.3340 C   0  0  0  0  0  0  0  0  0  0  0  0
   -0.7270    5.6160  -23.4790 F   0  0  0  0  0  0  0  0  0  0  0  0
   -3.6090    2.9810  -20.3350 F   0  0  0  0  0  0  0  0  0  0  0  0
    1.9080    5.9700  -23.0190 N   0  0  0  0  0  0  0  0  0  0  0  0
    4.1430    5.0860  -23.0760 N   0  0  0  0  0  0  0  0  0  0  0  0
    0.4790    2.4740  -24.8390 N   0  0  0  0  0  0  0  0  0  0  0  0
    4.6340    2.8980  -23.7020 N   0  0  0  0  0  0  0  0  0  0  0  0
    6.6850    1.1940  -22.5580 N   0  0  0  0  0  0  0  0  0  0  0  0
   -3.6450    3.6720  -27.9900 O   0  0  0  0  0  0  0  0  0  0  0  0
    6.0590   11.4730  -21.0020 O   0  0  0  0  0  0  0  0  0  0  0  0
    5.2360   11.2200  -23.1170 O   0  0  0  0  0  0  0  0  0  0  0  0
    4.7580    7.3650  -21.4920 N   0  0  0  0  0  0  0  0  0  0  0  0
    3.1820    8.4680  -22.9040 N   0  0  0  0  0  0  0  0  0  0  0  0
    5.3120    8.6000  -20.9510 C   0  0  0  0  0  0  0  0  0  0  0  0
    3.7520    7.3660  -22.3880 C   0  0  0  0  0  0  0  0  0  0  0  0
    5.7880   10.7840  -22.0480 C   0  0  0  0  0  0  0  0  0  0  0  0
    6.1500    9.3210  -22.0210 C   0  0  0  0  0  0  0  0  0  0  0  0
  1  2  2  0
  1  3  1  0
  2  6  1  0
  3  5  2  0
  3 27  1  0
  4  5  1  0
  4  6  2  0
  4 18  1  0
  5 24  1  0
  6 10  1  0
  7 10  2  0
  7 23  1  0
  7 33  1  0
 21  8  1  1
  8 22  1  0
  9 21  1  0
  9 31  1  0
 11 12  2  0
 11 14  1  0
 11 15  1  0
 12 17  1  0
 12 28  1  0
 13 28  2  0
 13 29  1  0
 13 39  1  0
 14 29  2  0
 14 31  1  0
 15 30  2  0
 16 17  2  0
 16 18  1  0
 16 30  1  0
 17 26  1  0
 18 23  2  0
 20 19  1  6
 19 31  1  0
 20 22  1  0
 20 32  1  0
 21 32  1  0
 24 25  3  0
 34 40  1  0
 35 40  2  0
 36 38  1  0
 36 39  2  0
 37 39  1  0
 38 41  1  0
 40 41  1  0
M  CHG  2  34  -1  36   1
M  END
>  <s_m_entry_id>  (27) 
205

>  <s_m_entry_name>  (27) 
000000063.1

>  <s_m_Source_Path>  (27) 
/Users/zaksoul/Documents/1

>  <s_m_Source_File>  (27) 
000000063.mol2

>  <i_m_Source_File_Index>  (27) 
1

$$$$
No_0_68,No_1_52,No_0_68,No_1_52,No_0_68,No_1_52,No_0_68,No_1_52,No_0_68,No_1_52
     RDKit          3D

 39 44  0  0  1  0  0  0  0  0999 V2000
   -5.0530    3.4550  -22.0680 C   0  0  0  0  0  0  0  0  0  0  0  0
   -5.3120    3.6430  -23.4050 C   0  0  0  0  0  0  0  0  0  0  0  0
   -3.8130    3.2240  -21.7180 C   0  0  0  0  0  0  0  0  0  0  0  0
   -2.9070    3.3740  -23.8760 C   0  0  0  0  0  0  0  0  0  0  0  0
   -2.7530    3.1280  -22.4550 C   0  0  0  0  0  0  0  0  0  0  0  0
   -4.2550    3.6130  -24.4070 C   0  0  0  0  0  0  0  0  0  0  0  0
   -3.4830    3.6560  -26.5990 C   0  0  0  0  0  0  0  0  0  0  0  0
    6.2160    3.0870  -21.2580 C   0  0  0  0  0  0  0  0  0  0  0  0
    6.0950    3.2350  -23.8080 C   0  0  0  0  0  0  0  0  0  0  0  0
   -4.4980    3.7400  -25.7440 C   0  0  0  0  0  0  0  0  0  0  0  0
    2.3010    3.7120  -23.8540 C   0  0  0  0  0  0  0  0  0  0  0  0
    1.4570    4.8040  -23.5580 C   0  0  0  0  0  0  0  0  0  0  0  0
    3.2270    6.0310  -22.8600 C   0  0  0  0  0  0  0  0  0  0  0  0
    3.6950    3.9280  -23.5290 C   0  0  0  0  0  0  0  0  0  0  0  0
    1.7810    2.5870  -24.5230 C   0  0  0  0  0  0  0  0  0  0  0  0
   -0.3620    3.3600  -24.4270 C   0  0  0  0  0  0  0  0  0  0  0  0
    0.1370    4.5880  -23.8200 C   0  0  0  0  0  0  0  0  0  0  0  0
   -1.8120    3.3400  -24.7930 C   0  0  0  0  0  0  0  0  0  0  0  0
    4.3450    1.4410  -23.2400 C   0  0  0  0  0  0  0  0  0  0  0  0
    5.2760    1.0990  -22.0870 C   0  0  2  0  0  0  0  0  0  0  0  0
    6.8440    2.6710  -22.6060 C   0  0  2  0  0  0  0  0  0  0  0  0
    5.2300    2.0960  -20.9170 C   0  0  0  0  0  0  0  0  0  0  0  0
   -2.1290    3.4980  -26.2230 C   0  0  0  0  0  0  0  0  0  0  0  0
   -1.4060    2.7380  -21.8470 C   0  0  0  0  0  0  0  0  0  0  0  0
   -0.3730    2.4080  -21.3340 C   0  0  0  0  0  0  0  0  0  0  0  0
   -0.7270    5.6160  -23.4790 F   0  0  0  0  0  0  0  0  0  0  0  0
   -3.6090    2.9810  -20.3350 F   0  0  0  0  0  0  0  0  0  0  0  0
    1.9080    5.9700  -23.0190 N   0  0  0  0  0  0  0  0  0  0  0  0
    4.1430    5.0860  -23.0760 N   0  0  0  0  0  0  0  0  0  0  0  0
    0.4790    2.4740  -24.8390 N   0  0  0  0  0  0  0  0  0  0  0  0
    4.6340    2.8980  -23.7020 N   0  0  0  0  0  0  0  0  0  0  0  0
    6.6850    1.1940  -22.5580 N   0  0  0  0  0  0  0  0  0  0  0  0
   -3.6450    3.6720  -27.9900 O   0  0  0  0  0  0  0  0  0  0  0  0
    3.1870    8.3680  -22.8110 O   0  0  0  0  0  0  0  0  0  0  0  0
    7.7420    7.9670  -21.2720 N   0  0  0  0  0  0  0  0  0  0  0  0
    4.7990    7.3650  -21.5420 N   0  0  0  0  0  0  0  0  0  0  0  0
    5.3430    8.6360  -21.0420 C   0  0  0  0  0  0  0  0  0  0  0  0
    6.6930    8.4710  -20.3230 C   0  0  0  0  0  0  0  0  0  0  0  0
    3.7520    7.3660  -22.3880 C   0  0  0  0  0  0  0  0  0  0  0  0
  1  2  2  0
  1  3  1  0
  2  6  1  0
  3  5  2  0
  3 27  1  0
  4  5  1  0
  4  6  2  0
  4 18  1  0
  5 24  1  0
  6 10  1  0
  7 10  2  0
  7 23  1  0
  7 33  1  0
 21  8  1  1
  8 22  1  0
  9 21  1  0
  9 31  1  0
 11 12  2  0
 11 14  1  0
 11 15  1  0
 12 17  1  0
 12 28  1  0
 13 28  2  0
 13 29  1  0
 13 39  1  0
 14 29  2  0
 14 31  1  0
 15 30  2  0
 16 17  2  0
 16 18  1  0
 16 30  1  0
 17 26  1  0
 18 23  2  0
 20 19  1  6
 19 31  1  0
 20 22  1  0
 20 32  1  0
 21 32  1  0
 24 25  3  0
 34 39  2  0
 35 38  1  0
 36 37  1  0
 36 39  1  0
 37 38  1  0
M  CHG  1  35   1
M  END
>  <s_m_entry_id>  (28) 
206

>  <s_m_entry_name>  (28) 
000000064.1

>  <s_m_Source_Path>  (28) 
/Users/zaksoul/Documents/1

>  <s_m_Source_File>  (28) 
000000064.mol2

>  <i_m_Source_File_Index>  (28) 
1

$$$$
No_0_69,No_1_64,No_0_69,No_1_64,No_0_69,No_1_64,No_0_69,No_1_64,No_0_69,No_1_64
     RDKit          3D

 39 44  0  0  1  0  0  0  0  0999 V2000
   -5.0530    3.4550  -22.0680 C   0  0  0  0  0  0  0  0  0  0  0  0
   -5.3120    3.6430  -23.4050 C   0  0  0  0  0  0  0  0  0  0  0  0
   -3.8130    3.2240  -21.7180 C   0  0  0  0  0  0  0  0  0  0  0  0
   -2.9070    3.3740  -23.8760 C   0  0  0  0  0  0  0  0  0  0  0  0
   -2.7530    3.1280  -22.4550 C   0  0  0  0  0  0  0  0  0  0  0  0
   -4.2550    3.6130  -24.4070 C   0  0  0  0  0  0  0  0  0  0  0  0
   -3.4830    3.6560  -26.5990 C   0  0  0  0  0  0  0  0  0  0  0  0
    6.2160    3.0870  -21.2580 C   0  0  0  0  0  0  0  0  0  0  0  0
    6.0950    3.2350  -23.8080 C   0  0  0  0  0  0  0  0  0  0  0  0
   -4.4980    3.7400  -25.7440 C   0  0  0  0  0  0  0  0  0  0  0  0
    2.3010    3.7120  -23.8540 C   0  0  0  0  0  0  0  0  0  0  0  0
    1.4570    4.8040  -23.5580 C   0  0  0  0  0  0  0  0  0  0  0  0
    3.2270    6.0310  -22.8600 C   0  0  0  0  0  0  0  0  0  0  0  0
    3.6950    3.9280  -23.5290 C   0  0  0  0  0  0  0  0  0  0  0  0
    1.7810    2.5870  -24.5230 C   0  0  0  0  0  0  0  0  0  0  0  0
   -0.3620    3.3600  -24.4270 C   0  0  0  0  0  0  0  0  0  0  0  0
    0.1370    4.5880  -23.8200 C   0  0  0  0  0  0  0  0  0  0  0  0
   -1.8120    3.3400  -24.7930 C   0  0  0  0  0  0  0  0  0  0  0  0
    4.3450    1.4410  -23.2400 C   0  0  0  0  0  0  0  0  0  0  0  0
    5.2760    1.0990  -22.0870 C   0  0  2  0  0  0  0  0  0  0  0  0
    6.8440    2.6710  -22.6060 C   0  0  2  0  0  0  0  0  0  0  0  0
    5.2300    2.0960  -20.9170 C   0  0  0  0  0  0  0  0  0  0  0  0
   -2.1290    3.4980  -26.2230 C   0  0  0  0  0  0  0  0  0  0  0  0
   -1.4060    2.7380  -21.8470 C   0  0  0  0  0  0  0  0  0  0  0  0
   -0.3730    2.4080  -21.3340 C   0  0  0  0  0  0  0  0  0  0  0  0
   -0.7270    5.6160  -23.4790 F   0  0  0  0  0  0  0  0  0  0  0  0
   -3.6090    2.9810  -20.3350 F   0  0  0  0  0  0  0  0  0  0  0  0
    1.9080    5.9700  -23.0190 N   0  0  0  0  0  0  0  0  0  0  0  0
    4.1430    5.0860  -23.0760 N   0  0  0  0  0  0  0  0  0  0  0  0
    0.4790    2.4740  -24.8390 N   0  0  0  0  0  0  0  0  0  0  0  0
    4.6340    2.8980  -23.7020 N   0  0  0  0  0  0  0  0  0  0  0  0
    6.6850    1.1940  -22.5580 N   0  0  0  0  0  0  0  0  0  0  0  0
   -3.6450    3.6720  -27.9900 O   0  0  0  0  0  0  0  0  0  0  0  0
    3.1550    8.3520  -22.7650 O   0  0  0  0  0  0  0  0  0  0  0  0
    5.4310    8.8270  -21.2380 N   0  0  0  0  0  0  0  0  0  0  0  0
    4.9850    7.4160  -21.5150 C   0  0  0  0  0  0  0  0  0  0  0  0
    6.8660    8.8850  -20.7910 C   0  0  0  0  0  0  0  0  0  0  0  0
    4.5230    9.5650  -20.2920 C   0  0  0  0  0  0  0  0  0  0  0  0
    3.7520    7.3660  -22.3880 C   0  0  0  0  0  0  0  0  0  0  0  0
  1  2  2  0
  1  3  1  0
  2  6  1  0
  3  5  2  0
  3 27  1  0
  4  5  1  0
  4  6  2  0
  4 18  1  0
  5 24  1  0
  6 10  1  0
  7 10  2  0
  7 23  1  0
  7 33  1  0
 21  8  1  1
  8 22  1  0
  9 21  1  0
  9 31  1  0
 11 12  2  0
 11 14  1  0
 11 15  1  0
 12 17  1  0
 12 28  1  0
 13 28  2  0
 13 29  1  0
 13 39  1  0
 14 29  2  0
 14 31  1  0
 15 30  2  0
 16 17  2  0
 16 18  1  0
 16 30  1  0
 17 26  1  0
 18 23  2  0
 20 19  1  6
 19 31  1  0
 20 22  1  0
 20 32  1  0
 21 32  1  0
 24 25  3  0
 34 39  2  0
 35 36  1  0
 35 37  1  0
 35 38  1  0
 36 39  1  0
M  END
>  <s_m_entry_id>  (29) 
207

>  <s_m_entry_name>  (29) 
000000065.1

>  <s_m_Source_Path>  (29) 
/Users/zaksoul/Documents/1

>  <s_m_Source_File>  (29) 
000000065.mol2

>  <i_m_Source_File_Index>  (29) 
1

$$$$
No_0_70,No_0_71,No_0_72,No_0_73,No_0_74,No_0_75,No_0_76,No_0_77,No_0_78,No_1_9,No_1_10,No_1_12,No_1_16,No_1_20,No_1_26,No_1_31,No_1_32,No_1_59,No_0_70,No_0_71,No_0_72,No_0_73,No_0_74,No_0_75,No_0_76,No_0_77,No_0_78,No_1_9,No_1_10,No_1_12,No_1_16,No_1_20,No_1_26,No_1_31,No_1_32,No_1_59,No_0_70,No_0_71,No_0_72,No_0_73,No_0_74,No_0_75,No_0_76,No_0_77,No_0_78,No_1_9,No_1_10,No_1_12,No_1_16,No_1_20,No_1_26,No_1_31,No_1_32,No_1_59,No_0_70,No_0_71,No_0_72,No_0_73,No_0_74,No_0_75,No_0_76,No_0_77,No_0_78,No_1_9,No_1_10,No_1_12,No_1_16,No_1_20,No_1_26,No_1_31,No_1_32,No_1_59,No_0_70,No_0_71,No_0_72,No_0_73,No_0_74,No_0_75,No_0_76,No_0_77,No_0_78,No_1_9,No_1_10,No_1_12,No_1_16,No_1_20,No_1_26,No_1_31,No_1_32,No_1_59
     RDKit          3D

 39 44  0  0  1  0  0  0  0  0999 V2000
   -5.0530    3.4550  -22.0680 C   0  0  0  0  0  0  0  0  0  0  0  0
   -5.3120    3.6430  -23.4050 C   0  0  0  0  0  0  0  0  0  0  0  0
   -3.8130    3.2240  -21.7180 C   0  0  0  0  0  0  0  0  0  0  0  0
   -2.9070    3.3740  -23.8760 C   0  0  0  0  0  0  0  0  0  0  0  0
   -2.7530    3.1280  -22.4550 C   0  0  0  0  0  0  0  0  0  0  0  0
   -4.2550    3.6130  -24.4070 C   0  0  0  0  0  0  0  0  0  0  0  0
   -3.4830    3.6560  -26.5990 C   0  0  0  0  0  0  0  0  0  0  0  0
    6.2160    3.0870  -21.2580 C   0  0  0  0  0  0  0  0  0  0  0  0
    6.0950    3.2350  -23.8080 C   0  0  0  0  0  0  0  0  0  0  0  0
   -4.4980    3.7400  -25.7440 C   0  0  0  0  0  0  0  0  0  0  0  0
    2.3010    3.7120  -23.8540 C   0  0  0  0  0  0  0  0  0  0  0  0
    1.4570    4.8040  -23.5580 C   0  0  0  0  0  0  0  0  0  0  0  0
    3.2270    6.0310  -22.8600 C   0  0  0  0  0  0  0  0  0  0  0  0
    3.6950    3.9280  -23.5290 C   0  0  0  0  0  0  0  0  0  0  0  0
    1.7810    2.5870  -24.5230 C   0  0  0  0  0  0  0  0  0  0  0  0
   -0.3620    3.3600  -24.4270 C   0  0  0  0  0  0  0  0  0  0  0  0
    0.1370    4.5880  -23.8200 C   0  0  0  0  0  0  0  0  0  0  0  0
   -1.8120    3.3400  -24.7930 C   0  0  0  0  0  0  0  0  0  0  0  0
    4.3450    1.4410  -23.2400 C   0  0  0  0  0  0  0  0  0  0  0  0
    5.2760    1.0990  -22.0870 C   0  0  2  0  0  0  0  0  0  0  0  0
    6.8440    2.6710  -22.6060 C   0  0  2  0  0  0  0  0  0  0  0  0
    5.2300    2.0960  -20.9170 C   0  0  0  0  0  0  0  0  0  0  0  0
   -2.1290    3.4980  -26.2230 C   0  0  0  0  0  0  0  0  0  0  0  0
   -1.4060    2.7380  -21.8470 C   0  0  0  0  0  0  0  0  0  0  0  0
   -0.3730    2.4080  -21.3340 C   0  0  0  0  0  0  0  0  0  0  0  0
   -0.7270    5.6160  -23.4790 F   0  0  0  0  0  0  0  0  0  0  0  0
   -3.6090    2.9810  -20.3350 F   0  0  0  0  0  0  0  0  0  0  0  0
    1.9080    5.9700  -23.0190 N   0  0  0  0  0  0  0  0  0  0  0  0
    4.1430    5.0860  -23.0760 N   0  0  0  0  0  0  0  0  0  0  0  0
    0.4790    2.4740  -24.8390 N   0  0  0  0  0  0  0  0  0  0  0  0
    4.6340    2.8980  -23.7020 N   0  0  0  0  0  0  0  0  0  0  0  0
    6.6850    1.1940  -22.5580 N   0  0  0  0  0  0  0  0  0  0  0  0
   -3.6450    3.6720  -27.9900 O   0  0  0  0  0  0  0  0  0  0  0  0
    5.9150    8.8360  -20.3280 O   0  0  0  0  0  0  0  0  0  0  0  0
    3.4050    7.6150  -20.9390 N   0  0  0  0  0  0  0  0  0  0  0  0
    5.0500   10.7610  -21.1530 N   0  0  0  0  0  0  0  0  0  0  0  0
    3.5260    9.0490  -20.5030 C   0  0  0  0  0  0  0  0  0  0  0  0
    3.7570    7.3790  -22.3830 C   0  0  0  0  0  0  0  0  0  0  0  0
    4.9560    9.5250  -20.6420 C   0  0  0  0  0  0  0  0  0  0  0  0
  1  2  2  0
  1  3  1  0
  2  6  1  0
  3  5  2  0
  3 27  1  0
  4  5  1  0
  4  6  2  0
  4 18  1  0
  5 24  1  0
  6 10  1  0
  7 10  2  0
  7 23  1  0
  7 33  1  0
 21  8  1  1
  8 22  1  0
  9 21  1  0
  9 31  1  0
 11 12  2  0
 11 14  1  0
 11 15  1  0
 12 17  1  0
 12 28  1  0
 13 28  2  0
 13 29  1  0
 13 38  1  0
 14 29  2  0
 14 31  1  0
 15 30  2  0
 16 17  2  0
 16 18  1  0
 16 30  1  0
 17 26  1  0
 18 23  2  0
 20 19  1  6
 19 31  1  0
 20 22  1  0
 20 32  1  0
 21 32  1  0
 24 25  3  0
 34 39  2  0
 35 37  1  0
 35 38  1  0
 36 39  1  0
 37 39  1  0
M  END
>  <s_m_entry_id>  (30) 
208

>  <s_m_entry_name>  (30) 
000000066.1

>  <s_m_Source_Path>  (30) 
/Users/zaksoul/Documents/1

>  <s_m_Source_File>  (30) 
000000066.mol2

>  <i_m_Source_File_Index>  (30) 
1

$$$$
No_0_79,No_0_80,No_0_81,No_0_82,No_1_28,No_1_29,No_1_39,No_1_65,No_0_79,No_0_80,No_0_81,No_0_82,No_1_28,No_1_29,No_1_39,No_1_65,No_0_79,No_0_80,No_0_81,No_0_82,No_1_28,No_1_29,No_1_39,No_1_65,No_0_79,No_0_80,No_0_81,No_0_82,No_1_28,No_1_29,No_1_39,No_1_65,No_0_79,No_0_80,No_0_81,No_0_82,No_1_28,No_1_29,No_1_39,No_1_65
     RDKit          3D

 39 44  0  0  1  0  0  0  0  0999 V2000
   -5.0530    3.4550  -22.0680 C   0  0  0  0  0  0  0  0  0  0  0  0
   -5.3120    3.6430  -23.4050 C   0  0  0  0  0  0  0  0  0  0  0  0
   -3.8130    3.2240  -21.7180 C   0  0  0  0  0  0  0  0  0  0  0  0
   -2.9070    3.3740  -23.8760 C   0  0  0  0  0  0  0  0  0  0  0  0
   -2.7530    3.1280  -22.4550 C   0  0  0  0  0  0  0  0  0  0  0  0
   -4.2550    3.6130  -24.4070 C   0  0  0  0  0  0  0  0  0  0  0  0
   -3.4830    3.6560  -26.5990 C   0  0  0  0  0  0  0  0  0  0  0  0
    6.2160    3.0870  -21.2580 C   0  0  0  0  0  0  0  0  0  0  0  0
    6.0950    3.2350  -23.8080 C   0  0  0  0  0  0  0  0  0  0  0  0
   -4.4980    3.7400  -25.7440 C   0  0  0  0  0  0  0  0  0  0  0  0
    2.3010    3.7120  -23.8540 C   0  0  0  0  0  0  0  0  0  0  0  0
    1.4570    4.8040  -23.5580 C   0  0  0  0  0  0  0  0  0  0  0  0
    3.2270    6.0310  -22.8600 C   0  0  0  0  0  0  0  0  0  0  0  0
    3.6950    3.9280  -23.5290 C   0  0  0  0  0  0  0  0  0  0  0  0
    1.7810    2.5870  -24.5230 C   0  0  0  0  0  0  0  0  0  0  0  0
   -0.3620    3.3600  -24.4270 C   0  0  0  0  0  0  0  0  0  0  0  0
    0.1370    4.5880  -23.8200 C   0  0  0  0  0  0  0  0  0  0  0  0
   -1.8120    3.3400  -24.7930 C   0  0  0  0  0  0  0  0  0  0  0  0
    4.3450    1.4410  -23.2400 C   0  0  0  0  0  0  0  0  0  0  0  0
    5.2760    1.0990  -22.0870 C   0  0  2  0  0  0  0  0  0  0  0  0
    6.8440    2.6710  -22.6060 C   0  0  2  0  0  0  0  0  0  0  0  0
    5.2300    2.0960  -20.9170 C   0  0  0  0  0  0  0  0  0  0  0  0
   -2.1290    3.4980  -26.2230 C   0  0  0  0  0  0  0  0  0  0  0  0
   -1.4060    2.7380  -21.8470 C   0  0  0  0  0  0  0  0  0  0  0  0
   -0.3730    2.4080  -21.3340 C   0  0  0  0  0  0  0  0  0  0  0  0
   -0.7270    5.6160  -23.4790 F   0  0  0  0  0  0  0  0  0  0  0  0
   -3.6090    2.9810  -20.3350 F   0  0  0  0  0  0  0  0  0  0  0  0
    1.9080    5.9700  -23.0190 N   0  0  0  0  0  0  0  0  0  0  0  0
    4.1430    5.0860  -23.0760 N   0  0  0  0  0  0  0  0  0  0  0  0
    0.4790    2.4740  -24.8390 N   0  0  0  0  0  0  0  0  0  0  0  0
    4.6340    2.8980  -23.7020 N   0  0  0  0  0  0  0  0  0  0  0  0
    6.6850    1.1940  -22.5580 N   0  0  0  0  0  0  0  0  0  0  0  0
   -3.6450    3.6720  -27.9900 O   0  0  0  0  0  0  0  0  0  0  0  0
    6.3730    7.6810  -20.9660 O   0  0  0  0  0  0  0  0  0  0  0  0
    6.4700    9.7000  -19.9070 O   0  0  0  0  0  0  0  0  0  0  0  0
    3.7370    7.4720  -20.8800 N   0  0  0  0  0  0  0  0  0  0  0  0
    3.7570    7.3790  -22.3830 C   0  0  0  0  0  0  0  0  0  0  0  0
    4.3350    8.7260  -20.3040 C   0  0  0  0  0  0  0  0  0  0  0  0
    5.8410    8.7010  -20.4030 C   0  0  0  0  0  0  0  0  0  0  0  0
  1  2  2  0
  1  3  1  0
  2  6  1  0
  3  5  2  0
  3 27  1  0
  4  5  1  0
  4  6  2  0
  4 18  1  0
  5 24  1  0
  6 10  1  0
  7 10  2  0
  7 23  1  0
  7 33  1  0
 21  8  1  1
  8 22  1  0
  9 21  1  0
  9 31  1  0
 11 12  2  0
 11 14  1  0
 11 15  1  0
 12 17  1  0
 12 28  1  0
 13 28  2  0
 13 29  1  0
 13 37  1  0
 14 29  2  0
 14 31  1  0
 15 30  2  0
 16 17  2  0
 16 18  1  0
 16 30  1  0
 17 26  1  0
 18 23  2  0
 20 19  1  6
 19 31  1  0
 20 22  1  0
 20 32  1  0
 21 32  1  0
 24 25  3  0
 34 39  1  0
 35 39  2  0
 36 37  1  0
 36 38  1  0
 38 39  1  0
M  CHG  2  34  -1  36   1
M  END
>  <s_m_entry_id>  (31) 
217

>  <s_m_entry_name>  (31) 
000000075.1

>  <s_m_Source_Path>  (31) 
/Users/zaksoul/Documents/1

>  <s_m_Source_File>  (31) 
000000075.mol2

>  <i_m_Source_File_Index>  (31) 
1

$$$$
No_0_83,No_0_84,No_0_85,No_0_86,No_0_87,No_0_88,No_1_6,No_1_8,No_1_14,No_1_22,No_1_54,No_1_68,No_0_83,No_0_84,No_0_85,No_0_86,No_0_87,No_0_88,No_1_6,No_1_8,No_1_14,No_1_22,No_1_54,No_1_68,No_0_83,No_0_84,No_0_85,No_0_86,No_0_87,No_0_88,No_1_6,No_1_8,No_1_14,No_1_22,No_1_54,No_1_68,No_0_83,No_0_84,No_0_85,No_0_86,No_0_87,No_0_88,No_1_6,No_1_8,No_1_14,No_1_22,No_1_54,No_1_68,No_0_83,No_0_84,No_0_85,No_0_86,No_0_87,No_0_88,No_1_6,No_1_8,No_1_14,No_1_22,No_1_54,No_1_68
     RDKit          3D

 38 43  0  0  1  0  0  0  0  0999 V2000
   -5.0530    3.4550  -22.0680 C   0  0  0  0  0  0  0  0  0  0  0  0
   -5.3120    3.6430  -23.4050 C   0  0  0  0  0  0  0  0  0  0  0  0
   -3.8130    3.2240  -21.7180 C   0  0  0  0  0  0  0  0  0  0  0  0
   -2.9070    3.3740  -23.8760 C   0  0  0  0  0  0  0  0  0  0  0  0
   -2.7530    3.1280  -22.4550 C   0  0  0  0  0  0  0  0  0  0  0  0
   -4.2550    3.6130  -24.4070 C   0  0  0  0  0  0  0  0  0  0  0  0
   -3.4830    3.6560  -26.5990 C   0  0  0  0  0  0  0  0  0  0  0  0
    6.2160    3.0870  -21.2580 C   0  0  0  0  0  0  0  0  0  0  0  0
    6.0950    3.2350  -23.8080 C   0  0  0  0  0  0  0  0  0  0  0  0
   -4.4980    3.7400  -25.7440 C   0  0  0  0  0  0  0  0  0  0  0  0
    2.3010    3.7120  -23.8540 C   0  0  0  0  0  0  0  0  0  0  0  0
    1.4570    4.8040  -23.5580 C   0  0  0  0  0  0  0  0  0  0  0  0
    3.2270    6.0310  -22.8600 C   0  0  0  0  0  0  0  0  0  0  0  0
    3.6950    3.9280  -23.5290 C   0  0  0  0  0  0  0  0  0  0  0  0
    1.7810    2.5870  -24.5230 C   0  0  0  0  0  0  0  0  0  0  0  0
   -0.3620    3.3600  -24.4270 C   0  0  0  0  0  0  0  0  0  0  0  0
    0.1370    4.5880  -23.8200 C   0  0  0  0  0  0  0  0  0  0  0  0
   -1.8120    3.3400  -24.7930 C   0  0  0  0  0  0  0  0  0  0  0  0
    4.3450    1.4410  -23.2400 C   0  0  0  0  0  0  0  0  0  0  0  0
    5.2760    1.0990  -22.0870 C   0  0  2  0  0  0  0  0  0  0  0  0
    6.8440    2.6710  -22.6060 C   0  0  2  0  0  0  0  0  0  0  0  0
    5.2300    2.0960  -20.9170 C   0  0  0  0  0  0  0  0  0  0  0  0
   -2.1290    3.4980  -26.2230 C   0  0  0  0  0  0  0  0  0  0  0  0
   -1.4060    2.7380  -21.8470 C   0  0  0  0  0  0  0  0  0  0  0  0
   -0.3730    2.4080  -21.3340 C   0  0  0  0  0  0  0  0  0  0  0  0
   -0.7270    5.6160  -23.4790 F   0  0  0  0  0  0  0  0  0  0  0  0
   -3.6090    2.9810  -20.3350 F   0  0  0  0  0  0  0  0  0  0  0  0
    1.9080    5.9700  -23.0190 N   0  0  0  0  0  0  0  0  0  0  0  0
    4.1430    5.0860  -23.0760 N   0  0  0  0  0  0  0  0  0  0  0  0
    0.4790    2.4740  -24.8390 N   0  0  0  0  0  0  0  0  0  0  0  0
    4.6340    2.8980  -23.7020 N   0  0  0  0  0  0  0  0  0  0  0  0
    6.6850    1.1940  -22.5580 N   0  0  0  0  0  0  0  0  0  0  0  0
   -3.6450    3.6720  -27.9900 O   0  0  0  0  0  0  0  0  0  0  0  0
    6.7510    8.5680  -21.3760 O   0  0  0  0  0  0  0  0  0  0  0  0
    4.0780    7.3390  -20.9130 N   0  0  0  0  0  0  0  0  0  0  0  0
    4.5240    8.6490  -20.3180 C   0  0  0  0  0  0  0  0  0  0  0  0
    3.7570    7.3790  -22.3830 C   0  0  0  0  0  0  0  0  0  0  0  0
    6.0510    8.7160  -20.1330 C   0  0  0  0  0  0  0  0  0  0  0  0
  1  2  2  0
  1  3  1  0
  2  6  1  0
  3  5  2  0
  3 27  1  0
  4  5  1  0
  4  6  2  0
  4 18  1  0
  5 24  1  0
  6 10  1  0
  7 10  2  0
  7 23  1  0
  7 33  1  0
 21  8  1  1
  8 22  1  0
  9 21  1  0
  9 31  1  0
 11 12  2  0
 11 14  1  0
 11 15  1  0
 12 17  1  0
 12 28  1  0
 13 28  2  0
 13 29  1  0
 13 37  1  0
 14 29  2  0
 14 31  1  0
 15 30  2  0
 16 17  2  0
 16 18  1  0
 16 30  1  0
 17 26  1  0
 18 23  2  0
 20 19  1  6
 19 31  1  0
 20 22  1  0
 20 32  1  0
 21 32  1  0
 24 25  3  0
 34 38  1  0
 35 36  1  0
 35 37  1  0
 36 38  1  0
M  CHG  1  35   1
M  END
>  <s_m_entry_id>  (32) 
221

>  <s_m_entry_name>  (32) 
000000079.1

>  <s_m_Source_Path>  (32) 
/Users/zaksoul/Documents/1

>  <s_m_Source_File>  (32) 
000000079.mol2

>  <i_m_Source_File_Index>  (32) 
1

$$$$
No_0_89,No_0_90,No_0_91,No_0_92,No_1_18,No_1_23,No_1_33,No_1_34,No_0_89,No_0_90,No_0_91,No_0_92,No_1_18,No_1_23,No_1_33,No_1_34,No_0_89,No_0_90,No_0_91,No_0_92,No_1_18,No_1_23,No_1_33,No_1_34,No_0_89,No_0_90,No_0_91,No_0_92,No_1_18,No_1_23,No_1_33,No_1_34,No_0_89,No_0_90,No_0_91,No_0_92,No_1_18,No_1_23,No_1_33,No_1_34
     RDKit          3D

 38 43  0  0  1  0  0  0  0  0999 V2000
   -5.0530    3.4550  -22.0680 C   0  0  0  0  0  0  0  0  0  0  0  0
   -5.3120    3.6430  -23.4050 C   0  0  0  0  0  0  0  0  0  0  0  0
   -3.8130    3.2240  -21.7180 C   0  0  0  0  0  0  0  0  0  0  0  0
   -2.9070    3.3740  -23.8760 C   0  0  0  0  0  0  0  0  0  0  0  0
   -2.7530    3.1280  -22.4550 C   0  0  0  0  0  0  0  0  0  0  0  0
   -4.2550    3.6130  -24.4070 C   0  0  0  0  0  0  0  0  0  0  0  0
   -3.4830    3.6560  -26.5990 C   0  0  0  0  0  0  0  0  0  0  0  0
    6.2160    3.0870  -21.2580 C   0  0  0  0  0  0  0  0  0  0  0  0
    6.0950    3.2350  -23.8080 C   0  0  0  0  0  0  0  0  0  0  0  0
   -4.4980    3.7400  -25.7440 C   0  0  0  0  0  0  0  0  0  0  0  0
    2.3010    3.7120  -23.8540 C   0  0  0  0  0  0  0  0  0  0  0  0
    1.4570    4.8040  -23.5580 C   0  0  0  0  0  0  0  0  0  0  0  0
    3.2270    6.0310  -22.8600 C   0  0  0  0  0  0  0  0  0  0  0  0
    3.6950    3.9280  -23.5290 C   0  0  0  0  0  0  0  0  0  0  0  0
    1.7810    2.5870  -24.5230 C   0  0  0  0  0  0  0  0  0  0  0  0
   -0.3620    3.3600  -24.4270 C   0  0  0  0  0  0  0  0  0  0  0  0
    0.1370    4.5880  -23.8200 C   0  0  0  0  0  0  0  0  0  0  0  0
   -1.8120    3.3400  -24.7930 C   0  0  0  0  0  0  0  0  0  0  0  0
    4.3450    1.4410  -23.2400 C   0  0  0  0  0  0  0  0  0  0  0  0
    5.2760    1.0990  -22.0870 C   0  0  2  0  0  0  0  0  0  0  0  0
    6.8440    2.6710  -22.6060 C   0  0  2  0  0  0  0  0  0  0  0  0
    5.2300    2.0960  -20.9170 C   0  0  0  0  0  0  0  0  0  0  0  0
   -2.1290    3.4980  -26.2230 C   0  0  0  0  0  0  0  0  0  0  0  0
   -1.4060    2.7380  -21.8470 C   0  0  0  0  0  0  0  0  0  0  0  0
   -0.3730    2.4080  -21.3340 C   0  0  0  0  0  0  0  0  0  0  0  0
   -0.7270    5.6160  -23.4790 F   0  0  0  0  0  0  0  0  0  0  0  0
   -3.6090    2.9810  -20.3350 F   0  0  0  0  0  0  0  0  0  0  0  0
    1.9080    5.9700  -23.0190 N   0  0  0  0  0  0  0  0  0  0  0  0
    4.1430    5.0860  -23.0760 N   0  0  0  0  0  0  0  0  0  0  0  0
    0.4790    2.4740  -24.8390 N   0  0  0  0  0  0  0  0  0  0  0  0
    4.6340    2.8980  -23.7020 N   0  0  0  0  0  0  0  0  0  0  0  0
    6.6850    1.1940  -22.5580 N   0  0  0  0  0  0  0  0  0  0  0  0
   -3.6450    3.6720  -27.9900 O   0  0  0  0  0  0  0  0  0  0  0  0
    5.6550   10.3020  -19.6280 F   0  0  0  0  0  0  0  0  0  0  0  0
    3.4140    7.6320  -20.9400 N   0  0  0  0  0  0  0  0  0  0  0  0
    3.8160    8.9790  -20.3970 C   0  0  0  0  0  0  0  0  0  0  0  0
    3.7570    7.3790  -22.3830 C   0  0  0  0  0  0  0  0  0  0  0  0
    5.3450    9.1530  -20.3480 C   0  0  0  0  0  0  0  0  0  0  0  0
  1  2  2  0
  1  3  1  0
  2  6  1  0
  3  5  2  0
  3 27  1  0
  4  5  1  0
  4  6  2  0
  4 18  1  0
  5 24  1  0
  6 10  1  0
  7 10  2  0
  7 23  1  0
  7 33  1  0
 21  8  1  1
  8 22  1  0
  9 21  1  0
  9 31  1  0
 11 12  2  0
 11 14  1  0
 11 15  1  0
 12 17  1  0
 12 28  1  0
 13 28  2  0
 13 29  1  0
 13 37  1  0
 14 29  2  0
 14 31  1  0
 15 30  2  0
 16 17  2  0
 16 18  1  0
 16 30  1  0
 17 26  1  0
 18 23  2  0
 20 19  1  6
 19 31  1  0
 20 22  1  0
 20 32  1  0
 21 32  1  0
 24 25  3  0
 34 38  1  0
 35 36  1  0
 35 37  1  0
 36 38  1  0
M  CHG  1  35   1
M  END
>  <s_m_entry_id>  (33) 
227

>  <s_m_entry_name>  (33) 
000000085.1

>  <s_m_Source_Path>  (33) 
/Users/zaksoul/Documents/1

>  <s_m_Source_File>  (33) 
000000085.mol2

>  <i_m_Source_File_Index>  (33) 
1

$$$$
No_0_93,No_0_94,No_0_95,No_0_96,No_1_48,No_1_57,No_1_66,No_1_97,No_0_93,No_0_94,No_0_95,No_0_96,No_1_48,No_1_57,No_1_66,No_1_97,No_0_93,No_0_94,No_0_95,No_0_96,No_1_48,No_1_57,No_1_66,No_1_97,No_0_93,No_0_94,No_0_95,No_0_96,No_1_48,No_1_57,No_1_66,No_1_97,No_0_93,No_0_94,No_0_95,No_0_96,No_1_48,No_1_57,No_1_66,No_1_97
     RDKit          3D

 39 44  0  0  1  0  0  0  0  0999 V2000
   -5.0530    3.4550  -22.0680 C   0  0  0  0  0  0  0  0  0  0  0  0
   -5.3120    3.6430  -23.4050 C   0  0  0  0  0  0  0  0  0  0  0  0
   -3.8130    3.2240  -21.7180 C   0  0  0  0  0  0  0  0  0  0  0  0
   -2.9070    3.3740  -23.8760 C   0  0  0  0  0  0  0  0  0  0  0  0
   -2.7530    3.1280  -22.4550 C   0  0  0  0  0  0  0  0  0  0  0  0
   -4.2550    3.6130  -24.4070 C   0  0  0  0  0  0  0  0  0  0  0  0
   -3.4830    3.6560  -26.5990 C   0  0  0  0  0  0  0  0  0  0  0  0
    6.2160    3.0870  -21.2580 C   0  0  0  0  0  0  0  0  0  0  0  0
    6.0950    3.2350  -23.8080 C   0  0  0  0  0  0  0  0  0  0  0  0
   -4.4980    3.7400  -25.7440 C   0  0  0  0  0  0  0  0  0  0  0  0
    2.3010    3.7120  -23.8540 C   0  0  0  0  0  0  0  0  0  0  0  0
    1.4570    4.8040  -23.5580 C   0  0  0  0  0  0  0  0  0  0  0  0
    3.2270    6.0310  -22.8600 C   0  0  0  0  0  0  0  0  0  0  0  0
    3.6950    3.9280  -23.5290 C   0  0  0  0  0  0  0  0  0  0  0  0
    1.7810    2.5870  -24.5230 C   0  0  0  0  0  0  0  0  0  0  0  0
   -0.3620    3.3600  -24.4270 C   0  0  0  0  0  0  0  0  0  0  0  0
    0.1370    4.5880  -23.8200 C   0  0  0  0  0  0  0  0  0  0  0  0
   -1.8120    3.3400  -24.7930 C   0  0  0  0  0  0  0  0  0  0  0  0
    4.3450    1.4410  -23.2400 C   0  0  0  0  0  0  0  0  0  0  0  0
    5.2760    1.0990  -22.0870 C   0  0  2  0  0  0  0  0  0  0  0  0
    6.8440    2.6710  -22.6060 C   0  0  2  0  0  0  0  0  0  0  0  0
    5.2300    2.0960  -20.9170 C   0  0  0  0  0  0  0  0  0  0  0  0
   -2.1290    3.4980  -26.2230 C   0  0  0  0  0  0  0  0  0  0  0  0
   -1.4060    2.7380  -21.8470 C   0  0  0  0  0  0  0  0  0  0  0  0
   -0.3730    2.4080  -21.3340 C   0  0  0  0  0  0  0  0  0  0  0  0
   -0.7270    5.6160  -23.4790 F   0  0  0  0  0  0  0  0  0  0  0  0
   -3.6090    2.9810  -20.3350 F   0  0  0  0  0  0  0  0  0  0  0  0
    1.9080    5.9700  -23.0190 N   0  0  0  0  0  0  0  0  0  0  0  0
    4.1430    5.0860  -23.0760 N   0  0  0  0  0  0  0  0  0  0  0  0
    0.4790    2.4740  -24.8390 N   0  0  0  0  0  0  0  0  0  0  0  0
    4.6340    2.8980  -23.7020 N   0  0  0  0  0  0  0  0  0  0  0  0
    6.6850    1.1940  -22.5580 N   0  0  0  0  0  0  0  0  0  0  0  0
   -3.6450    3.6720  -27.9900 O   0  0  0  0  0  0  0  0  0  0  0  0
    8.0560   10.0360  -20.6030 F   0  0  0  0  0  0  0  0  0  0  0  0
    5.0090    7.1990  -21.5650 N   0  0  0  0  0  0  0  0  0  0  0  0
    6.3690    9.2670  -22.1200 C   0  0  0  0  0  0  0  0  0  0  0  0
    3.7570    7.3790  -22.3830 C   0  0  0  0  0  0  0  0  0  0  0  0
    5.6200    8.4670  -21.0310 C   0  0  0  0  0  0  0  0  0  0  0  0
    7.8720    9.3550  -21.8020 C   0  0  0  0  0  0  0  0  0  0  0  0
  1  2  2  0
  1  3  1  0
  2  6  1  0
  3  5  2  0
  3 27  1  0
  4  5  1  0
  4  6  2  0
  4 18  1  0
  5 24  1  0
  6 10  1  0
  7 10  2  0
  7 23  1  0
  7 33  1  0
 21  8  1  1
  8 22  1  0
  9 21  1  0
  9 31  1  0
 11 12  2  0
 11 14  1  0
 11 15  1  0
 12 17  1  0
 12 28  1  0
 13 28  2  0
 13 29  1  0
 13 37  1  0
 14 29  2  0
 14 31  1  0
 15 30  2  0
 16 17  2  0
 16 18  1  0
 16 30  1  0
 17 26  1  0
 18 23  2  0
 20 19  1  6
 19 31  1  0
 20 22  1  0
 20 32  1  0
 21 32  1  0
 24 25  3  0
 34 39  1  0
 35 37  1  0
 35 38  1  0
 36 38  1  0
 36 39  1  0
M  CHG  1  35   1
M  END
>  <s_m_entry_id>  (34) 
231

>  <s_m_entry_name>  (34) 
000000089.1

>  <s_m_Source_Path>  (34) 
/Users/zaksoul/Documents/1

>  <s_m_Source_File>  (34) 
000000089.mol2

>  <i_m_Source_File_Index>  (34) 
1

$$$$
No_0_97,No_0_98,No_0_99,No_0_100,No_0_101,No_1_7,No_1_19,No_1_38,No_1_41,No_1_82,No_0_97,No_0_98,No_0_99,No_0_100,No_0_101,No_1_7,No_1_19,No_1_38,No_1_41,No_1_82,No_0_97,No_0_98,No_0_99,No_0_100,No_0_101,No_1_7,No_1_19,No_1_38,No_1_41,No_1_82,No_0_97,No_0_98,No_0_99,No_0_100,No_0_101,No_1_7,No_1_19,No_1_38,No_1_41,No_1_82,No_0_97,No_0_98,No_0_99,No_0_100,No_0_101,No_1_7,No_1_19,No_1_38,No_1_41,No_1_82
     RDKit          3D

 38 43  0  0  1  0  0  0  0  0999 V2000
   -5.0530    3.4550  -22.0680 C   0  0  0  0  0  0  0  0  0  0  0  0
   -5.3120    3.6430  -23.4050 C   0  0  0  0  0  0  0  0  0  0  0  0
   -3.8130    3.2240  -21.7180 C   0  0  0  0  0  0  0  0  0  0  0  0
   -2.9070    3.3740  -23.8760 C   0  0  0  0  0  0  0  0  0  0  0  0
   -2.7530    3.1280  -22.4550 C   0  0  0  0  0  0  0  0  0  0  0  0
   -4.2550    3.6130  -24.4070 C   0  0  0  0  0  0  0  0  0  0  0  0
   -3.4830    3.6560  -26.5990 C   0  0  0  0  0  0  0  0  0  0  0  0
    6.2160    3.0870  -21.2580 C   0  0  0  0  0  0  0  0  0  0  0  0
    6.0950    3.2350  -23.8080 C   0  0  0  0  0  0  0  0  0  0  0  0
   -4.4980    3.7400  -25.7440 C   0  0  0  0  0  0  0  0  0  0  0  0
    2.3010    3.7120  -23.8540 C   0  0  0  0  0  0  0  0  0  0  0  0
    1.4570    4.8040  -23.5580 C   0  0  0  0  0  0  0  0  0  0  0  0
    3.2270    6.0310  -22.8600 C   0  0  0  0  0  0  0  0  0  0  0  0
    3.6950    3.9280  -23.5290 C   0  0  0  0  0  0  0  0  0  0  0  0
    1.7810    2.5870  -24.5230 C   0  0  0  0  0  0  0  0  0  0  0  0
   -0.3620    3.3600  -24.4270 C   0  0  0  0  0  0  0  0  0  0  0  0
    0.1370    4.5880  -23.8200 C   0  0  0  0  0  0  0  0  0  0  0  0
   -1.8120    3.3400  -24.7930 C   0  0  0  0  0  0  0  0  0  0  0  0
    4.3450    1.4410  -23.2400 C   0  0  0  0  0  0  0  0  0  0  0  0
    5.2760    1.0990  -22.0870 C   0  0  2  0  0  0  0  0  0  0  0  0
    6.8440    2.6710  -22.6060 C   0  0  2  0  0  0  0  0  0  0  0  0
    5.2300    2.0960  -20.9170 C   0  0  0  0  0  0  0  0  0  0  0  0
   -2.1290    3.4980  -26.2230 C   0  0  0  0  0  0  0  0  0  0  0  0
   -1.4060    2.7380  -21.8470 C   0  0  0  0  0  0  0  0  0  0  0  0
   -0.3730    2.4080  -21.3340 C   0  0  0  0  0  0  0  0  0  0  0  0
   -0.7270    5.6160  -23.4790 F   0  0  0  0  0  0  0  0  0  0  0  0
   -3.6090    2.9810  -20.3350 F   0  0  0  0  0  0  0  0  0  0  0  0
    1.9080    5.9700  -23.0190 N   0  0  0  0  0  0  0  0  0  0  0  0
    4.1430    5.0860  -23.0760 N   0  0  0  0  0  0  0  0  0  0  0  0
    0.4790    2.4740  -24.8390 N   0  0  0  0  0  0  0  0  0  0  0  0
    4.6340    2.8980  -23.7020 N   0  0  0  0  0  0  0  0  0  0  0  0
    6.6850    1.1940  -22.5580 N   0  0  0  0  0  0  0  0  0  0  0  0
   -3.6450    3.6720  -27.9900 O   0  0  0  0  0  0  0  0  0  0  0  0
    3.7460    7.4930  -20.8810 N   0  0  0  0  0  0  0  0  0  0  0  0
    4.4040    9.9460  -20.9310 C   0  0  0  0  0  0  0  0  0  0  0  0
    3.7570    7.3790  -22.3830 C   0  0  0  0  0  0  0  0  0  0  0  0
    4.6460    8.5590  -20.3070 C   0  0  0  0  0  0  0  0  0  0  0  0
    5.3680   10.9610  -20.3000 C   0  0  0  0  0  0  0  0  0  0  0  0
  1  2  2  0
  1  3  1  0
  2  6  1  0
  3  5  2  0
  3 27  1  0
  4  5  1  0
  4  6  2  0
  4 18  1  0
  5 24  1  0
  6 10  1  0
  7 10  2  0
  7 23  1  0
  7 33  1  0
 21  8  1  1
  8 22  1  0
  9 21  1  0
  9 31  1  0
 11 12  2  0
 11 14  1  0
 11 15  1  0
 12 17  1  0
 12 28  1  0
 13 28  2  0
 13 29  1  0
 13 36  1  0
 14 29  2  0
 14 31  1  0
 15 30  2  0
 16 17  2  0
 16 18  1  0
 16 30  1  0
 17 26  1  0
 18 23  2  0
 20 19  1  6
 19 31  1  0
 20 22  1  0
 20 32  1  0
 21 32  1  0
 24 25  3  0
 34 36  1  0
 34 37  1  0
 35 37  1  0
 35 38  1  0
M  CHG  1  34   1
M  END
>  <s_m_entry_id>  (35) 
235

>  <s_m_entry_name>  (35) 
000000093.1

>  <s_m_Source_Path>  (35) 
/Users/zaksoul/Documents/1

>  <s_m_Source_File>  (35) 
000000093.mol2

>  <i_m_Source_File_Index>  (35) 
1

$$$$
No_0_102,No_0_103,No_0_104,No_0_105,No_1_4,No_1_11,No_1_21,No_1_27,No_0_102,No_0_103,No_0_104,No_0_105,No_1_4,No_1_11,No_1_21,No_1_27,No_0_102,No_0_103,No_0_104,No_0_105,No_1_4,No_1_11,No_1_21,No_1_27,No_0_102,No_0_103,No_0_104,No_0_105,No_1_4,No_1_11,No_1_21,No_1_27,No_0_102,No_0_103,No_0_104,No_0_105,No_1_4,No_1_11,No_1_21,No_1_27
     RDKit          3D

 37 42  0  0  1  0  0  0  0  0999 V2000
   -5.0530    3.4550  -22.0680 C   0  0  0  0  0  0  0  0  0  0  0  0
   -5.3120    3.6430  -23.4050 C   0  0  0  0  0  0  0  0  0  0  0  0
   -3.8130    3.2240  -21.7180 C   0  0  0  0  0  0  0  0  0  0  0  0
   -2.9070    3.3740  -23.8760 C   0  0  0  0  0  0  0  0  0  0  0  0
   -2.7530    3.1280  -22.4550 C   0  0  0  0  0  0  0  0  0  0  0  0
   -4.2550    3.6130  -24.4070 C   0  0  0  0  0  0  0  0  0  0  0  0
   -3.4830    3.6560  -26.5990 C   0  0  0  0  0  0  0  0  0  0  0  0
    6.2160    3.0870  -21.2580 C   0  0  0  0  0  0  0  0  0  0  0  0
    6.0950    3.2350  -23.8080 C   0  0  0  0  0  0  0  0  0  0  0  0
   -4.4980    3.7400  -25.7440 C   0  0  0  0  0  0  0  0  0  0  0  0
    2.3010    3.7120  -23.8540 C   0  0  0  0  0  0  0  0  0  0  0  0
    1.4570    4.8040  -23.5580 C   0  0  0  0  0  0  0  0  0  0  0  0
    3.2270    6.0310  -22.8600 C   0  0  0  0  0  0  0  0  0  0  0  0
    3.6950    3.9280  -23.5290 C   0  0  0  0  0  0  0  0  0  0  0  0
    1.7810    2.5870  -24.5230 C   0  0  0  0  0  0  0  0  0  0  0  0
   -0.3620    3.3600  -24.4270 C   0  0  0  0  0  0  0  0  0  0  0  0
    0.1370    4.5880  -23.8200 C   0  0  0  0  0  0  0  0  0  0  0  0
   -1.8120    3.3400  -24.7930 C   0  0  0  0  0  0  0  0  0  0  0  0
    4.3450    1.4410  -23.2400 C   0  0  0  0  0  0  0  0  0  0  0  0
    5.2760    1.0990  -22.0870 C   0  0  2  0  0  0  0  0  0  0  0  0
    6.8440    2.6710  -22.6060 C   0  0  2  0  0  0  0  0  0  0  0  0
    5.2300    2.0960  -20.9170 C   0  0  0  0  0  0  0  0  0  0  0  0
   -2.1290    3.4980  -26.2230 C   0  0  0  0  0  0  0  0  0  0  0  0
   -1.4060    2.7380  -21.8470 C   0  0  0  0  0  0  0  0  0  0  0  0
   -0.3730    2.4080  -21.3340 C   0  0  0  0  0  0  0  0  0  0  0  0
   -0.7270    5.6160  -23.4790 F   0  0  0  0  0  0  0  0  0  0  0  0
   -3.6090    2.9810  -20.3350 F   0  0  0  0  0  0  0  0  0  0  0  0
    1.9080    5.9700  -23.0190 N   0  0  0  0  0  0  0  0  0  0  0  0
    4.1430    5.0860  -23.0760 N   0  0  0  0  0  0  0  0  0  0  0  0
    0.4790    2.4740  -24.8390 N   0  0  0  0  0  0  0  0  0  0  0  0
    4.6340    2.8980  -23.7020 N   0  0  0  0  0  0  0  0  0  0  0  0
    6.6850    1.1940  -22.5580 N   0  0  0  0  0  0  0  0  0  0  0  0
   -3.6450    3.6720  -27.9900 O   0  0  0  0  0  0  0  0  0  0  0  0
    3.4100    7.6270  -20.9370 N   0  0  0  0  0  0  0  0  0  0  0  0
    3.7570    7.3790  -22.3830 C   0  0  0  0  0  0  0  0  0  0  0  0
    3.9340    8.9100  -20.3480 C   0  0  0  0  0  0  0  0  0  0  0  0
    5.4600    8.8740  -20.1350 C   0  0  0  0  0  0  0  0  0  0  0  0
  1  2  2  0
  1  3  1  0
  2  6  1  0
  3  5  2  0
  3 27  1  0
  4  5  1  0
  4  6  2  0
  4 18  1  0
  5 24  1  0
  6 10  1  0
  7 10  2  0
  7 23  1  0
  7 33  1  0
 21  8  1  1
  8 22  1  0
  9 21  1  0
  9 31  1  0
 11 12  2  0
 11 14  1  0
 11 15  1  0
 12 17  1  0
 12 28  1  0
 13 28  2  0
 13 29  1  0
 13 35  1  0
 14 29  2  0
 14 31  1  0
 15 30  2  0
 16 17  2  0
 16 18  1  0
 16 30  1  0
 17 26  1  0
 18 23  2  0
 20 19  1  6
 19 31  1  0
 20 22  1  0
 20 32  1  0
 21 32  1  0
 24 25  3  0
 34 35  1  0
 34 36  1  0
 36 37  1  0
M  CHG  1  34   1
M  END
>  <s_m_entry_id>  (36) 
240

>  <s_m_entry_name>  (36) 
000000098.1

>  <s_m_Source_Path>  (36) 
/Users/zaksoul/Documents/1

>  <s_m_Source_File>  (36) 
000000098.mol2

>  <i_m_Source_File_Index>  (36) 
1

$$$$
No_0_106,No_0_107,No_0_108,No_0_109,No_0_110,No_1_2,No_1_15,No_1_30,No_1_42,No_1_84,No_0_106,No_0_107,No_0_108,No_0_109,No_0_110,No_1_2,No_1_15,No_1_30,No_1_42,No_1_84,No_0_106,No_0_107,No_0_108,No_0_109,No_0_110,No_1_2,No_1_15,No_1_30,No_1_42,No_1_84,No_0_106,No_0_107,No_0_108,No_0_109,No_0_110,No_1_2,No_1_15,No_1_30,No_1_42,No_1_84,No_0_106,No_0_107,No_0_108,No_0_109,No_0_110,No_1_2,No_1_15,No_1_30,No_1_42,No_1_84
     RDKit          3D

 36 41  0  0  1  0  0  0  0  0999 V2000
   -5.0530    3.4550  -22.0680 C   0  0  0  0  0  0  0  0  0  0  0  0
   -5.3120    3.6430  -23.4050 C   0  0  0  0  0  0  0  0  0  0  0  0
   -3.8130    3.2240  -21.7180 C   0  0  0  0  0  0  0  0  0  0  0  0
   -2.9070    3.3740  -23.8760 C   0  0  0  0  0  0  0  0  0  0  0  0
   -2.7530    3.1280  -22.4550 C   0  0  0  0  0  0  0  0  0  0  0  0
   -4.2550    3.6130  -24.4070 C   0  0  0  0  0  0  0  0  0  0  0  0
   -3.4830    3.6560  -26.5990 C   0  0  0  0  0  0  0  0  0  0  0  0
    6.2160    3.0870  -21.2580 C   0  0  0  0  0  0  0  0  0  0  0  0
    6.0950    3.2350  -23.8080 C   0  0  0  0  0  0  0  0  0  0  0  0
   -4.4980    3.7400  -25.7440 C   0  0  0  0  0  0  0  0  0  0  0  0
    2.3010    3.7120  -23.8540 C   0  0  0  0  0  0  0  0  0  0  0  0
    1.4570    4.8040  -23.5580 C   0  0  0  0  0  0  0  0  0  0  0  0
    3.2270    6.0310  -22.8600 C   0  0  0  0  0  0  0  0  0  0  0  0
    3.6950    3.9280  -23.5290 C   0  0  0  0  0  0  0  0  0  0  0  0
    1.7810    2.5870  -24.5230 C   0  0  0  0  0  0  0  0  0  0  0  0
   -0.3620    3.3600  -24.4270 C   0  0  0  0  0  0  0  0  0  0  0  0
    0.1370    4.5880  -23.8200 C   0  0  0  0  0  0  0  0  0  0  0  0
   -1.8120    3.3400  -24.7930 C   0  0  0  0  0  0  0  0  0  0  0  0
    4.3450    1.4410  -23.2400 C   0  0  0  0  0  0  0  0  0  0  0  0
    5.2760    1.0990  -22.0870 C   0  0  2  0  0  0  0  0  0  0  0  0
    6.8440    2.6710  -22.6060 C   0  0  2  0  0  0  0  0  0  0  0  0
    5.2300    2.0960  -20.9170 C   0  0  0  0  0  0  0  0  0  0  0  0
   -2.1290    3.4980  -26.2230 C   0  0  0  0  0  0  0  0  0  0  0  0
   -1.4060    2.7380  -21.8470 C   0  0  0  0  0  0  0  0  0  0  0  0
   -0.3730    2.4080  -21.3340 C   0  0  0  0  0  0  0  0  0  0  0  0
   -0.7270    5.6160  -23.4790 F   0  0  0  0  0  0  0  0  0  0  0  0
   -3.6090    2.9810  -20.3350 F   0  0  0  0  0  0  0  0  0  0  0  0
    1.9080    5.9700  -23.0190 N   0  0  0  0  0  0  0  0  0  0  0  0
    4.1430    5.0860  -23.0760 N   0  0  0  0  0  0  0  0  0  0  0  0
    0.4790    2.4740  -24.8390 N   0  0  0  0  0  0  0  0  0  0  0  0
    4.6340    2.8980  -23.7020 N   0  0  0  0  0  0  0  0  0  0  0  0
    6.6850    1.1940  -22.5580 N   0  0  0  0  0  0  0  0  0  0  0  0
   -3.6450    3.6720  -27.9900 O   0  0  0  0  0  0  0  0  0  0  0  0
    3.7250    7.4410  -20.8790 N   0  0  0  0  0  0  0  0  0  0  0  0
    3.7570    7.3790  -22.3830 C   0  0  0  0  0  0  0  0  0  0  0  0
    4.4640    8.6000  -20.2710 C   0  0  0  0  0  0  0  0  0  0  0  0
  1  2  2  0
  1  3  1  0
  2  6  1  0
  3  5  2  0
  3 27  1  0
  4  5  1  0
  4  6  2  0
  4 18  1  0
  5 24  1  0
  6 10  1  0
  7 10  2  0
  7 23  1  0
  7 33  1  0
 21  8  1  1
  8 22  1  0
  9 21  1  0
  9 31  1  0
 11 12  2  0
 11 14  1  0
 11 15  1  0
 12 17  1  0
 12 28  1  0
 13 28  2  0
 13 29  1  0
 13 35  1  0
 14 29  2  0
 14 31  1  0
 15 30  2  0
 16 17  2  0
 16 18  1  0
 16 30  1  0
 17 26  1  0
 18 23  2  0
 20 19  1  6
 19 31  1  0
 20 22  1  0
 20 32  1  0
 21 32  1  0
 24 25  3  0
 34 35  1  0
 34 36  1  0
M  CHG  1  34   1
M  END
>  <s_m_entry_id>  (37) 
244

>  <s_m_entry_name>  (37) 
000000102.1

>  <s_m_Source_Path>  (37) 
/Users/zaksoul/Documents/1

>  <s_m_Source_File>  (37) 
000000102.mol2

>  <i_m_Source_File_Index>  (37) 
1

$$$$
No_0_111,No_0_112,No_0_113,No_0_114,No_1_43,No_1_44,No_1_61,No_1_85,No_0_111,No_0_112,No_0_113,No_0_114,No_1_43,No_1_44,No_1_61,No_1_85,No_0_111,No_0_112,No_0_113,No_0_114,No_1_43,No_1_44,No_1_61,No_1_85,No_0_111,No_0_112,No_0_113,No_0_114,No_1_43,No_1_44,No_1_61,No_1_85,No_0_111,No_0_112,No_0_113,No_0_114,No_1_43,No_1_44,No_1_61,No_1_85
     RDKit          3D

 37 42  0  0  1  0  0  0  0  0999 V2000
   -5.0530    3.4550  -22.0680 C   0  0  0  0  0  0  0  0  0  0  0  0
   -5.3120    3.6430  -23.4050 C   0  0  0  0  0  0  0  0  0  0  0  0
   -3.8130    3.2240  -21.7180 C   0  0  0  0  0  0  0  0  0  0  0  0
   -2.9070    3.3740  -23.8760 C   0  0  0  0  0  0  0  0  0  0  0  0
   -2.7530    3.1280  -22.4550 C   0  0  0  0  0  0  0  0  0  0  0  0
   -4.2550    3.6130  -24.4070 C   0  0  0  0  0  0  0  0  0  0  0  0
   -3.4830    3.6560  -26.5990 C   0  0  0  0  0  0  0  0  0  0  0  0
    6.2160    3.0870  -21.2580 C   0  0  0  0  0  0  0  0  0  0  0  0
    6.0950    3.2350  -23.8080 C   0  0  0  0  0  0  0  0  0  0  0  0
   -4.4980    3.7400  -25.7440 C   0  0  0  0  0  0  0  0  0  0  0  0
    2.3010    3.7120  -23.8540 C   0  0  0  0  0  0  0  0  0  0  0  0
    1.4570    4.8040  -23.5580 C   0  0  0  0  0  0  0  0  0  0  0  0
    3.2270    6.0310  -22.8600 C   0  0  0  0  0  0  0  0  0  0  0  0
    3.6950    3.9280  -23.5290 C   0  0  0  0  0  0  0  0  0  0  0  0
    1.7810    2.5870  -24.5230 C   0  0  0  0  0  0  0  0  0  0  0  0
   -0.3620    3.3600  -24.4270 C   0  0  0  0  0  0  0  0  0  0  0  0
    0.1370    4.5880  -23.8200 C   0  0  0  0  0  0  0  0  0  0  0  0
   -1.8120    3.3400  -24.7930 C   0  0  0  0  0  0  0  0  0  0  0  0
    4.3450    1.4410  -23.2400 C   0  0  0  0  0  0  0  0  0  0  0  0
    5.2760    1.0990  -22.0870 C   0  0  2  0  0  0  0  0  0  0  0  0
    6.8440    2.6710  -22.6060 C   0  0  2  0  0  0  0  0  0  0  0  0
    5.2300    2.0960  -20.9170 C   0  0  0  0  0  0  0  0  0  0  0  0
   -2.1290    3.4980  -26.2230 C   0  0  0  0  0  0  0  0  0  0  0  0
   -1.4060    2.7380  -21.8470 C   0  0  0  0  0  0  0  0  0  0  0  0
   -0.3730    2.4080  -21.3340 C   0  0  0  0  0  0  0  0  0  0  0  0
   -0.7270    5.6160  -23.4790 F   0  0  0  0  0  0  0  0  0  0  0  0
   -3.6090    2.9810  -20.3350 F   0  0  0  0  0  0  0  0  0  0  0  0
    1.9080    5.9700  -23.0190 N   0  0  0  0  0  0  0  0  0  0  0  0
    4.1430    5.0860  -23.0760 N   0  0  0  0  0  0  0  0  0  0  0  0
    0.4790    2.4740  -24.8390 N   0  0  0  0  0  0  0  0  0  0  0  0
    4.6340    2.8980  -23.7020 N   0  0  0  0  0  0  0  0  0  0  0  0
    6.6850    1.1940  -22.5580 N   0  0  0  0  0  0  0  0  0  0  0  0
   -3.6450    3.6720  -27.9900 O   0  0  0  0  0  0  0  0  0  0  0  0
    5.5730    8.5810  -21.0810 N   0  0  0  0  0  0  0  0  0  0  0  0
    5.0410    7.2550  -21.5380 C   0  0  0  0  0  0  0  0  0  0  0  0
    6.8520    8.4680  -20.3030 C   0  0  0  0  0  0  0  0  0  0  0  0
    3.7570    7.3790  -22.3830 C   0  0  0  0  0  0  0  0  0  0  0  0
  1  2  2  0
  1  3  1  0
  2  6  1  0
  3  5  2  0
  3 27  1  0
  4  5  1  0
  4  6  2  0
  4 18  1  0
  5 24  1  0
  6 10  1  0
  7 10  2  0
  7 23  1  0
  7 33  1  0
 21  8  1  1
  8 22  1  0
  9 21  1  0
  9 31  1  0
 11 12  2  0
 11 14  1  0
 11 15  1  0
 12 17  1  0
 12 28  1  0
 13 28  2  0
 13 29  1  0
 13 37  1  0
 14 29  2  0
 14 31  1  0
 15 30  2  0
 16 17  2  0
 16 18  1  0
 16 30  1  0
 17 26  1  0
 18 23  2  0
 20 19  1  6
 19 31  1  0
 20 22  1  0
 20 32  1  0
 21 32  1  0
 24 25  3  0
 34 35  1  0
 34 36  1  0
 35 37  1  0
M  CHG  1  34   1
M  END
>  <s_m_entry_id>  (38) 
249

>  <s_m_entry_name>  (38) 
000000107.1

>  <s_m_Source_Path>  (38) 
/Users/zaksoul/Documents/1

>  <s_m_Source_File>  (38) 
000000107.mol2

>  <i_m_Source_File_Index>  (38) 
1

$$$$
No_0_115,No_1_3,No_0_115,No_1_3,No_0_115,No_1_3,No_0_115,No_1_3,No_0_115,No_1_3
     RDKit          3D

 36 41  0  0  1  0  0  0  0  0999 V2000
   -5.0530    3.4550  -22.0680 C   0  0  0  0  0  0  0  0  0  0  0  0
   -5.3120    3.6430  -23.4050 C   0  0  0  0  0  0  0  0  0  0  0  0
   -3.8130    3.2240  -21.7180 C   0  0  0  0  0  0  0  0  0  0  0  0
   -2.9070    3.3740  -23.8760 C   0  0  0  0  0  0  0  0  0  0  0  0
   -2.7530    3.1280  -22.4550 C   0  0  0  0  0  0  0  0  0  0  0  0
   -4.2550    3.6130  -24.4070 C   0  0  0  0  0  0  0  0  0  0  0  0
   -3.4830    3.6560  -26.5990 C   0  0  0  0  0  0  0  0  0  0  0  0
    6.2160    3.0870  -21.2580 C   0  0  0  0  0  0  0  0  0  0  0  0
    6.0950    3.2350  -23.8080 C   0  0  0  0  0  0  0  0  0  0  0  0
   -4.4980    3.7400  -25.7440 C   0  0  0  0  0  0  0  0  0  0  0  0
    2.3010    3.7120  -23.8540 C   0  0  0  0  0  0  0  0  0  0  0  0
    1.4570    4.8040  -23.5580 C   0  0  0  0  0  0  0  0  0  0  0  0
    3.2270    6.0310  -22.8600 C   0  0  0  0  0  0  0  0  0  0  0  0
    3.6950    3.9280  -23.5290 C   0  0  0  0  0  0  0  0  0  0  0  0
    1.7810    2.5870  -24.5230 C   0  0  0  0  0  0  0  0  0  0  0  0
   -0.3620    3.3600  -24.4270 C   0  0  0  0  0  0  0  0  0  0  0  0
    0.1370    4.5880  -23.8200 C   0  0  0  0  0  0  0  0  0  0  0  0
   -1.8120    3.3400  -24.7930 C   0  0  0  0  0  0  0  0  0  0  0  0
    4.3450    1.4410  -23.2400 C   0  0  0  0  0  0  0  0  0  0  0  0
    5.2760    1.0990  -22.0870 C   0  0  2  0  0  0  0  0  0  0  0  0
    6.8440    2.6710  -22.6060 C   0  0  2  0  0  0  0  0  0  0  0  0
    5.2300    2.0960  -20.9170 C   0  0  0  0  0  0  0  0  0  0  0  0
   -2.1290    3.4980  -26.2230 C   0  0  0  0  0  0  0  0  0  0  0  0
   -1.4060    2.7380  -21.8470 C   0  0  0  0  0  0  0  0  0  0  0  0
   -0.3730    2.4080  -21.3340 C   0  0  0  0  0  0  0  0  0  0  0  0
   -0.7270    5.6160  -23.4790 F   0  0  0  0  0  0  0  0  0  0  0  0
   -3.6090    2.9810  -20.3350 F   0  0  0  0  0  0  0  0  0  0  0  0
    1.9080    5.9700  -23.0190 N   0  0  0  0  0  0  0  0  0  0  0  0
    4.1430    5.0860  -23.0760 N   0  0  0  0  0  0  0  0  0  0  0  0
    0.4790    2.4740  -24.8390 N   0  0  0  0  0  0  0  0  0  0  0  0
    4.6340    2.8980  -23.7020 N   0  0  0  0  0  0  0  0  0  0  0  0
    6.6850    1.1940  -22.5580 N   0  0  0  0  0  0  0  0  0  0  0  0
   -3.6450    3.6720  -27.9900 O   0  0  0  0  0  0  0  0  0  0  0  0
    4.7560    7.3750  -21.6480 O   0  0  0  0  0  0  0  0  0  0  0  0
    3.7520    7.3660  -22.3880 C   0  0  0  0  0  0  0  0  0  0  0  0
    3.2440    8.4320  -22.7990 O   0  0  0  0  0  0  0  0  0  0  0  0
  1  2  2  0
  1  3  1  0
  2  6  1  0
  3  5  2  0
  3 27  1  0
  4  5  1  0
  4  6  2  0
  4 18  1  0
  5 24  1  0
  6 10  1  0
  7 10  2  0
  7 23  1  0
  7 33  1  0
 21  8  1  1
  8 22  1  0
  9 21  1  0
  9 31  1  0
 11 12  2  0
 11 14  1  0
 11 15  1  0
 12 17  1  0
 12 28  1  0
 13 28  2  0
 13 29  1  0
 13 35  1  0
 14 29  2  0
 14 31  1  0
 15 30  2  0
 16 17  2  0
 16 18  1  0
 16 30  1  0
 17 26  1  0
 18 23  2  0
 20 19  1  6
 19 31  1  0
 20 22  1  0
 20 32  1  0
 21 32  1  0
 24 25  3  0
 34 35  2  0
 35 36  1  0
M  CHG  1  36  -1
M  END
>  <s_m_entry_id>  (39) 
253

>  <s_m_entry_name>  (39) 
000000111.1

>  <s_m_Source_Path>  (39) 
/Users/zaksoul/Documents/1

>  <s_m_Source_File>  (39) 
000000111.mol2

>  <i_m_Source_File_Index>  (39) 
1

$$$$
No_0_116,No_0_117,No_0_118,No_0_119,No_0_120,No_0_121,No_1_1,No_1_5,No_1_13,No_1_36,No_1_60,No_1_75,No_0_116,No_0_117,No_0_118,No_0_119,No_0_120,No_0_121,No_1_1,No_1_5,No_1_13,No_1_36,No_1_60,No_1_75,No_0_116,No_0_117,No_0_118,No_0_119,No_0_120,No_0_121,No_1_1,No_1_5,No_1_13,No_1_36,No_1_60,No_1_75,No_0_116,No_0_117,No_0_118,No_0_119,No_0_120,No_0_121,No_1_1,No_1_5,No_1_13,No_1_36,No_1_60,No_1_75,No_0_116,No_0_117,No_0_118,No_0_119,No_0_120,No_0_121,No_1_1,No_1_5,No_1_13,No_1_36,No_1_60,No_1_75
     RDKit          3D

 36 41  0  0  1  0  0  0  0  0999 V2000
   -5.0530    3.4550  -22.0680 C   0  0  0  0  0  0  0  0  0  0  0  0
   -5.3120    3.6430  -23.4050 C   0  0  0  0  0  0  0  0  0  0  0  0
   -3.8130    3.2240  -21.7180 C   0  0  0  0  0  0  0  0  0  0  0  0
   -2.9070    3.3740  -23.8760 C   0  0  0  0  0  0  0  0  0  0  0  0
   -2.7530    3.1280  -22.4550 C   0  0  0  0  0  0  0  0  0  0  0  0
   -4.2550    3.6130  -24.4070 C   0  0  0  0  0  0  0  0  0  0  0  0
   -3.4830    3.6560  -26.5990 C   0  0  0  0  0  0  0  0  0  0  0  0
    6.2160    3.0870  -21.2580 C   0  0  0  0  0  0  0  0  0  0  0  0
    6.0950    3.2350  -23.8080 C   0  0  0  0  0  0  0  0  0  0  0  0
   -4.4980    3.7400  -25.7440 C   0  0  0  0  0  0  0  0  0  0  0  0
    2.3010    3.7120  -23.8540 C   0  0  0  0  0  0  0  0  0  0  0  0
    1.4570    4.8040  -23.5580 C   0  0  0  0  0  0  0  0  0  0  0  0
    3.2270    6.0310  -22.8600 C   0  0  0  0  0  0  0  0  0  0  0  0
    3.6950    3.9280  -23.5290 C   0  0  0  0  0  0  0  0  0  0  0  0
    1.7810    2.5870  -24.5230 C   0  0  0  0  0  0  0  0  0  0  0  0
   -0.3620    3.3600  -24.4270 C   0  0  0  0  0  0  0  0  0  0  0  0
    0.1370    4.5880  -23.8200 C   0  0  0  0  0  0  0  0  0  0  0  0
   -1.8120    3.3400  -24.7930 C   0  0  0  0  0  0  0  0  0  0  0  0
    4.3450    1.4410  -23.2400 C   0  0  0  0  0  0  0  0  0  0  0  0
    5.2760    1.0990  -22.0870 C   0  0  2  0  0  0  0  0  0  0  0  0
    6.8440    2.6710  -22.6060 C   0  0  2  0  0  0  0  0  0  0  0  0
    5.2300    2.0960  -20.9170 C   0  0  0  0  0  0  0  0  0  0  0  0
   -2.1290    3.4980  -26.2230 C   0  0  0  0  0  0  0  0  0  0  0  0
   -1.4060    2.7380  -21.8470 C   0  0  0  0  0  0  0  0  0  0  0  0
   -0.3730    2.4080  -21.3340 C   0  0  0  0  0  0  0  0  0  0  0  0
   -0.7270    5.6160  -23.4790 F   0  0  0  0  0  0  0  0  0  0  0  0
   -3.6090    2.9810  -20.3350 F   0  0  0  0  0  0  0  0  0  0  0  0
    1.9080    5.9700  -23.0190 N   0  0  0  0  0  0  0  0  0  0  0  0
    4.1430    5.0860  -23.0760 N   0  0  0  0  0  0  0  0  0  0  0  0
    0.4790    2.4740  -24.8390 N   0  0  0  0  0  0  0  0  0  0  0  0
    4.6340    2.8980  -23.7020 N   0  0  0  0  0  0  0  0  0  0  0  0
    6.6850    1.1940  -22.5580 N   0  0  0  0  0  0  0  0  0  0  0  0
   -3.6450    3.6720  -27.9900 O   0  0  0  0  0  0  0  0  0  0  0  0
    4.2350    8.7240  -20.4990 C   0  0  0  0  0  0  0  0  0  0  0  0
    3.7440    7.4800  -20.9670 O   0  0  0  0  0  0  0  0  0  0  0  0
    3.7570    7.3790  -22.3830 C   0  0  0  0  0  0  0  0  0  0  0  0
  1  2  2  0
  1  3  1  0
  2  6  1  0
  3  5  2  0
  3 27  1  0
  4  5  1  0
  4  6  2  0
  4 18  1  0
  5 24  1  0
  6 10  1  0
  7 10  2  0
  7 23  1  0
  7 33  1  0
 21  8  1  1
  8 22  1  0
  9 21  1  0
  9 31  1  0
 11 12  2  0
 11 14  1  0
 11 15  1  0
 12 17  1  0
 12 28  1  0
 13 28  2  0
 13 29  1  0
 13 36  1  0
 14 29  2  0
 14 31  1  0
 15 30  2  0
 16 17  2  0
 16 18  1  0
 16 30  1  0
 17 26  1  0
 18 23  2  0
 20 19  1  6
 19 31  1  0
 20 22  1  0
 20 32  1  0
 21 32  1  0
 24 25  3  0
 34 35  1  0
 35 36  1  0
M  END
>  <s_m_entry_id>  (40) 
254

>  <s_m_entry_name>  (40) 
000000112.1

>  <s_m_Source_Path>  (40) 
/Users/zaksoul/Documents/1

>  <s_m_Source_File>  (40) 
000000112.mol2

>  <i_m_Source_File_Index>  (40) 
1

$$$$
No_0_122,No_1_25,No_0_122,No_1_25,No_0_122,No_1_25,No_0_122,No_1_25,No_0_122,No_1_25
     RDKit          3D

 36 41  0  0  1  0  0  0  0  0999 V2000
   -5.0530    3.4550  -22.0680 C   0  0  0  0  0  0  0  0  0  0  0  0
   -5.3120    3.6430  -23.4050 C   0  0  0  0  0  0  0  0  0  0  0  0
   -3.8130    3.2240  -21.7180 C   0  0  0  0  0  0  0  0  0  0  0  0
   -2.9070    3.3740  -23.8760 C   0  0  0  0  0  0  0  0  0  0  0  0
   -2.7530    3.1280  -22.4550 C   0  0  0  0  0  0  0  0  0  0  0  0
   -4.2550    3.6130  -24.4070 C   0  0  0  0  0  0  0  0  0  0  0  0
   -3.4830    3.6560  -26.5990 C   0  0  0  0  0  0  0  0  0  0  0  0
    6.2160    3.0870  -21.2580 C   0  0  0  0  0  0  0  0  0  0  0  0
    6.0950    3.2350  -23.8080 C   0  0  0  0  0  0  0  0  0  0  0  0
   -4.4980    3.7400  -25.7440 C   0  0  0  0  0  0  0  0  0  0  0  0
    2.3010    3.7120  -23.8540 C   0  0  0  0  0  0  0  0  0  0  0  0
    1.4570    4.8040  -23.5580 C   0  0  0  0  0  0  0  0  0  0  0  0
    3.2270    6.0310  -22.8600 C   0  0  0  0  0  0  0  0  0  0  0  0
    3.6950    3.9280  -23.5290 C   0  0  0  0  0  0  0  0  0  0  0  0
    1.7810    2.5870  -24.5230 C   0  0  0  0  0  0  0  0  0  0  0  0
   -0.3620    3.3600  -24.4270 C   0  0  0  0  0  0  0  0  0  0  0  0
    0.1370    4.5880  -23.8200 C   0  0  0  0  0  0  0  0  0  0  0  0
   -1.8120    3.3400  -24.7930 C   0  0  0  0  0  0  0  0  0  0  0  0
    4.3450    1.4410  -23.2400 C   0  0  0  0  0  0  0  0  0  0  0  0
    5.2760    1.0990  -22.0870 C   0  0  2  0  0  0  0  0  0  0  0  0
    6.8440    2.6710  -22.6060 C   0  0  2  0  0  0  0  0  0  0  0  0
    5.2300    2.0960  -20.9170 C   0  0  0  0  0  0  0  0  0  0  0  0
   -2.1290    3.4980  -26.2230 C   0  0  0  0  0  0  0  0  0  0  0  0
   -1.4060    2.7380  -21.8470 C   0  0  0  0  0  0  0  0  0  0  0  0
   -0.3730    2.4080  -21.3340 C   0  0  0  0  0  0  0  0  0  0  0  0
   -0.7270    5.6160  -23.4790 F   0  0  0  0  0  0  0  0  0  0  0  0
   -3.6090    2.9810  -20.3350 F   0  0  0  0  0  0  0  0  0  0  0  0
    1.9080    5.9700  -23.0190 N   0  0  0  0  0  0  0  0  0  0  0  0
    4.1430    5.0860  -23.0760 N   0  0  0  0  0  0  0  0  0  0  0  0
    0.4790    2.4740  -24.8390 N   0  0  0  0  0  0  0  0  0  0  0  0
    4.6340    2.8980  -23.7020 N   0  0  0  0  0  0  0  0  0  0  0  0
    6.6850    1.1940  -22.5580 N   0  0  0  0  0  0  0  0  0  0  0  0
   -3.6450    3.6720  -27.9900 O   0  0  0  0  0  0  0  0  0  0  0  0
    3.2470    8.4290  -22.7600 O   0  0  0  0  0  0  0  0  0  0  0  0
    3.7520    7.3660  -22.3880 C   0  0  0  0  0  0  0  0  0  0  0  0
    4.7380    7.3310  -21.4810 N   0  0  0  0  0  0  0  0  0  0  0  0
  1  2  2  0
  1  3  1  0
  2  6  1  0
  3  5  2  0
  3 27  1  0
  4  5  1  0
  4  6  2  0
  4 18  1  0
  5 24  1  0
  6 10  1  0
  7 10  2  0
  7 23  1  0
  7 33  1  0
 21  8  1  1
  8 22  1  0
  9 21  1  0
  9 31  1  0
 11 12  2  0
 11 14  1  0
 11 15  1  0
 12 17  1  0
 12 28  1  0
 13 28  2  0
 13 29  1  0
 13 35  1  0
 14 29  2  0
 14 31  1  0
 15 30  2  0
 16 17  2  0
 16 18  1  0
 16 30  1  0
 17 26  1  0
 18 23  2  0
 20 19  1  6
 19 31  1  0
 20 22  1  0
 20 32  1  0
 21 32  1  0
 24 25  3  0
 34 35  2  0
 35 36  1  0
M  END
>  <s_m_entry_id>  (41) 
260

>  <s_m_entry_name>  (41) 
000000118.1

>  <s_m_Source_Path>  (41) 
/Users/zaksoul/Documents/1

>  <s_m_Source_File>  (41) 
000000118.mol2

>  <i_m_Source_File_Index>  (41) 
1

$$$$
No_1_124,No_1_124,No_1_124,No_1_124,No_1_124
     RDKit          3D

 39 44  0  0  1  0  0  0  0  0999 V2000
   -5.0530    3.4550  -22.0680 C   0  0  0  0  0  0  0  0  0  0  0  0
   -5.3120    3.6430  -23.4050 C   0  0  0  0  0  0  0  0  0  0  0  0
   -3.8130    3.2240  -21.7180 C   0  0  0  0  0  0  0  0  0  0  0  0
   -2.9070    3.3740  -23.8760 C   0  0  0  0  0  0  0  0  0  0  0  0
   -2.7530    3.1280  -22.4550 C   0  0  0  0  0  0  0  0  0  0  0  0
   -4.2550    3.6130  -24.4070 C   0  0  0  0  0  0  0  0  0  0  0  0
   -3.4830    3.6560  -26.5990 C   0  0  0  0  0  0  0  0  0  0  0  0
    6.2160    3.0870  -21.2580 C   0  0  0  0  0  0  0  0  0  0  0  0
    6.0950    3.2350  -23.8080 C   0  0  0  0  0  0  0  0  0  0  0  0
   -4.4980    3.7400  -25.7440 C   0  0  0  0  0  0  0  0  0  0  0  0
    2.3010    3.7120  -23.8540 C   0  0  0  0  0  0  0  0  0  0  0  0
    1.4570    4.8040  -23.5580 C   0  0  0  0  0  0  0  0  0  0  0  0
    3.2270    6.0310  -22.8600 C   0  0  0  0  0  0  0  0  0  0  0  0
    3.6950    3.9280  -23.5290 C   0  0  0  0  0  0  0  0  0  0  0  0
    1.7810    2.5870  -24.5230 C   0  0  0  0  0  0  0  0  0  0  0  0
   -0.3620    3.3600  -24.4270 C   0  0  0  0  0  0  0  0  0  0  0  0
    0.1370    4.5880  -23.8200 C   0  0  0  0  0  0  0  0  0  0  0  0
   -1.8120    3.3400  -24.7930 C   0  0  0  0  0  0  0  0  0  0  0  0
    4.3450    1.4410  -23.2400 C   0  0  0  0  0  0  0  0  0  0  0  0
    5.2760    1.0990  -22.0870 C   0  0  2  0  0  0  0  0  0  0  0  0
    6.8440    2.6710  -22.6060 C   0  0  2  0  0  0  0  0  0  0  0  0
    5.2300    2.0960  -20.9170 C   0  0  0  0  0  0  0  0  0  0  0  0
   -2.1290    3.4980  -26.2230 C   0  0  0  0  0  0  0  0  0  0  0  0
   -1.4060    2.7380  -21.8470 C   0  0  0  0  0  0  0  0  0  0  0  0
   -0.3730    2.4080  -21.3340 C   0  0  0  0  0  0  0  0  0  0  0  0
   -0.7270    5.6160  -23.4790 F   0  0  0  0  0  0  0  0  0  0  0  0
   -3.6090    2.9810  -20.3350 F   0  0  0  0  0  0  0  0  0  0  0  0
    1.9080    5.9700  -23.0190 N   0  0  0  0  0  0  0  0  0  0  0  0
    4.1430    5.0860  -23.0760 N   0  0  0  0  0  0  0  0  0  0  0  0
    0.4790    2.4740  -24.8390 N   0  0  0  0  0  0  0  0  0  0  0  0
    4.6340    2.8980  -23.7020 N   0  0  0  0  0  0  0  0  0  0  0  0
    6.6850    1.1940  -22.5580 N   0  0  0  0  0  0  0  0  0  0  0  0
   -3.6450    3.6720  -27.9900 O   0  0  0  0  0  0  0  0  0  0  0  0
    3.2470    8.4290  -22.7600 O   0  0  0  0  0  0  0  0  0  0  0  0
    3.7520    7.3660  -22.3880 C   0  0  0  0  0  0  0  0  0  0  0  0
    4.7380    7.3310  -21.4810 N   0  0  0  0  0  0  0  0  0  0  0  0
    6.1990    8.3330  -20.1360 O   0  0  0  0  0  0  0  0  0  0  0  0
    5.1060    8.3870  -20.7330 C   0  0  0  0  0  0  0  0  0  0  0  0
    4.4080    9.4240  -20.7080 O   0  0  0  0  0  0  0  0  0  0  0  0
  1  2  2  0
  1  3  1  0
  2  6  1  0
  3  5  2  0
  3 27  1  0
  4  5  1  0
  4  6  2  0
  4 18  1  0
  5 24  1  0
  6 10  1  0
  7 10  2  0
  7 23  1  0
  7 33  1  0
 21  8  1  1
  8 22  1  0
  9 21  1  0
  9 31  1  0
 11 12  2  0
 11 14  1  0
 11 15  1  0
 12 17  1  0
 12 28  1  0
 13 28  2  0
 13 29  1  0
 13 35  1  0
 14 29  2  0
 14 31  1  0
 15 30  2  0
 16 17  2  0
 16 18  1  0
 16 30  1  0
 17 26  1  0
 18 23  2  0
 20 19  1  6
 19 31  1  0
 20 22  1  0
 20 32  1  0
 21 32  1  0
 24 25  3  0
 34 35  2  0
 35 36  1  0
 36 38  1  0
 37 38  2  0
 38 39  1  0
M  CHG  1  39  -1
M  END
>  <s_m_entry_id>  (42) 
380

>  <s_m_entry_name>  (42) 
000000238.1

>  <s_m_Source_Path>  (42) 
/Users/zaksoul/Documents/1

>  <s_m_Source_File>  (42) 
000000238.mol2

>  <i_m_Source_File_Index>  (42) 
1

$$$$
No_1_125,No_1_125,No_1_125,No_1_125,No_1_125
     RDKit          3D

 39 44  0  0  1  0  0  0  0  0999 V2000
   -5.0530    3.4550  -22.0680 C   0  0  0  0  0  0  0  0  0  0  0  0
   -5.3120    3.6430  -23.4050 C   0  0  0  0  0  0  0  0  0  0  0  0
   -3.8130    3.2240  -21.7180 C   0  0  0  0  0  0  0  0  0  0  0  0
   -2.9070    3.3740  -23.8760 C   0  0  0  0  0  0  0  0  0  0  0  0
   -2.7530    3.1280  -22.4550 C   0  0  0  0  0  0  0  0  0  0  0  0
   -4.2550    3.6130  -24.4070 C   0  0  0  0  0  0  0  0  0  0  0  0
   -3.4830    3.6560  -26.5990 C   0  0  0  0  0  0  0  0  0  0  0  0
    6.2160    3.0870  -21.2580 C   0  0  0  0  0  0  0  0  0  0  0  0
    6.0950    3.2350  -23.8080 C   0  0  0  0  0  0  0  0  0  0  0  0
   -4.4980    3.7400  -25.7440 C   0  0  0  0  0  0  0  0  0  0  0  0
    2.3010    3.7120  -23.8540 C   0  0  0  0  0  0  0  0  0  0  0  0
    1.4570    4.8040  -23.5580 C   0  0  0  0  0  0  0  0  0  0  0  0
    3.2270    6.0310  -22.8600 C   0  0  0  0  0  0  0  0  0  0  0  0
    3.6950    3.9280  -23.5290 C   0  0  0  0  0  0  0  0  0  0  0  0
    1.7810    2.5870  -24.5230 C   0  0  0  0  0  0  0  0  0  0  0  0
   -0.3620    3.3600  -24.4270 C   0  0  0  0  0  0  0  0  0  0  0  0
    0.1370    4.5880  -23.8200 C   0  0  0  0  0  0  0  0  0  0  0  0
   -1.8120    3.3400  -24.7930 C   0  0  0  0  0  0  0  0  0  0  0  0
    4.3450    1.4410  -23.2400 C   0  0  0  0  0  0  0  0  0  0  0  0
    5.2760    1.0990  -22.0870 C   0  0  2  0  0  0  0  0  0  0  0  0
    6.8440    2.6710  -22.6060 C   0  0  2  0  0  0  0  0  0  0  0  0
    5.2300    2.0960  -20.9170 C   0  0  0  0  0  0  0  0  0  0  0  0
   -2.1290    3.4980  -26.2230 C   0  0  0  0  0  0  0  0  0  0  0  0
   -1.4060    2.7380  -21.8470 C   0  0  0  0  0  0  0  0  0  0  0  0
   -0.3730    2.4080  -21.3340 C   0  0  0  0  0  0  0  0  0  0  0  0
   -0.7270    5.6160  -23.4790 F   0  0  0  0  0  0  0  0  0  0  0  0
   -3.6090    2.9810  -20.3350 F   0  0  0  0  0  0  0  0  0  0  0  0
    1.9080    5.9700  -23.0190 N   0  0  0  0  0  0  0  0  0  0  0  0
    4.1430    5.0860  -23.0760 N   0  0  0  0  0  0  0  0  0  0  0  0
    0.4790    2.4740  -24.8390 N   0  0  0  0  0  0  0  0  0  0  0  0
    4.6340    2.8980  -23.7020 N   0  0  0  0  0  0  0  0  0  0  0  0
    6.6850    1.1940  -22.5580 N   0  0  0  0  0  0  0  0  0  0  0  0
   -3.6450    3.6720  -27.9900 O   0  0  0  0  0  0  0  0  0  0  0  0
    3.2470    8.4290  -22.7600 O   0  0  0  0  0  0  0  0  0  0  0  0
    3.7520    7.3660  -22.3880 C   0  0  0  0  0  0  0  0  0  0  0  0
    4.7380    7.3310  -21.4810 N   0  0  0  0  0  0  0  0  0  0  0  0
    4.3910    9.3880  -20.6290 O   0  0  0  0  0  0  0  0  0  0  0  0
    5.1060    8.3870  -20.7330 C   0  0  0  0  0  0  0  0  0  0  0  0
    6.2460    8.2580  -20.0410 N   0  0  0  0  0  0  0  0  0  0  0  0
  1  2  2  0
  1  3  1  0
  2  6  1  0
  3  5  2  0
  3 27  1  0
  4  5  1  0
  4  6  2  0
  4 18  1  0
  5 24  1  0
  6 10  1  0
  7 10  2  0
  7 23  1  0
  7 33  1  0
 21  8  1  1
  8 22  1  0
  9 21  1  0
  9 31  1  0
 11 12  2  0
 11 14  1  0
 11 15  1  0
 12 17  1  0
 12 28  1  0
 13 28  2  0
 13 29  1  0
 13 35  1  0
 14 29  2  0
 14 31  1  0
 15 30  2  0
 16 17  2  0
 16 18  1  0
 16 30  1  0
 17 26  1  0
 18 23  2  0
 20 19  1  6
 19 31  1  0
 20 22  1  0
 20 32  1  0
 21 32  1  0
 24 25  3  0
 34 35  2  0
 35 36  1  0
 36 38  1  0
 37 38  2  0
 38 39  1  0
M  END
>  <s_m_entry_id>  (43) 
381

>  <s_m_entry_name>  (43) 
000000239.1

>  <s_m_Source_Path>  (43) 
/Users/zaksoul/Documents/1

>  <s_m_Source_File>  (43) 
000000239.mol2

>  <i_m_Source_File_Index>  (43) 
1

$$$$
